data_mof_unit_4913.cif
_audit_creation_date              2013-03-05T15:49:19-0500
_audit_creation_method            fapswitch 2.2
_symmetry_space_group_name_H-M    P1
_symmetry_Int_Tables_number       1
_space_group_crystal_system       triclinic
_cell_length_a                    10.738885
_cell_length_b                    12.044233
_cell_length_c                    12.853262
_cell_angle_alpha                 94.207639
_cell_angle_beta                  92.165212
_cell_angle_gamma                 86.26505
_cell_volume                      1653.54970423

loop_
_atom_site_label
_atom_site_type_symbol
_atom_site_description
_atom_site_fract_x
_atom_site_fract_y
_atom_site_fract_z
_atom_type_partial_charge
O1    O     O_R   0.506170 0.421690 0.658830 -0.613009
O2    O     O_R   0.491330 0.609320 0.646410 -0.622224
C1    C     C_R   0.484835 0.522453 0.699292 0.958412
O3    O     O_R   0.690660 0.406170 0.506210 -0.580533
O4    O     O_R   0.675810 0.593790 0.493790 -0.599137
C2    C     C_R   0.739587 0.501535 0.510677 0.999006
Zn1   Zn    Zn3+2 0.509910 0.374720 0.508290 1.077483
Zn2   Zn    Zn3+2 0.490090 0.625280 0.491710 0.992517
O5    O     O_R   0.508670 0.390680 0.353590 -0.552282
O6    O     O_R   0.493830 0.578310 0.341170 -0.625274
O7    O     O_R   0.324190 0.406210 0.506210 -0.572701
O8    O     O_R   0.309340 0.593830 0.493790 -0.654367
C3    C     C_R   0.500560 0.476924 0.299158 0.975806
C4    C     C_R   0.260944 0.499356 0.494640 0.846172
C5    C     C_R   0.898384 0.533283 0.710536 0.317983
C6    C     C_R   0.977494 0.561236 0.797864 -0.028876
C7    C     C_R   0.101553 0.578017 0.784406 -0.252897
H1    H     H_    0.162254 0.601022 0.850676 0.159406
C8    C     C_R   0.149945 0.561199 0.686333 -0.151157
H2    H     H_    0.247092 0.574582 0.680611 0.128393
C9    C     C_R   0.075283 0.528182 0.598015 0.077863
C10   C     C_R   0.946165 0.520501 0.607279 -0.085866
C11   C     C_R   0.873396 0.501051 0.512614 -0.225451
C12   C     C_R   0.929142 0.481230 0.414688 0.275821
C13   C     C_R   0.058044 0.478450 0.409508 -0.129823
C14   C     C_R   0.128991 0.501716 0.500700 -0.117767
C15   C     C_R   0.491340 0.461261 0.186578 -0.149206
C16   C     C_R   0.460025 0.536437 0.810115 -0.070535
C17   C     C_R   0.414781 0.647171 0.971403 -0.045541
C18   C     C_R   0.424384 0.640518 0.862554 -0.072970
C19   C     C_R   0.475479 0.440268 0.864518 -0.171201
C20   C     C_R   0.471326 0.446699 0.971079 0.087573
C21   C     C_R   0.443944 0.550466 0.025781 0.119804
C22   C     C_R   0.451195 0.555380 0.133646 -0.259016
C23   C     C_R   0.515957 0.356742 0.131029 0.348575
C24   C     C_R   0.502201 0.350495 0.023170 -0.222933
H3    H     H_    0.428651 0.634131 0.176977 0.181168
H4    H     H_    0.523190 0.271317 0.979584 0.181146
H5    H     H_    0.499034 0.359496 0.824695 0.183531
N1    N     N_R   0.523130 0.207800 0.519340 -0.156926
N2    N     N_R   0.476870 0.792180 0.480660 -0.125157
C25   C     C_R   0.371798 0.950625 0.405860 -0.110787
C26   C     C_R   0.387723 0.835440 0.415286 -0.030876
C27   C     C_R   0.555849 0.859115 0.538078 0.094344
C28   C     C_R   0.545710 0.976408 0.531100 0.006369
C29   C     C_R   0.449962 0.024137 0.466439 -0.048398
C30   C     C_R   0.438125 0.142989 0.465388 0.419177
C31   C     C_R   0.616938 0.161703 0.578621 -0.002672
C32   C     C_R   0.628806 0.046796 0.587014 -0.279919
H6    H     H_    0.682370 0.214627 0.620418 0.196233
H7    H     H_    0.704094 0.013816 0.636430 0.171821
H8    H     H_    0.328686 0.779077 0.369807 0.136229
N3    N     N_R   0.854219 0.465257 0.320173 0.198939
O9    O     O_R   0.778212 0.546060 0.290005 -0.388277
O10   O     O_R   0.876161 0.377688 0.256542 -0.310657
C33   C     C_1   0.396464 0.739929 0.806438 0.237238
N4    N     N_1   0.373942 0.819298 0.761889 -0.175011
N5    N     N_R   0.332415 0.196866 0.415036 0.199628
O11   O     O_R   0.341277 0.232030 0.322583 -0.355358
O12   O     O_R   0.223579 0.199595 0.456721 -0.391525
C34   C     C_1   0.278544 0.986846 0.329592 0.313471
N6    N     N_1   0.203660 0.014843 0.268133 -0.085179
C35   C     C_1   0.649160 0.808857 0.606546 0.249566
N7    N     N_1   0.724884 0.770182 0.661775 -0.156556
N8    N     N_R   0.773967 0.510278 0.730682 0.157165
O13   O     O_R   0.747507 0.406329 0.728824 -0.423413
O14   O     O_R   0.709519 0.584105 0.788801 -0.427541
C36   C     C_1   0.934175 0.568920 0.903476 0.310814
N9    N     N_1   0.899636 0.574983 0.988047 -0.109815
C37   C     C_1   0.117258 0.458577 0.309509 0.323804
N10   N     N_1   0.164599 0.442877 0.229894 -0.156363
N11   N     N_R   0.558759 0.257607 0.180793 0.235134
O15   O     O_R   0.513489 0.162749 0.149460 -0.349391
O16   O     O_R   0.660117 0.257002 0.239451 -0.298808
C38   C     C_1   0.379240 0.753561 0.026509 0.174617
N12   N     N_1   0.350953 0.838287 0.070374 -0.149814

loop_
_geom_bond_atom_site_label_1
_geom_bond_atom_site_label_2
_geom_bond_distance
_ccdc_geom_bond_type
N1    C30   1.374441 A    
C9    C14   1.403868 A    
C22   H3    1.082219 S    
C8    H2    1.072018 S    
N3    O9    1.300644 A    
Zn1   O7    2.005295 S    
C20   C24   1.395639 A    
C1    C16   1.454649 S    
C8    C9    1.412847 A    
O4    C2    1.294538 A    
O7    C4    1.288247 A    
C26   H8    1.083659 S    
N8    O14   1.299660 A    
N5    O12   1.301514 A    
C5    C6    1.415893 A    
C5    N8    1.419105 S    
C17   C21   1.413720 A    
C33   N4    1.157544 T    
N1    C31   1.354582 A    
C25   C29   1.428661 A    
O5    C3    1.290855 A    
C5    C10   1.435132 A    
C23   C24   1.385677 A    
C6    C7    1.379595 A    
C32   H7    1.082251 S    
Zn1   N1    2.021217 S    
C37   N10   1.157484 T    
C6    C36   1.446147 S    
C31   H6    1.080858 S    
C27   C35   1.441356 S    
C9    C10   1.405760 A    
N2    C26   1.353701 A    
O3    Zn1   2.003270 S    
C13   C14   1.394633 A    
C7    H1    1.083594 S    
N3    O10   1.300929 A    
C15   C22   1.400396 A    
Zn2   N2    2.020978 S    
O3    C2    1.290468 A    
C36   N9    1.157497 T    
C15   C23   1.415399 A    
N5    O11   1.299308 A    
C28   C29   1.416675 A    
C18   C33   1.451676 S    
C4    C14   1.420431 S    
O1    C1    1.294596 A    
C38   N12   1.157417 T    
C17   C18   1.402787 A    
C19   C20   1.368405 A    
C28   C32   1.411458 A    
Zn2   O8    2.003267 S    
C21   C22   1.382790 A    
C12   C13   1.386484 A    
C25   C34   1.444241 S    
N11   O16   1.300395 A    
C31   C32   1.393236 A    
O8    C4    1.282292 A    
C23   N11   1.436807 S    
N2    C27   1.366898 A    
C25   C26   1.400263 A    
C27   C28   1.418963 A    
Zn1   O5    2.011122 S    
C29   C30   1.429856 A    
O1    Zn1   1.976838 S    
C16   C19   1.393965 A    
O2    Zn2   2.011123 S    
N11   O15   1.301487 A    
O6    C3    1.297167 A    
O4    Zn2   2.005294 S    
C17   C38   1.453561 S    
C20   C21   1.407699 A    
C24   H4    1.084995 S    
O2    C1    1.295745 A    
C12   N3    1.439522 S    
C30   N5    1.427853 S    
C2    C11   1.435882 S    
C16   C18   1.416060 A    
C7    C8    1.377828 A    
C19   H5    1.084925 S    
C34   N6    1.157666 T    
C11   C12   1.412031 A    
C35   N7    1.156606 T    
Zn2   O6    1.976839 S    
N8    O13   1.300098 A    
C10   C11   1.433955 A    
C3    C15   1.445963 S    
C13   C37   1.452739 S    
