data_mof_unit_1652.cif
_audit_creation_date              2013-03-05T16:03:27-0500
_audit_creation_method            fapswitch 2.2
_symmetry_space_group_name_H-M    P1
_symmetry_Int_Tables_number       1
_space_group_crystal_system       triclinic
_cell_length_a                    6.941265
_cell_length_b                    18.104153
_cell_length_c                    20.393263
_cell_angle_alpha                 68.727947
_cell_angle_beta                  90.088712
_cell_angle_gamma                 90.751023
_cell_volume                      2387.91141429

loop_
_atom_site_label
_atom_site_type_symbol
_atom_site_description
_atom_site_fract_x
_atom_site_fract_y
_atom_site_fract_z
_atom_type_partial_charge
O1    O     O_R   0.488960 0.443750 0.941980 -0.603087
O2    O     O_R   0.823890 0.406510 0.087590 -0.593989
O3    O     O_R   0.999680 0.556250 0.058020 -0.555984
C1    C     C_R   0.654957 0.383024 0.114732 0.964124
O4    O     O_R   0.818360 0.434410 0.944340 -0.598202
O5    O     O_R   0.994110 0.584350 0.913750 -0.594086
C2    C     C_R   0.649291 0.420148 0.923938 0.952698
O6    O     O_R   0.494530 0.415650 0.086250 -0.595527
O7    O     O_3   0.662590 0.549160 0.990130 -0.235856
V1    V     V_3+5 0.935320 0.490880 0.001830 1.227362
O8    O     O_R   0.324180 0.593490 0.912410 -0.583027
C3    C     C_R   0.156126 0.618988 0.886297 1.004871
O9    O     O_R   0.329720 0.565590 0.055660 -0.570315
C4    C     C_R   0.161914 0.578176 0.077519 1.088637
V2    V     V_3+5 0.435990 0.509120 0.998170 1.238686
O10   O     O_3   0.158850 0.450840 0.009870 -0.293391
C5    C     C_3   0.953416 0.780431 0.248625 -0.275878
C6    C     C_3   0.018812 0.693121 0.272610 0.332586
H1    H     H_    0.803604 0.799798 0.251651 0.186796
H2    H     H_    0.245194 0.676521 0.363808 0.186634
C7    C     C_1   0.154220 0.625723 0.121665 -0.092920
C8    C     C_1   0.112495 0.881431 0.372876 -0.245402
C9    C     C_3   0.073571 0.800319 0.179661 -0.232570
C10   C     C_3   0.138555 0.713039 0.204466 0.046787
C11   C     C_3   0.247950 0.818653 0.218227 0.373906
C12   C     C_3   0.130109 0.799794 0.285843 -0.004880
C13   C     C_3   0.316358 0.732494 0.241439 -0.221461
C14   C     C_3   0.195435 0.712852 0.310120 -0.183149
C15   C     C_1   0.146552 0.665235 0.158772 0.201196
C16   C     C_1   0.120880 0.845289 0.333173 0.140408
H3    H     H_    0.466682 0.714027 0.237925 0.189008
H4    H     H_    0.025344 0.837058 0.125882 0.196502
H5    H     H_    0.444977 0.542936 0.702709 0.132840
C17   C     C_R   0.011442 0.781649 0.872111 0.341174
C18   C     C_R   0.920162 0.853140 0.863297 -0.120854
C19   C     C_R   0.898122 0.910543 0.797295 -0.187176
C20   C     C_R   0.966549 0.897708 0.738716 -0.182396
C21   C     C_R   0.049432 0.824562 0.744168 0.108887
C22   C     C_R   0.069987 0.763614 0.812330 -0.047534
C23   C     C_R   0.109618 0.812304 0.682434 -0.263978
C24   C     C_R   0.177555 0.736426 0.688272 0.067064
C25   C     C_R   0.218098 0.678669 0.755924 0.106905
C26   C     C_R   0.151706 0.689002 0.817997 -0.275892
C27   C     C_R   0.197587 0.713417 0.629030 0.117144
C28   C     C_R   0.302883 0.646472 0.634068 -0.086765
C29   C     C_R   0.368281 0.596065 0.698825 -0.138148
C30   C     C_R   0.317855 0.609404 0.759462 -0.192747
H6    H     H_    0.875223 0.866284 0.908691 0.179955
H7    H     H_    0.832712 0.966517 0.791626 0.151656
H8    H     H_    0.951041 0.946262 0.689088 0.131114
H9    H     H_    0.320400 0.629708 0.588592 0.152796
H10   H     H_    0.358186 0.564212 0.808596 0.135142
C31   C     C_R   0.763129 0.101369 0.261956 -0.185254
C32   C     C_R   0.837196 0.089262 0.203327 -0.036516
C33   C     C_R   0.849081 0.151676 0.139155 -0.058694
C34   C     C_R   0.786897 0.226602 0.133177 -0.191307
C35   C     C_R   0.713803 0.241376 0.192147 0.109258
C36   C     C_R   0.701930 0.177378 0.258229 0.113059
C37   C     C_R   0.648310 0.317780 0.185179 -0.226540
C38   C     C_R   0.569652 0.330568 0.244614 0.000405
C39   C     C_R   0.548378 0.265563 0.310592 -0.076963
C40   C     C_R   0.622207 0.188857 0.318093 -0.244933
C41   C     C_R   0.509641 0.407226 0.240527 0.002563
C42   C     C_R   0.381084 0.414211 0.290318 0.250660
C43   C     C_R   0.353749 0.351635 0.353713 0.095792
C44   C     C_R   0.454302 0.280870 0.366816 0.216690
H11   H     H_    0.751575 0.049600 0.309583 0.124552
H12   H     H_    0.883204 0.030773 0.207573 0.145721
H13   H     H_    0.904616 0.141824 0.093459 0.157029
H14   H     H_    0.795159 0.272252 0.081375 0.120457
O11   O     O_R   0.770540 0.084530 0.414050 -0.592338
O12   O     O_R   0.445710 0.065660 0.555720 -0.554914
O13   O     O_R   0.270420 0.915650 0.586190 -0.598313
C45   C     C_R   0.614157 0.077288 0.578422 1.061293
O14   O     O_R   0.441140 0.093540 0.412470 -0.582791
O15   O     O_R   0.265820 0.943740 0.441930 -0.589642
C46   C     C_R   0.610641 0.118894 0.386355 1.004308
O16   O     O_R   0.775150 0.056440 0.558310 -0.595137
O17   O     O_3   0.602370 0.950960 0.510050 -0.277884
V3    V     V_3+5 0.329450 0.009140 0.498150 1.245093
O18   O     O_R   0.935790 0.934280 0.444060 -0.586620
C47   C     C_R   0.103824 0.924246 0.420616 0.997206
O19   O     O_R   0.940370 0.906390 0.587310 -0.589500
C48   C     C_R   0.108077 0.880600 0.613124 0.966910
V4    V     V_3+5 0.828810 0.990710 0.501460 1.222499
O20   O     O_3   0.105780 0.049100 0.489960 -0.242582
C49   C     C_3   0.700133 0.321246 0.716472 -0.179059
C50   C     C_3   0.518378 0.283624 0.696171 -0.106011
H15   H     H_    0.425043 0.312931 0.649996 0.151691
H16   H     H_    0.756488 0.382061 0.687419 0.146677
H17   H     H_    0.302658 0.256048 0.792467 0.161214
C51   C     C_1   0.622784 0.122457 0.624432 -0.200465
C52   C     C_1   0.640102 0.374049 0.878735 -0.268641
C53   C     C_3   0.811787 0.243477 0.729553 -0.196093
C54   C     C_3   0.629960 0.206460 0.709943 0.159611
C55   C     C_3   0.743839 0.212218 0.807174 0.231446
C56   C     C_3   0.632975 0.289225 0.793849 0.131421
C57   C     C_3   0.562724 0.174280 0.787285 -0.186865
C58   C     C_3   0.451338 0.252136 0.774135 -0.178730
C59   C     C_1   0.627079 0.160281 0.662949 0.026894
C60   C     C_1   0.635606 0.335777 0.840581 0.035436
H18   H     H_    0.506625 0.113444 0.816430 0.160998
H19   H     H_    0.960611 0.239602 0.711282 0.146939
I1    I     I_    0.828479 0.596177 0.324620 -0.197284
I2    I     I_    0.999401 0.746237 0.544865 -0.409434
I3    I     I_    0.185430 0.372592 0.433207 -0.106869
I4    I     I_    0.649207 0.516580 0.178307 -0.198070
N1    N     N_R   0.282440 0.486674 0.277542 0.245144
O21   O     O_R   0.354051 0.539335 0.300662 -0.366160
O22   O     O_R   0.102664 0.490798 0.258785 -0.401701
N2    N     N_R   0.480944 0.231276 0.438403 0.226139
O23   O     O_R   0.649312 0.231112 0.466517 -0.417504
O24   O     O_R   0.331502 0.204280 0.478789 -0.362006
I5    I     I_    0.924717 0.154462 0.895250 -0.414940
N3    N     N_R   0.375696 0.887035 0.187296 0.236145
O25   O     O_R   0.469730 0.895786 0.129799 -0.372798
O26   O     O_R   0.398423 0.938994 0.217132 -0.418907
N4    N     N_R   0.062555 0.733902 0.942287 0.194111
O27   O     O_R   0.244099 0.728630 0.959093 -0.434396
O28   O     O_R   0.933985 0.720493 0.991780 -0.421164

loop_
_geom_bond_atom_site_label_1
_geom_bond_atom_site_label_2
_geom_bond_distance
_ccdc_geom_bond_type
C17   N4    1.424792 S    
C49   C50   1.551600 S    
C27   I2    2.113213 S    
C24   C25   1.426788 A    
C23   C48   1.502986 S    
C40   C46   1.505632 S    
N2    O23   1.300510 A    
C10   C13   1.547324 S    
O11   C46   1.303503 A    
C1    O6    1.301000 A    
O18   C47   1.300881 A    
C54   C57   1.540555 S    
C31   C32   1.391728 A    
N1    O21   1.300521 A    
C5    C9    1.559346 S    
C38   C41   1.427461 A    
C6    C10   1.544082 S    
C5    C12   1.543406 S    
C8    C47   1.449581 S    
C4    C7    1.455335 S    
C19   C20   1.383028 A    
C3    C26   1.505817 S    
C11   N3    1.457102 S    
O5    C3    1.303889 A    
C21   C22   1.435522 A    
C35   C37   1.419093 A    
C32   H12   1.083050 S    
C28   H9    1.082833 S    
N3    O25   1.300342 A    
C57   C58   1.552461 S    
C49   C53   1.552277 S    
C34   C35   1.419176 A    
C17   C18   1.400441 A    
C45   C51   1.451890 S    
N4    O27   1.301009 A    
V3    O20   1.703718 S    
O11   V4    2.011225 S    
O8    V2    2.020570 S    
C39   C44   1.433712 A    
C18   C19   1.379731 A    
N3    O26   1.300407 A    
C55   C57   1.547471 S    
C9    C10   1.547310 S    
O1    V2    1.961013 S    
C44   N2    1.422686 S    
O14   V3    2.006179 S    
O13   C48   1.305550 A    
C50   C54   1.540562 S    
C37   C38   1.424710 A    
O9    C4    1.299857 A    
H5    C29   1.082984 S    
C55   I5    2.135536 S    
C53   C54   1.540351 S    
C18   H6    1.083328 S    
C56   C58   1.540838 S    
C42   N1    1.425742 S    
C2    C52   1.451544 S    
C13   H3    1.110152 S    
C17   C22   1.432428 A    
C6    C14   1.549094 S    
O12   C45   1.299371 A    
O15   C47   1.295093 A    
O4    C2    1.298271 A    
C54   C59   1.482804 S    
C22   C26   1.437492 A    
H2    C14   1.110359 S    
C11   C12   1.530223 S    
V4    O20   2.153320 S    
C7    C15   1.216996 T    
O17   V3    2.150008 S    
C38   C39   1.436753 A    
O2    C1    1.296283 A    
C20   C21   1.417725 A    
O19   C48   1.297790 A    
C31   C36   1.420972 A    
C56   C60   1.483651 S    
C55   C56   1.536964 S    
C33   C34   1.391537 A    
C5    C6    1.549503 S    
N2    O24   1.300191 A    
C6    I1    2.131586 S    
C53   C55   1.547185 S    
O14   C46   1.299619 A    
C33   H13   1.082759 S    
O3    C4    1.298168 A    
C36   C40   1.424449 A    
O16   V4    1.978107 S    
C23   C24   1.421883 A    
O19   V4    2.020572 S    
C53   H19   1.110390 S    
C12   C16   1.480718 S    
O6    V2    2.016277 S    
C34   H14   1.080626 S    
O9    V2    1.963669 S    
C24   C27   1.421143 A    
C25   C26   1.423267 A    
C52   C60   1.215328 T    
O2    V1    2.006231 S    
C43   I3    2.144958 S    
O17   V4    1.702584 S    
C27   C28   1.395101 A    
C51   C59   1.215085 T    
O7    V1    2.149948 S    
C32   C33   1.386053 A    
C29   C30   1.389313 A    
C8    C16   1.213532 T    
O1    C2    1.297819 A    
O15   V3    1.970060 S    
O5    V1    2.008778 S    
O8    C3    1.300483 A    
C30   H10   1.077990 S    
C11   C13   1.538054 S    
C12   C14   1.542992 S    
C9    H4    1.110250 S    
O7    V2    1.706166 S    
O4    V1    1.980864 S    
O12   V3    1.980846 S    
O3    V1    1.970230 S    
C57   H18   1.110145 S    
C42   C43   1.386811 A    
C21   C23   1.419681 A    
C20   H8    1.079441 S    
C35   C36   1.424847 A    
C1    C37   1.492904 S    
C5    H1    1.110655 S    
O13   V3    2.008807 S    
N1    O22   1.299747 A    
C25   C30   1.419197 A    
C9    C11   1.539421 S    
C39   C40   1.441798 A    
C31   H11   1.079792 S    
N4    O28   1.301327 A    
C50   C58   1.551478 S    
C41   C42   1.393658 A    
C28   C29   1.384709 A    
C10   C15   1.485589 S    
C50   H15   1.110209 S    
C43   C44   1.405115 A    
C45   O16   1.297798 A    
C49   H16   1.110109 S    
C13   C14   1.557933 S    
V1    O10   1.703588 S    
H17   C58   1.110040 S    
C41   I4    2.144475 S    
O18   V4    1.963584 S    
C19   H7    1.083186 S    
V2    O10   2.153222 S    
C49   C56   1.541036 S    
