data_mof_unit_796.cif
_audit_creation_date              2012-12-10T17:55:05-0500
_audit_creation_method            fapswitch 2.2
_symmetry_space_group_name_H-M    P1
_symmetry_Int_Tables_number       1
_space_group_crystal_system       triclinic
_cell_length_a                    8.734412
_cell_length_b                    10.831764
_cell_length_c                    9.523527
_cell_angle_alpha                 89.685173
_cell_angle_beta                  97.925655
_cell_angle_gamma                 90.209813
_cell_volume                      892.388279591

loop_
_atom_site_label
_atom_site_type_symbol
_atom_type_description
_atom_site_fract_x
_atom_site_fract_y
_atom_site_fract_z
_atom_type_partial_charge
C1    C     C_R   0.502619 0.262234 0.500827 0.806686
C2    C     C_R   0.497977 0.737779 0.499250 0.823501
C3    C     C_R   0.203747 0.499957 0.463727 0.882261
C4    C     C_R   0.796252 0.499999 0.536274 0.872785
C5    C     C_2   0.037924 0.500043 0.443749 -0.366943
C6    C     C_2   0.962073 0.499862 0.556256 -0.371489
C7    C     C_R   0.437513 0.066429 0.380261 -0.285282
C8    C     C_R   0.564933 0.933424 0.620085 -0.275413
C9    C     C_R   0.433049 0.938342 0.377335 0.157281
C10   C     C_R   0.570221 0.061853 0.623163 0.169729
C11   C     C_R   0.497673 0.871641 0.498183 -0.048780
C12   C     C_R   0.504500 0.128363 0.502107 -0.058591
C13   C     C_R   0.400934 0.425627 0.062294 -0.019458
C14   C     C_R   0.599053 0.574386 0.937704 -0.022988
C15   C     C_R   0.400978 0.425655 0.913505 -0.006085
C16   C     C_R   0.598999 0.574366 0.086492 -0.014426
Cu1   Cu    Cu3+1 0.500000 0.500020 0.640660 0.948952
Cu2   Cu    Cu3+1 0.500000 0.499980 0.359340 0.951289
H1    H     H_    0.385675 0.117486 0.287602 0.155017
H2    H     H_    0.616467 0.881443 0.712102 0.148528
H3    H     H_    0.321762 0.365972 0.847782 0.121579
H4    H     H_    0.678185 0.634075 0.152212 0.119720
N1    N     N_R   0.500040 0.500030 0.852080 -0.158894
N2    N     N_R   0.499960 0.499970 0.147920 -0.158169
O1    O     O_R   0.499990 0.319660 0.618740 -0.556188
O2    O     O_R   0.500010 0.680340 0.381260 -0.554450
O3    O     O_R   0.499990 0.319630 0.381170 -0.596394
O4    O     O_R   0.500010 0.680370 0.618830 -0.598822
O5    O     O_R   0.274840 0.500010 0.591370 -0.582793
O6    O     O_R   0.725160 0.499990 0.408630 -0.582344
O7    O     O_R   0.274830 0.499980 0.353800 -0.587788
O8    O     O_R   0.725170 0.500020 0.646200 -0.592201
H5    H     H_    0.978010 0.500312 0.335805 0.172925
H6    H     H_    0.021985 0.499587 0.664201 0.172657
N3    N     N_3   0.359090 0.876771 0.253161 -0.570117
H7    H     H_    0.414841 0.903536 0.167445 0.216599
H8    H     H_    0.244636 0.907184 0.233103 0.208482
N4    N     N_3   0.645089 0.124520 0.746888 -0.563904
H9    H     H_    0.746567 0.164288 0.720263 0.208864
H10   H     H_    0.678598 0.061787 0.829158 0.204520
H11   H     H_    0.321709 0.365901 0.108660 0.114813
H12   H     H_    0.678268 0.634120 0.891337 0.115331

loop_
_geom_bond_atom_site_label_1
_geom_bond_atom_site_label_2
_ccdc_geom_bond_type
C14   N1    A    
C3    O7    A    
Cu2   O6    S    
Cu1   O5    S    
N3    H7    S    
Cu2   O2    S    
C10   N4    S    
C14   H12   S    
Cu1   O1    S    
C15   N1    A    
Cu1   Cu2   S    
C16   N2    A    
Cu1   N1    S    
C1    O1    A    
C9    C11   A    
C4    O8    A    
C1    C12   S    
C10   C12   A    
C8    H2    S    
C8    C11   A    
Cu2   N2    S    
C2    C11   S    
C13   H11   S    
N4    H10   S    
C7    H1    S    
C13   C15   A    
C5    C6    D    
C14   C16   A    
C7    C12   A    
C1    O3    A    
C9    N3    S    
C7    C9    A    
C15   H3    S    
N4    H9    S    
C2    O2    A    
C4    C6    S    
C3    O5    A    
Cu1   O8    S    
C2    O4    A    
Cu2   O7    S    
N3    H8    S    
Cu1   O4    S    
C8    C10   A    
C4    O6    A    
Cu2   O3    S    
C6    H6    S    
C13   N2    A    
C16   H4    S    
C3    C5    S    
C5    H5    S    
