data_mof_unit_888.cif
_audit_creation_date              2012-12-11T15:57:01-0500
_audit_creation_method            fapswitch 2.2
_symmetry_space_group_name_H-M    P1
_symmetry_Int_Tables_number       1
_space_group_crystal_system       triclinic
_cell_length_a                    17.439117
_cell_length_b                    24.470324
_cell_length_c                    14.964075
_cell_angle_alpha                 90.035685
_cell_angle_beta                  126.205448
_cell_angle_gamma                 90.038023
_cell_volume                      5152.70877712

loop_
_atom_site_label
_atom_site_type_symbol
_atom_type_description
_atom_site_fract_x
_atom_site_fract_y
_atom_site_fract_z
_atom_type_partial_charge
C1    C     C_R   0.308831 0.124209 0.905459 -0.144421
C2    C     C_R   0.555348 0.152349 0.908721 -0.153374
C3    C     C_R   0.813254 0.360651 0.997624 0.003045
C4    C     C_R   0.564939 0.000061 0.367946 -0.010786
C5    C     C_R   0.064938 0.500062 0.367946 -0.010842
C6    C     C_R   0.192152 0.999477 0.635462 0.039638
C7    C     C_R   0.692001 0.499497 0.635580 0.039723
C8    C     C_R   0.521120 0.045845 0.753673 -0.137168
C9    C     C_R   0.521113 0.954192 0.753640 -0.136944
C10   C     C_R   0.021118 0.545847 0.753672 -0.137162
C11   C     C_R   0.021113 0.454194 0.753638 -0.136955
C12   C     C_R   0.769437 0.954289 0.247356 -0.142287
C13   C     C_R   0.055562 0.347714 0.908559 -0.153894
C14   C     C_R   0.769229 0.046245 0.248158 -0.128882
C15   C     C_R   0.269408 0.454282 0.247245 -0.141916
C16   C     C_R   0.269221 0.546228 0.248037 -0.129168
C17   C     C_R   0.685312 0.270503 0.178261 0.156162
C18   C     C_R   0.780063 0.263071 0.271736 -0.172935
C19   C     C_R   0.800307 0.250186 0.374666 -0.137376
C20   C     C_R   0.726703 0.244581 0.385904 -0.096168
C21   C     C_R   0.632615 0.252109 0.294330 -0.111224
C22   C     C_R   0.611920 0.265183 0.191302 -0.169600
C23   C     C_R   0.684679 0.729642 0.177389 0.155468
C24   C     C_R   0.055351 0.652350 0.908724 -0.153378
C25   C     C_R   0.779342 0.737045 0.271201 -0.172212
C26   C     C_R   0.799254 0.749918 0.374011 -0.137180
C27   C     C_R   0.725401 0.755540 0.384796 -0.097490
C28   C     C_R   0.631394 0.748039 0.292885 -0.111010
C29   C     C_R   0.611027 0.734978 0.189970 -0.168885
C30   C     C_R   0.185365 0.770491 0.178306 0.156147
C31   C     C_R   0.280123 0.763048 0.271757 -0.172911
C32   C     C_R   0.300393 0.750154 0.374696 -0.137323
C33   C     C_R   0.226807 0.744553 0.385967 -0.096205
C34   C     C_R   0.132713 0.752093 0.294417 -0.111214
C35   C     C_R   0.551641 0.000033 0.727902 -0.012332
C36   C     C_R   0.111991 0.765176 0.191380 -0.169626
C37   C     C_R   0.184504 0.229605 0.177233 0.155462
C38   C     C_R   0.279142 0.236968 0.271119 -0.172237
C39   C     C_R   0.298972 0.249810 0.373900 -0.137135
C40   C     C_R   0.225060 0.255445 0.384578 -0.097531
C41   C     C_R   0.131076 0.247989 0.292590 -0.111000
C42   C     C_R   0.110792 0.234958 0.189705 -0.168811
C43   C     C_R   0.051640 0.500036 0.727901 -0.012324
C44   C     C_R   0.824198 0.000490 0.271743 0.024927
C45   C     C_R   0.324162 0.500468 0.271487 0.024741
C46   C     C_R   0.618869 0.183167 0.000812 -0.004291
C47   C     C_R   0.619224 0.816997 0.000605 -0.004517
C48   C     C_R   0.118874 0.683167 0.000815 -0.004291
C49   C     C_R   0.308777 0.875759 0.905522 -0.144086
C50   C     C_R   0.119230 0.317002 0.000593 -0.004494
C51   C     C_3   0.034889 0.949113 0.483926 -0.166316
C52   C     C_3   0.022247 0.034965 0.516897 -0.154369
C53   C     C_3   0.534243 0.449346 0.485091 -0.166217
C54   C     C_3   0.522361 0.535683 0.516033 -0.155032
C55   C     C_3   0.956655 0.984979 0.470742 -0.136662
C56   C     C_3   0.456294 0.485899 0.470923 -0.136083
C57   C     C_3   0.925666 0.000745 0.354596 0.187410
C58   C     C_3   0.425603 0.500706 0.354481 0.187356
C59   C     C_3   0.002955 0.964809 0.366528 -0.158076
C60   C     C_R   0.808837 0.624219 0.905462 -0.144339
C61   C     C_3   0.990891 0.050905 0.400236 -0.165527
C62   C     C_3   0.502621 0.464081 0.367419 -0.158576
C63   C     C_3   0.491274 0.550667 0.399045 -0.165500
C64   C     C_3   0.070809 0.015097 0.414667 -0.147727
C65   C     C_3   0.570929 0.514165 0.414475 -0.147233
C66   C     C_R   0.401614 0.875548 0.091676 -0.134960
C67   C     C_R   0.401658 0.124555 0.091659 -0.134987
C68   C     C_R   0.901617 0.375544 0.091677 -0.134952
C69   C     C_R   0.901664 0.624562 0.091661 -0.135009
C70   C     C_3   0.100149 0.999212 0.529892 0.187717
C71   C     C_R   0.808783 0.375751 0.905523 -0.144024
C72   C     C_3   0.599982 0.499241 0.530000 0.187720
C73   C     C_3   0.218589 0.831676 0.065560 -0.459554
C74   C     C_3   0.218150 0.168454 0.064750 -0.459742
C75   C     C_3   0.718567 0.331678 0.065529 -0.459543
C76   C     C_3   0.718235 0.668468 0.064856 -0.459718
C77   C     C_3   0.660051 0.283047 0.063856 -0.105988
C78   C     C_3   0.659796 0.717114 0.063109 -0.105720
C79   C     C_3   0.160078 0.783044 0.063892 -0.105975
C80   C     C_3   0.159708 0.217103 0.062988 -0.105699
C81   C     C_3   0.822575 0.265887 0.049828 -0.403126
C82   C     C_R   0.649737 0.151595 0.092542 -0.144876
C83   C     C_3   0.823014 0.734239 0.050318 -0.402976
C84   C     C_3   0.322566 0.765889 0.049796 -0.403125
C85   C     C_3   0.323044 0.234222 0.050416 -0.402922
C86   C     C_3   0.170288 0.801725 0.877639 -0.412885
C87   C     C_3   0.170952 0.198542 0.877443 -0.412858
C88   C     C_3   0.670311 0.301708 0.877635 -0.412922
C89   C     C_3   0.670885 0.698504 0.877457 -0.412887
C90   C     C_3   0.256266 0.816452 0.997368 0.393061
C91   C     C_3   0.256475 0.183703 0.997267 0.393271
C92   C     C_3   0.756271 0.316445 0.997368 0.393067
C93   C     C_R   0.649927 0.848532 0.092439 -0.144229
C94   C     C_3   0.756474 0.683703 0.997272 0.393287
C95   C     C_3   0.665177 0.233343 0.000653 0.340603
C96   C     C_3   0.665477 0.766833 0.000430 0.340787
C97   C     C_3   0.165180 0.733346 0.000657 0.340629
C98   C     C_3   0.165482 0.266838 0.000416 0.340788
C99   C     C_3   0.769074 0.217275 0.050601 -0.397436
C100  C     C_3   0.769563 0.782876 0.050975 -0.398375
C101  C     C_3   0.269068 0.717275 0.050570 -0.397492
C102  C     C_3   0.269597 0.282861 0.051075 -0.398405
C103  C     C_3   0.617920 0.252460 0.879276 -0.441417
C104  C     C_R   0.149742 0.651594 0.092544 -0.144910
C105  C     C_3   0.618542 0.747754 0.879042 -0.440959
C106  C     C_3   0.117901 0.752474 0.879281 -0.441426
C107  C     C_3   0.118616 0.247795 0.879024 -0.440952
C108  C     C_3   0.618284 0.051330 0.642506 -0.404443
C109  C     C_3   0.618212 0.948815 0.642348 -0.404398
C110  C     C_3   0.118252 0.551345 0.642482 -0.404431
C111  C     C_3   0.118243 0.448830 0.642373 -0.404388
C112  C     C_R   0.548584 0.045526 0.304672 -0.146788
C113  C     C_R   0.548637 0.954553 0.304673 -0.147742
C114  C     C_R   0.048585 0.545526 0.304671 -0.146816
C115  C     C_R   0.149921 0.348530 0.092432 -0.144250
C116  C     C_R   0.048634 0.454554 0.304672 -0.147740
C117  C     C_3   0.621383 0.051436 0.541865 -0.405762
C118  C     C_3   0.621180 0.948687 0.541618 -0.405943
C119  C     C_3   0.121329 0.551457 0.541825 -0.405796
C120  C     C_3   0.121233 0.448708 0.541657 -0.405933
C121  C     C_3   0.461787 0.999990 0.528749 -0.391379
C122  C     C_3   0.961786 0.499973 0.528749 -0.391437
C123  C     C_3   0.563720 0.000041 0.638565 0.402641
C124  C     C_3   0.063720 0.500045 0.638564 0.402656
C125  C     C_3   0.569557 0.000062 0.469075 0.405990
C126  C     C_R   0.555556 0.847709 0.908566 -0.153887
C127  C     C_3   0.069556 0.500065 0.469074 0.406015
C128  C     C_3   0.465315 0.000051 0.429687 -0.396624
C129  C     C_3   0.965314 0.500018 0.429687 -0.396602
C130  C     C_R   0.240516 0.953973 0.695943 -0.145294
C131  C     C_R   0.240670 0.045416 0.694962 -0.157394
C132  C     C_R   0.740424 0.453983 0.696001 -0.145621
C133  C     C_R   0.740603 0.545427 0.695034 -0.157162
C134  C     C_R   0.313364 0.139452 0.997568 0.002689
C135  C     C_R   0.313247 0.860659 0.997623 0.003056
C136  C     C_R   0.813368 0.639458 0.997572 0.002699
H1    H     H_    0.251930 0.130325 0.819165 0.092457
H2    H     H_    0.971146 0.092511 0.363739 0.104291
H3    H     H_    0.792444 0.088305 0.264748 0.093906
H4    H     H_    0.293360 0.412373 0.263589 0.100062
H5    H     H_    0.292483 0.588281 0.264663 0.094138
H6    H     H_    0.695509 0.163481 0.178445 0.117441
H7    H     H_    0.695772 0.836726 0.178332 0.117513
H8    H     H_    0.195522 0.663475 0.178450 0.117469
H9    H     H_    0.195751 0.336713 0.178322 0.117480
H10   H     H_    0.510016 0.834727 0.823029 0.087804
H11   H     H_    0.509687 0.165278 0.823226 0.087652
H12   H     H_    0.010028 0.334734 0.823020 0.087806
H13   H     H_    0.491653 0.435060 0.303764 0.109987
H14   H     H_    0.009689 0.665280 0.823229 0.087660
H15   H     H_    0.908404 0.972704 0.492776 0.109661
H16   H     H_    0.407819 0.474391 0.493068 0.109705
H17   H     H_    0.838594 0.267172 0.265769 0.106031
H18   H     H_    0.873235 0.244436 0.445817 0.103096
H19   H     H_    0.742594 0.234428 0.465621 0.092266
H20   H     H_    0.575557 0.247651 0.303032 0.093731
H21   H     H_    0.538309 0.270269 0.121280 0.096954
H22   H     H_    0.838060 0.732931 0.265587 0.106219
H23   H     H_    0.872119 0.755647 0.445421 0.103000
H24   H     H_    0.471853 0.592061 0.361524 0.104486
H25   H     H_    0.741038 0.765685 0.464423 0.092444
H26   H     H_    0.574145 0.752506 0.301241 0.093578
H27   H     H_    0.537477 0.729915 0.119685 0.097150
H28   H     H_    0.338641 0.767147 0.265765 0.106035
H29   H     H_    0.373327 0.744395 0.445827 0.103093
H30   H     H_    0.242719 0.734392 0.465691 0.092258
H31   H     H_    0.075669 0.747639 0.303145 0.093732
H32   H     H_    0.038376 0.770271 0.121378 0.096969
H33   H     H_    0.337903 0.232845 0.265587 0.106213
H34   H     H_    0.371819 0.255505 0.445371 0.102994
H35   H     H_    0.120782 0.027290 0.395245 0.110587
H36   H     H_    0.240633 0.265566 0.464183 0.092450
H37   H     H_    0.073783 0.252468 0.300865 0.093578
H38   H     H_    0.037258 0.229927 0.119358 0.097138
H39   H     H_    0.621101 0.525597 0.394909 0.110521
H40   H     H_    0.278759 0.843276 0.151133 0.153106
H41   H     H_    0.277999 0.156794 0.150362 0.153051
H42   H     H_    0.778725 0.343285 0.151103 0.153103
H43   H     H_    0.778127 0.656831 0.150462 0.153044
H44   H     H_    0.172471 0.868484 0.028965 0.148284
H45   H     H_    0.251851 0.869474 0.819301 0.092586
H46   H     H_    0.171830 0.131676 0.027648 0.148197
H47   H     H_    0.672445 0.368483 0.028910 0.148295
H48   H     H_    0.671935 0.631679 0.027823 0.148210
H49   H     H_    0.084505 0.796655 0.011746 0.098179
H50   H     H_    0.084057 0.203528 0.010360 0.098206
H51   H     H_    0.584478 0.296655 0.011688 0.098188
H52   H     H_    0.584153 0.703523 0.010558 0.098216
H53   H     H_    0.884492 0.274264 0.136602 0.142828
H54   H     H_    0.884652 0.725833 0.137168 0.142852
H55   H     H_    0.384497 0.774258 0.136566 0.142839
H56   H     H_    0.751942 0.630345 0.819173 0.092406
H57   H     H_    0.384638 0.225792 0.137275 0.142825
H58   H     H_    0.806654 0.201550 0.136431 0.147541
H59   H     H_    0.806937 0.798603 0.136843 0.148103
H60   H     H_    0.306662 0.701540 0.136394 0.147526
H61   H     H_    0.306928 0.298558 0.136959 0.148054
H62   H     H_    0.194392 0.790521 0.825818 0.151600
H63   H     H_    0.195572 0.209764 0.826149 0.151982
H64   H     H_    0.694437 0.290496 0.825838 0.151601
H65   H     H_    0.695434 0.709717 0.826090 0.151955
H66   H     H_    0.429927 0.867652 0.176979 0.086631
H67   H     H_    0.751863 0.369456 0.819305 0.092525
H68   H     H_    0.429951 0.132488 0.176975 0.086560
H69   H     H_    0.929930 0.367650 0.176980 0.086631
H70   H     H_    0.929962 0.632499 0.176977 0.086568
H71   H     H_    0.121033 0.837136 0.838250 0.153817
H72   H     H_    0.121501 0.163169 0.837511 0.152605
H73   H     H_    0.621053 0.337116 0.838220 0.153800
H74   H     H_    0.621459 0.663116 0.837599 0.152639
H75   H     H_    0.041961 0.763232 0.838209 0.148134
H76   H     H_    0.042563 0.237039 0.837456 0.147979
H77   H     H_    0.541977 0.263217 0.838181 0.148134
H78   H     H_    0.053620 0.907318 0.519537 0.101841
H79   H     H_    0.542506 0.736984 0.837551 0.147990
H80   H     H_    0.620309 0.219342 0.829816 0.161135
H81   H     H_    0.621280 0.780902 0.829951 0.161141
H82   H     H_    0.120274 0.719362 0.829800 0.161136
H83   H     H_    0.121424 0.280959 0.830010 0.161156
H84   H     H_    0.851274 0.255249 0.002395 0.156044
H85   H     H_    0.852129 0.744868 0.003329 0.155970
H86   H     H_    0.351247 0.755256 0.002341 0.156049
H87   H     H_    0.352219 0.244864 0.003496 0.155968
H88   H     H_    0.770181 0.183537 0.001291 0.161417
H89   H     H_    0.031558 0.063517 0.580373 0.106000
H90   H     H_    0.771073 0.816607 0.002004 0.161006
H91   H     H_    0.270156 0.683543 0.001235 0.161406
H92   H     H_    0.271180 0.316609 0.002185 0.161012
H93   H     H_    0.583073 0.089623 0.640190 0.144129
H94   H     H_    0.583016 0.910481 0.640040 0.144142
H95   H     H_    0.083029 0.589632 0.640167 0.144127
H96   H     H_    0.083060 0.410490 0.640064 0.144147
H97   H     H_    0.691783 0.051636 0.720528 0.152791
H98   H     H_    0.691744 0.948619 0.720312 0.152732
H99   H     H_    0.191756 0.551660 0.720493 0.152798
H100  H     H_    0.552566 0.407755 0.521692 0.101889
H101  H     H_    0.191770 0.448644 0.720346 0.152731
H102  H     H_    0.696423 0.052143 0.570087 0.152025
H103  H     H_    0.696185 0.947951 0.569729 0.151422
H104  H     H_    0.196362 0.552197 0.570029 0.151987
H105  H     H_    0.196244 0.448005 0.569787 0.151423
H106  H     H_    0.586676 0.089540 0.494371 0.144508
H107  H     H_    0.586234 0.910585 0.493966 0.144674
H108  H     H_    0.086567 0.589548 0.494306 0.144532
H109  H     H_    0.086342 0.410592 0.494031 0.144665
H110  H     H_    0.421704 0.036601 0.524239 0.155836
H111  H     H_    0.531864 0.564832 0.578796 0.105865
H112  H     H_    0.421716 0.963291 0.524071 0.156637
H113  H     H_    0.921690 0.536583 0.524215 0.155858
H114  H     H_    0.921729 0.463273 0.524094 0.156605
H115  H     H_    0.561647 0.087760 0.330665 0.086113
H116  H     H_    0.561788 0.912351 0.330661 0.086133
H117  H     H_    0.061652 0.587761 0.330664 0.086124
H118  H     H_    0.061780 0.412351 0.330661 0.086139
H119  H     H_    0.427296 0.036757 0.377879 0.155619
H120  H     H_    0.427106 0.963383 0.377560 0.155876
H121  H     H_    0.927250 0.536704 0.377830 0.155629
H122  H     H_    0.992173 0.936385 0.302156 0.110045
H123  H     H_    0.927151 0.463330 0.377608 0.155865
H124  H     H_    0.226910 0.912207 0.666667 0.085378
H125  H     H_    0.226237 0.087024 0.664863 0.091885
H126  H     H_    0.726772 0.412223 0.666688 0.085536
H127  H     H_    0.726178 0.587034 0.664928 0.091748
H128  H     H_    0.526958 0.088199 0.738645 0.089417
H129  H     H_    0.526948 0.911841 0.738565 0.089496
H130  H     H_    0.026955 0.588201 0.738648 0.089426
H131  H     H_    0.026947 0.411844 0.738557 0.089497
H132  H     H_    0.793393 0.912380 0.263681 0.100141
N1    N     N_R   0.392450 0.103580 0.942190 -0.035870
N2    N     N_R   0.525490 0.971610 0.207550 -0.032244
N3    N     N_R   0.025490 0.528390 0.207550 -0.032400
N4    N     N_R   0.025490 0.471610 0.207550 -0.032243
N5    N     N_R   0.317450 0.971190 0.792000 -0.035293
N6    N     N_R   0.317450 0.028810 0.792000 -0.034773
N7    N     N_R   0.817450 0.471190 0.792000 -0.035264
N8    N     N_R   0.817450 0.528810 0.792000 -0.034766
N9    N     N_R   0.473900 0.028390 0.792280 -0.036367
N10   N     N_R   0.473900 0.971610 0.792280 -0.036485
N11   N     N_R   0.973900 0.528390 0.792280 -0.036382
N12   N     N_R   0.392450 0.896420 0.942190 -0.036287
N13   N     N_R   0.973900 0.471610 0.792280 -0.036496
N14   N     N_R   0.682310 0.971180 0.208170 -0.039389
N15   N     N_R   0.682310 0.028820 0.208170 -0.039685
N16   N     N_R   0.182310 0.471180 0.208170 -0.039431
N17   N     N_R   0.182310 0.528820 0.208170 -0.039705
N18   N     N_R   0.606470 0.103570 0.057210 -0.035468
N19   N     N_R   0.606470 0.896430 0.057210 -0.035050
N20   N     N_R   0.106470 0.603570 0.057210 -0.035451
N21   N     N_R   0.106470 0.396430 0.057210 -0.035051
N22   N     N_R   0.549740 0.896000 0.943240 -0.032478
N23   N     N_R   0.892450 0.603580 0.942190 -0.035879
N24   N     N_R   0.549740 0.104000 0.943240 -0.032436
N25   N     N_R   0.049740 0.396000 0.943240 -0.032470
N26   N     N_R   0.049740 0.604000 0.943240 -0.032434
N27   N     N_R   0.892450 0.396420 0.942190 -0.036282
N28   N     N_R   0.450490 0.896000 0.057360 -0.034239
N29   N     N_R   0.450490 0.104000 0.057360 -0.034258
N30   N     N_R   0.950490 0.396000 0.057360 -0.034238
N31   N     N_R   0.950490 0.604000 0.057360 -0.034257
N32   N     N_R   0.525490 0.028390 0.207550 -0.032407
Ni1   Ni    Ni4+2 0.433780 0.065390 0.868430 0.205065
Ni2   Ni    Ni4+2 0.433780 0.934610 0.868430 0.205308
Ni3   Ni    Ni4+2 0.933780 0.565390 0.868430 0.205091
Ni4   Ni    Ni4+2 0.933780 0.434610 0.868430 0.205327
Ni5   Ni    Ni4+2 0.565800 0.934190 0.131570 0.214208
Ni6   Ni    Ni4+2 0.565800 0.065810 0.131570 0.214713
Ni7   Ni    Ni4+2 0.065800 0.434190 0.131570 0.214217
Ni8   Ni    Ni4+2 0.065800 0.565810 0.131570 0.214695

loop_
_geom_bond_atom_site_label_1
_geom_bond_atom_site_label_2
_ccdc_geom_bond_type
C118  H103  S    
C63   C65   S    
C105  H79   S    
C87   C91   S    
C29   H27   S    
C33   H30   S    
C114  N3    A    
C116  H118  S    
C69   H70   S    
C111  H101  S    
C113  H116  S    
C4    C125  S    
C47   C126  A    
N16   N17   A    
C7    C133  A    
C52   C61   S    
N16   Ni7   S    
C95   C99   S    
C119  H104  S    
C57   C59   S    
N2    Ni5   S    
C54   C63   S    
N3    N4    A    
C36   H32   S    
C128  H119  S    
C89   C94   S    
C76   C94   S    
C19   C20   A    
C78   C96   S    
N20   N26   A    
C8    H128  S    
C133  N8    A    
C21   C22   A    
C65   H39   S    
C109  C118  S    
C4    C113  A    
C121  C128  S    
C86   C90   S    
N14   Ni5   S    
C107  H76   S    
C81   C99   S    
C49   N12   A    
C98   C102  S    
C81   H84   S    
C9    H129  S    
N21   N25   A    
C3    C92   S    
C8    C35   A    
C16   C45   A    
C37   C38   A    
C109  H94   S    
C130  H124  S    
C66   N28   A    
C44   C57   S    
N14   N15   A    
C71   N27   A    
C54   H111  S    
N25   Ni4   S    
C55   H15   S    
C81   H53   S    
N26   Ni3   S    
C86   H62   S    
C107  H83   S    
C121  H110  S    
C105  H81   S    
C83   C100  S    
C55   C57   S    
C9    N10   A    
C34   H31   S    
C39   C40   A    
C110  H99   S    
C38   H33   S    
C111  C124  S    
C79   C97   S    
C86   H71   S    
C24   N26   A    
C57   C61   S    
C22   H21   S    
C14   N15   A    
N21   Ni7   S    
C30   C36   A    
C101  H91   S    
C64   H35   S    
C2    H11   S    
C12   C44   A    
C51   C55   S    
C120  H105  S    
N11   N13   A    
C121  C123  S    
C83   H85   S    
C60   N23   A    
C87   C107  S    
C20   C21   A    
C80   H50   S    
C16   N17   A    
C103  H80   S    
N17   Ni8   S    
C83   H54   S    
C6    C130  A    
C76   H43   S    
C127  C129  S    
C8    N9    A    
C120  C127  S    
C23   C29   A    
C76   C78   S    
C73   C90   S    
C50   C115  A    
C129  H121  S    
C38   C39   A    
C61   H2    S    
C1    N1    A    
C37   C42   A    
C2    N24   A    
N20   Ni8   S    
C46   C82   A    
C81   C92   S    
C121  H112  S    
C59   H122  S    
C10   N11   A    
C60   C136  A    
C101  H60   S    
N30   Ni7   S    
C49   C135  A    
N9    N10   A    
C15   N16   A    
C86   C106  S    
C84   C90   S    
C95   C103  S    
N5    N6    A    
C37   C80   S    
C50   C98   S    
C24   C48   A    
C67   C134  A    
N5    Ni2   S    
C42   H38   S    
C102  H61   S    
C7    C72   S    
N7    Ni4   S    
C109  C123  S    
C25   C26   A    
C12   H132  S    
C122  H114  S    
C31   C32   A    
C60   H56   S    
C102  H92   S    
C17   C18   A    
C73   C79   S    
N24   Ni1   S    
C100  H90   S    
C75   C77   S    
C53   H100  S    
C24   H14   S    
C104  N20   A    
C49   H45   S    
C30   C79   S    
C51   H78   S    
C122  C124  S    
C1    H1    S    
C112  H115  S    
C132  H126  S    
C53   C56   S    
C133  H127  S    
C41   H37   S    
C31   H28   S    
C10   H130  S    
C108  C117  S    
C129  H123  S    
C110  C119  S    
C52   C55   S    
C74   H46   S    
C65   C72   S    
C13   N25   A    
N18   N24   A    
C35   C123  S    
C16   H5    S    
C84   H86   S    
C27   H25   S    
N1    Ni1   S    
C90   C135  S    
C91   C134  S    
C106  H75   S    
C96   C100  S    
N12   N28   A    
C56   C58   S    
C34   C36   A    
C87   H72   S    
N8    Ni3   S    
C110  H95   S    
C13   C50   A    
C66   H66   S    
C78   H52   S    
C89   C105  S    
C25   H22   S    
C117  C125  S    
C85   C102  S    
C131  H125  S    
C119  C127  S    
C58   C62   S    
C96   C105  S    
C20   H19   S    
C41   C42   A    
C3    C68   A    
C87   H63   S    
C82   H6    S    
N23   Ni3   S    
C48   C97   S    
C26   C27   A    
C112  N32   A    
C28   C29   A    
C30   C31   A    
N28   Ni5   S    
C84   H55   S    
C18   C19   A    
C110  C124  S    
C126  N22   A    
C73   H44   S    
C47   C96   S    
C118  C125  S    
C56   H16   S    
C119  H108  S    
C122  C129  S    
N15   Ni6   S    
C117  H106  S    
C74   C80   S    
C32   H29   S    
C67   N29   A    
N9    Ni1   S    
C126  H10   S    
C45   C58   S    
N11   Ni3   S    
C131  N6    A    
C93   N19   A    
C83   C94   S    
C98   C107  S    
C74   C91   S    
C61   C64   S    
C3    C71   A    
C5    C127  S    
C17   C77   S    
N19   N22   A    
C26   H23   S    
C85   H87   S    
N13   Ni4   S    
C97   C106  S    
C106  H82   S    
C117  H102  S    
C69   C136  A    
C88   H73   S    
C11   N13   A    
C108  C123  S    
N6    Ni1   S    
C40   H36   S    
C14   C44   A    
C15   H4    S    
C100  H59   S    
N32   Ni6   S    
C6    C70   S    
C114  H117  S    
C80   C98   S    
C6    C131  A    
C115  H9    S    
C17   C22   A    
N12   Ni2   S    
C32   C33   A    
C88   H64   S    
C73   H40   S    
C132  N7    A    
C74   H41   S    
C68   N30   A    
C23   C78   S    
C82   N18   A    
C66   C135  A    
C69   N31   A    
C9    C35   A    
C19   H18   S    
C11   H131  S    
C116  N4    A    
C53   C72   S    
C89   H65   S    
C62   H13   S    
C5    C114  A    
N4    Ni7   S    
C75   H47   S    
N1    N29   A    
C85   C91   S    
C28   H26   S    
C2    C46   A    
C71   H67   S    
C99   H58   S    
C59   C64   S    
C39   H34   S    
N31   Ni8   S    
C48   C104  A    
C75   H42   S    
C67   H68   S    
C128  H120  S    
C46   C95   S    
C88   C92   S    
C115  N21   A    
C125  C128  S    
C94   C136  S    
C104  H8    S    
C11   C43   A    
N22   Ni2   S    
C51   C70   S    
C64   C70   S    
N23   N31   A    
C103  H77   S    
C93   H7    S    
C109  H98   S    
C4    C112  A    
C84   C101  S    
C63   H24   S    
N19   Ni5   S    
N27   N30   A    
C108  H93   S    
C47   C93   A    
C54   C56   S    
C113  N2    A    
C99   H88   S    
C77   C95   S    
C111  C120  S    
C130  N5    A    
C53   C62   S    
C33   C34   A    
C7    C132  A    
N3    Ni8   S    
C18   H17   S    
C75   C92   S    
C40   C41   A    
N10   Ni2   S    
N7    N8    A    
C5    C116  A    
C77   H51   S    
C51   C59   S    
C120  H109  S    
C15   C45   A    
C1    C134  A    
N29   Ni6   S    
C68   H69   S    
C88   C103  S    
C118  H107  S    
N2    N32   A    
C58   C63   S    
C108  H97   S    
C79   H49   S    
C62   C65   S    
C10   C43   A    
C89   H74   S    
C111  H96   S    
C122  H113  S    
C85   H57   S    
C21   H20   S    
C23   C25   A    
N18   Ni6   S    
C52   C70   S    
C52   H89   S    
C54   C72   S    
C14   H3    S    
C27   C28   A    
C13   H12   S    
C76   H48   S    
C43   C124  S    
C97   C101  S    
C12   N14   A    
N27   Ni4   S    
