data_mof_unit_2790.cif
_audit_creation_date              2012-12-10T18:44:20-0500
_audit_creation_method            fapswitch 2.2
_symmetry_space_group_name_H-M    P1
_symmetry_Int_Tables_number       1
_space_group_crystal_system       triclinic
_cell_length_a                    12.835362
_cell_length_b                    10.635691
_cell_length_c                    9.853847
_cell_angle_alpha                 90.074409
_cell_angle_beta                  97.498052
_cell_angle_gamma                 90.35285
_cell_volume                      1333.64716354

loop_
_atom_site_label
_atom_site_type_symbol
_atom_type_description
_atom_site_fract_x
_atom_site_fract_y
_atom_site_fract_z
_atom_type_partial_charge
C1    C     C_R   0.502567 0.260233 0.500271 0.918156
C2    C     C_R   0.701612 0.502531 0.527181 0.950503
C3    C     C_R   0.813504 0.498420 0.544514 -0.113895
C4    C     C_R   0.186495 0.501581 0.455486 -0.113895
C5    C     C_R   0.031629 0.615569 0.368998 -0.107786
C6    C     C_R   0.968372 0.384436 0.631005 -0.107789
C7    C     C_R   0.137037 0.592449 0.368489 -0.256923
C8    C     C_R   0.862963 0.407555 0.631514 -0.256927
C9    C     C_R   0.130976 0.426839 0.538451 0.325797
C10   C     C_R   0.869024 0.573162 0.461549 0.325797
C11   C     C_R   0.025015 0.451887 0.542476 0.046139
C12   C     C_R   0.497432 0.739767 0.499729 0.918156
C13   C     C_R   0.974985 0.548115 0.457525 0.046140
C14   C     C_R   0.575210 0.062560 0.431931 0.154642
C15   C     C_R   0.424790 0.937440 0.568069 0.154642
C16   C     C_R   0.570917 0.933503 0.431460 -0.204527
C17   C     C_R   0.429083 0.066497 0.568540 -0.204528
C18   C     C_R   0.496773 0.872082 0.499654 -0.119906
C19   C     C_R   0.503227 0.127918 0.500346 -0.119905
C20   C     C_R   0.559425 0.584980 0.082059 -0.026249
C21   C     C_R   0.440575 0.415020 0.917941 -0.026249
C22   C     C_R   0.559421 0.584920 0.938264 -0.048011
C23   C     C_R   0.440579 0.415080 0.061736 -0.048011
C24   C     C_R   0.298388 0.497469 0.472819 0.950503
Cl1   Cl    Cl    0.805196 0.698703 0.365671 -0.660339
Cl2   Cl    Cl    0.194803 0.301300 0.634330 -0.660339
H1    H     H_    0.818765 0.350311 0.695170 0.184308
H2    H     H_    0.393020 0.347168 0.107997 0.148287
H3    H     H_    0.181236 0.649697 0.304835 0.184306
H4    H     H_    0.996196 0.688039 0.301569 0.215869
H5    H     H_    0.003806 0.311970 0.698437 0.215869
H6    H     H_    0.626589 0.880944 0.380397 0.216126
H7    H     H_    0.373411 0.119056 0.619603 0.216125
H8    H     H_    0.606894 0.653036 0.144539 0.177801
H9    H     H_    0.393106 0.346964 0.855460 0.177801
H10   H     H_    0.606980 0.652831 0.892003 0.148287
I1    I     I_    0.696226 0.150470 0.336812 -0.279915
I2    I     I_    0.303774 0.849530 0.663188 -0.279917
N1    N     N_R   0.499970 0.499970 0.857200 -0.092339
N2    N     N_R   0.500030 0.500030 0.142800 -0.092339
O1    O     O_R   0.499990 0.316750 0.614620 -0.618909
O2    O     O_R   0.500010 0.683250 0.385380 -0.618909
O3    O     O_R   0.499990 0.316780 0.385290 -0.606016
O4    O     O_R   0.500010 0.683220 0.614710 -0.606015
O5    O     O_R   0.346360 0.499970 0.595710 -0.570941
O6    O     O_R   0.653640 0.500030 0.404290 -0.570941
O7    O     O_R   0.346360 0.499990 0.366380 -0.633414
O8    O     O_R   0.653640 0.500010 0.633620 -0.633415
Zn1   Zn    Zn3+2 0.500000 0.499980 0.653120 1.001549
Zn2   Zn    Zn3+2 0.500000 0.500020 0.346880 1.001549

loop_
_geom_bond_atom_site_label_1
_geom_bond_atom_site_label_2
_ccdc_geom_bond_type
O4    Zn1   S    
C15   C18   A    
C6    C8    A    
N1    Zn1   S    
C15   I2    S    
C7    H3    S    
C16   H6    S    
C11   C13   A    
O6    Zn2   S    
C5    C13   A    
C21   N1    A    
O5    Zn1   S    
C4    C24   S    
C20   H8    S    
C2    C3    S    
C12   O4    A    
C3    C10   A    
C23   H2    S    
C2    O6    A    
C14   I1    S    
C9    C11   A    
C17   H7    S    
O2    Zn2   S    
C4    C7    A    
C21   H9    S    
C24   O5    A    
C10   Cl1   S    
O1    Zn1   S    
O8    Zn1   S    
C17   C19   A    
C20   C22   A    
C9    Cl2   S    
C6    H5    S    
O7    Zn2   S    
C5    C7    A    
C21   C23   A    
C20   N2    A    
C14   C16   A    
C1    C19   S    
C22   N1    A    
C23   N2    A    
O3    Zn2   S    
N2    Zn2   S    
C22   H10   S    
C16   C18   A    
C3    C8    A    
C5    H4    S    
C12   C18   S    
C6    C11   A    
C15   C17   A    
C8    H1    S    
C12   O2    A    
C2    O8    A    
C4    C9    A    
C24   O7    A    
C14   C19   A    
C1    O3    A    
C1    O1    A    
C10   C13   A    
