data_mof_unit_1043.cif
_audit_creation_date              2012-12-10T17:11:58-0500
_audit_creation_method            fapswitch 2.2
_symmetry_space_group_name_H-M    P1
_symmetry_Int_Tables_number       1
_space_group_crystal_system       triclinic
_cell_length_a                    11.6611
_cell_length_b                    13.004267
_cell_length_c                    15.818092
_cell_angle_alpha                 92.167832
_cell_angle_beta                  74.194369
_cell_angle_gamma                 99.83321
_cell_volume                      2274.02444127

loop_
_atom_site_label
_atom_site_type_symbol
_atom_type_description
_atom_site_fract_x
_atom_site_fract_y
_atom_site_fract_z
_atom_type_partial_charge
C1    C     C_R   0.520813 0.700877 0.501234 0.814120
C2    C     C_R   0.479187 0.299123 0.498766 0.814114
C3    C     C_R   0.378061 0.410795 0.076086 -0.231907
C4    C     C_R   0.621830 0.589247 0.923947 -0.231919
C5    C     C_R   0.292155 0.384800 0.029084 0.171381
C6    C     C_R   0.707715 0.615277 0.970963 0.171336
C7    C     C_R   0.467121 0.185722 0.498179 -0.054608
C8    C     C_R   0.532879 0.814278 0.501821 -0.054610
C9    C     C_R   0.652827 0.984682 0.506631 -0.191951
C10   C     C_R   0.347174 0.015318 0.493368 -0.191957
C11   C     C_R   0.641848 0.876590 0.506434 -0.180665
C12   C     C_R   0.358152 0.123410 0.493566 -0.180666
C13   C     C_R   0.434767 0.860764 0.497569 -0.247067
C14   C     C_R   0.565234 0.139236 0.502431 -0.247061
C15   C     C_R   0.445050 0.968784 0.497727 0.171288
C16   C     C_R   0.554950 0.031216 0.502272 0.171288
C17   C     C_R   0.940249 0.595367 0.582921 -0.317688
C18   C     C_R   0.059751 0.404634 0.417078 -0.317671
C19   C     C_R   0.821904 0.586330 0.574844 0.095077
C20   C     C_R   0.178096 0.413670 0.425155 0.095078
C21   C     C_R   0.859727 0.458880 0.464099 0.033614
C22   C     C_R   0.140273 0.541120 0.535900 0.033607
C23   C     C_R   0.426890 0.493674 0.668177 0.821252
C24   C     C_R   0.573109 0.506321 0.331823 0.821256
C25   C     C_R   0.979689 0.465387 0.469851 0.063810
C26   C     C_R   0.020311 0.534613 0.530148 0.063819
C27   C     C_R   0.382991 0.481261 0.764062 -0.096304
C28   C     C_R   0.616994 0.518725 0.235936 -0.096306
C29   C     C_R   0.226944 0.412596 0.893982 0.210042
C30   C     C_R   0.773000 0.587394 0.106001 0.210028
C31   C     C_R   0.263383 0.439104 0.804763 -0.208667
C32   C     C_R   0.736598 0.560882 0.195218 -0.208640
C33   C     C_R   0.464370 0.506875 0.814506 -0.219083
C34   C     C_R   0.535594 0.493101 0.185506 -0.219051
C35   C     C_R   0.430509 0.486521 0.905308 0.051061
C36   C     C_R   0.569420 0.513474 0.094708 0.051069
C37   C     C_R   0.313351 0.428061 0.944257 0.039612
C38   C     C_R   0.686561 0.571955 0.055758 0.039617
C39   C     C_R   0.513813 0.518251 0.956465 0.049310
C40   C     C_R   0.486104 0.481755 0.043557 0.049310
Cu1   Cu    Cu3+1 0.386820 0.492450 0.493500 0.949896
Cu2   Cu    Cu3+1 0.613180 0.507550 0.506500 0.949901
H1    H     H_    0.239288 0.366558 0.384310 0.127224
H2    H     H_    0.760713 0.633443 0.615689 0.127223
H3    H     H_    0.968767 0.649374 0.629980 0.157568
H4    H     H_    0.031234 0.350626 0.370019 0.157603
H5    H     H_    0.443469 0.462141 0.219702 0.155461
H6    H     H_    0.556506 0.537820 0.780323 0.155472
H7    H     H_    0.801697 0.575922 0.233571 0.178460
H8    H     H_    0.198309 0.424051 0.766391 0.178466
H9    H     H_    0.360442 0.369430 0.137254 0.160492
H10   H     H_    0.639417 0.630639 0.862795 0.160500
H11   H     H_    0.649740 0.186866 0.505891 0.155552
H12   H     H_    0.350260 0.813134 0.494108 0.155550
H13   H     H_    0.281378 0.158072 0.490221 0.161757
H14   H     H_    0.718622 0.841928 0.509779 0.161756
H15   H     H_    0.737547 0.031738 0.510149 0.142673
H16   H     H_    0.262453 0.968262 0.489850 0.142671
H17   H     H_    0.172722 0.594034 0.582010 0.126260
H18   H     H_    0.827278 0.405966 0.417990 0.126271
N1    N     N_R   0.216750 0.481110 0.483710 -0.184098
N2    N     N_R   0.783250 0.518890 0.516290 -0.184098
O1    O     O_R   0.419950 0.645670 0.495380 -0.586970
O2    O     O_R   0.580050 0.354330 0.504620 -0.586972
O3    O     O_R   0.611110 0.658410 0.506370 -0.592531
O4    O     O_R   0.388890 0.341590 0.493630 -0.592534
O5    O     O_R   0.350820 0.490050 0.621260 -0.583623
O6    O     O_R   0.649180 0.509950 0.378740 -0.583614
O7    O     O_R   0.541970 0.502800 0.632250 -0.587029
O8    O     O_R   0.458030 0.497200 0.367750 -0.587031
I1    I     I_    0.154292 0.258622 0.088476 -0.298952
I2    I     I_    0.845369 0.741708 0.911755 -0.298855
I3    I     I_    0.036052 0.367284 0.941115 -0.254848
I4    I     I_    0.963897 0.632580 0.058759 -0.254867

loop_
_geom_bond_atom_site_label_1
_geom_bond_atom_site_label_2
_ccdc_geom_bond_type
C8    C13   A    
C5    C37   A    
C1    C8    S    
Cu1   Cu2   S    
C23   O7    A    
C2    C7    S    
Cu1   N1    S    
C24   O8    A    
Cu1   O5    S    
C27   C33   A    
C6    I2    S    
C4    H10   S    
C17   C26   A    
C35   C37   A    
C9    C16   A    
C17   H3    S    
C10   C15   A    
C30   I4    S    
C29   I3    S    
C19   N2    A    
C15   C16   A    
C18   H4    S    
C30   C38   A    
C23   O5    A    
C20   N1    A    
C9    H15   S    
C17   C19   A    
C7    C14   A    
Cu2   O3    S    
C1    O3    A    
C6    C38   A    
C23   C27   S    
Cu2   N2    S    
C18   C20   A    
C28   C34   A    
Cu2   O6    S    
C18   C25   A    
C1    O1    A    
C2    O2    A    
C7    C12   A    
C27   C31   A    
C28   C32   A    
C21   H18   S    
C4    C6    A    
C22   H17   S    
C3    H9    S    
C3    C5    A    
C25   C26   A    
Cu2   O7    S    
C35   C39   A    
C4    C39   A    
C36   C40   A    
C9    C11   A    
C21   N2    A    
C10   C12   A    
C3    C40   A    
C13   C15   A    
C14   C16   A    
Cu1   O1    S    
C31   H8    S    
Cu2   O2    S    
C39   C40   A    
C20   H1    S    
C19   H2    S    
C13   H12   S    
C21   C25   A    
C10   H16   S    
C24   C28   S    
C2    O4    A    
Cu1   O4    S    
C36   C38   A    
C29   C31   A    
C22   N1    A    
C30   C32   A    
C8    C11   A    
C33   C35   A    
C34   C36   A    
C32   H7    S    
C12   H13   S    
C24   O6    A    
C14   H11   S    
C5    I1    S    
C22   C26   A    
C29   C37   A    
C33   H6    S    
C34   H5    S    
C11   H14   S    
Cu1   O8    S    
