data_mof_unit_3369.cif
_audit_creation_date              2012-10-26T18:43:29-0400
_audit_creation_method            fapswitch 2.2
_symmetry_space_group_name_H-M    P1
_symmetry_Int_Tables_number       1
_space_group_crystal_system       triclinic
_cell_length_a                    10.73698
_cell_length_b                    10.83793
_cell_length_c                    9.55186
_cell_angle_alpha                 90.343036
_cell_angle_beta                  89.792909
_cell_angle_gamma                 90.40553
_cell_volume                      1111.46297811

loop_
_atom_site_label
_atom_site_type_symbol
_atom_type_description
_atom_site_fract_x
_atom_site_fract_y
_atom_site_fract_z
_atom_type_partial_charge
C1    C     C_R   0.496997 0.262397 0.499620 0.541297
C2    C     C_R   0.476976 0.937529 0.624559 0.005457
C3    C     C_3   0.556782 0.933746 0.752184 -0.272387
C4    C     C_R   0.259872 0.497992 0.500024 0.543756
C5    C     C_3   0.554840 0.073952 0.752269 -0.116573
C6    C     C_R   0.605938 0.528021 0.073439 0.164658
C7    C     C_R   0.398552 0.461556 0.074399 0.008149
C8    C     C_R   0.398358 0.462068 0.925798 0.011967
C9    C     C_R   0.606549 0.526007 0.926035 0.162472
C10   C     C_3   0.680296 0.642402 0.919075 -0.283868
C11   C     C_3   0.676295 0.647106 0.077556 -0.278504
C12   C     C_3   0.878283 0.496992 0.499271 0.049962
C13   C     C_R   0.497856 0.737764 0.500146 0.546015
C14   C     C_R   0.740194 0.498374 0.499709 0.541103
C15   C     C_3   0.070841 0.390895 0.592787 -0.233586
C16   C     C_3   0.926974 0.391119 0.592634 -0.233388
C17   C     C_3   0.072797 0.621438 0.556704 -0.232709
C18   C     C_3   0.071941 0.476872 0.348723 -0.234294
C19   C     C_3   0.121940 0.496734 0.499686 0.050599
C20   C     C_1   0.486545 0.125983 0.872362 0.213116
C21   C     C_3   0.929090 0.621715 0.556091 -0.235488
C22   C     C_3   0.929382 0.477193 0.348623 -0.229919
C23   C     C_R   0.475496 0.064739 0.624391 0.021355
C24   C     C_R   0.483532 0.129399 0.498738 -0.011023
C25   C     C_R   0.473859 0.063599 0.371884 -0.163096
C26   C     C_R   0.474575 0.934884 0.372234 -0.163896
C27   C     C_R   0.485239 0.870949 0.499430 0.000667
Cu1   Cu    Cu3+1 0.499990 0.499980 0.640670 0.933481
Cu2   Cu    Cu3+1 0.500010 0.500020 0.359330 0.930946
H1    H     H_    0.104614 0.402169 0.702180 0.121119
H2    H     H_    0.315877 0.431185 0.129429 0.115610
H3    H     H_    0.105123 0.300418 0.553300 0.112604
H4    H     H_    0.315500 0.432285 0.870952 0.117814
H5    H     H_    0.775379 0.626976 0.876669 0.113108
H6    H     H_    0.628155 0.717487 0.869104 0.145154
H7    H     H_    0.769723 0.638291 0.124793 0.113542
H8    H     H_    0.619725 0.724599 0.119570 0.143630
H9    H     H_    0.891449 0.300685 0.553250 0.107404
H10   H     H_    0.892560 0.402648 0.701971 0.127414
H11   H     H_    0.106691 0.637436 0.665355 0.123032
H12   H     H_    0.897742 0.552651 0.279771 0.118967
H13   H     H_    0.894313 0.638436 0.664221 0.114402
H14   H     H_    0.106670 0.551392 0.278566 0.124501
H15   H     H_    0.105671 0.387424 0.305551 0.117863
H16   H     H_    0.893889 0.388465 0.304354 0.125049
H17   H     H_    0.108652 0.698595 0.491170 0.112838
H18   H     H_    0.895459 0.698774 0.489947 0.107895
H19   H     H_    0.472288 0.110901 0.272372 0.165490
H20   H     H_    0.473126 0.886300 0.272827 0.136843
H21   H     H_    0.506686 0.890750 0.841870 0.136250
H22   H     H_    0.650839 0.895952 0.729700 0.112897
H23   H     H_    0.647182 0.118029 0.733324 0.109808
N1    N     N_R   0.500800 0.500930 0.147930 -0.232620
N2    N     N_R   0.500800 0.500890 0.852020 -0.233039
N3    N     N_1   0.432810 0.166318 0.967143 -0.340707
O1    O     O_R   0.500000 0.319640 0.618810 -0.493297
O2    O     O_R   0.500010 0.319680 0.381230 -0.498752
O3    O     O_R   0.317690 0.499960 0.618790 -0.517491
O4    O     O_R   0.317700 0.500000 0.381210 -0.518900
O5    O     O_R   0.499990 0.680320 0.618770 -0.499860
O6    O     O_R   0.500000 0.680360 0.381190 -0.509243
O7    O     O_R   0.682300 0.500000 0.618790 -0.509302
O8    O     O_R   0.682310 0.500040 0.381210 -0.506297

loop_
_geom_bond_atom_site_label_1
_geom_bond_atom_site_label_2
_ccdc_geom_bond_type
C23   C24   A    
Cu2   O8    S    
C5    H23   S    
C10   H6    S    
Cu1   O3    S    
C9    C10   S    
C5    C23   S    
C3    C5    S    
C6    C9    A    
C2    C3    S    
Cu1   O1    S    
C7    C8    A    
C10   H5    S    
C13   O5    A    
C18   H14   S    
C24   C25   A    
C15   C19   S    
C25   H19   S    
C26   C27   A    
C2    C27   A    
Cu2   N1    S    
C1    C24   S    
C20   N3    T    
C14   O8    A    
C4    O4    A    
Cu1   Cu2   S    
C17   C19   S    
C1    O1    A    
C12   C14   S    
C1    O2    A    
C8    H4    S    
Cu1   O5    S    
C12   C22   S    
Cu2   O6    S    
C22   H12   S    
C7    H2    S    
C10   C11   S    
C7    N1    A    
C16   H10   S    
C4    O3    A    
C21   H13   S    
C14   O7    A    
C12   C16   S    
C18   H15   S    
C6    C11   S    
C22   H16   S    
C13   O6    A    
C17   H17   S    
C15   H1    S    
C11   H8    S    
C18   C19   S    
C26   H20   S    
C8    N2    A    
C2    C23   A    
C5    C20   S    
C3    H22   S    
C13   C27   S    
Cu1   N2    S    
C9    N2    A    
C6    N1    A    
C16   H9    S    
C25   C26   A    
C18   C22   S    
C4    C19   S    
C12   C21   S    
C3    H21   S    
C15   C16   S    
C17   C21   S    
C11   H7    S    
Cu2   O4    S    
Cu2   O2    S    
C15   H3    S    
C21   H18   S    
C17   H11   S    
Cu1   O7    S    
