data_mof_unit_2111.cif
_audit_creation_date              2012-12-11T17:45:22-0500
_audit_creation_method            fapswitch 2.2
_symmetry_space_group_name_H-M    P1
_symmetry_Int_Tables_number       1
_space_group_crystal_system       triclinic
_cell_length_a                    15.044814
_cell_length_b                    14.904851
_cell_length_c                    15.219938
_cell_angle_alpha                 110.625071
_cell_angle_beta                  108.857045
_cell_angle_gamma                 108.793223
_cell_volume                      2631.09645699

loop_
_atom_site_label
_atom_site_type_symbol
_atom_type_description
_atom_site_fract_x
_atom_site_fract_y
_atom_site_fract_z
_atom_type_partial_charge
C1    C     C_R   0.972135 0.246751 0.059675 -0.122077
C2    C     C_R   0.323105 0.787333 0.325585 0.052452
C3    C     C_R   0.298087 0.500178 0.927718 -0.133239
C4    C     C_R   0.943735 0.501122 0.303432 0.065465
C5    C     C_R   0.687232 0.409573 0.934898 -0.132551
C6    C     C_R   0.033991 0.594310 0.781954 -0.125588
C7    C     C_R   0.792286 0.197969 0.699661 -0.132036
C8    C     C_R   0.002068 0.803543 0.097774 -0.161513
C9    C     C_R   0.093321 0.806132 0.008625 -0.136334
C10   C     C_R   0.704981 0.194569 0.792786 -0.141265
C11   C     C_R   0.779511 0.594227 0.027511 -0.059564
C12   C     C_R   0.313983 0.758483 0.223765 -0.133473
C13   C     C_R   0.950814 0.409193 0.686423 -0.123617
C14   C     C_R   0.677349 0.503587 0.956806 -0.012008
C15   C     C_R   0.974849 0.504025 0.680062 0.041056
C16   C     C_R   0.703079 0.130863 0.699088 0.060849
C17   C     C_R   0.064310 0.870412 0.073372 0.072420
C18   C     C_R   0.584829 0.289706 0.149861 -0.133230
C19   C     C_R   0.685582 0.370558 0.239411 -0.134590
C20   C     C_R   0.753382 0.340294 0.294458 0.120661
C21   C     C_R   0.720048 0.228277 0.258161 -0.177032
C22   C     C_R   0.619863 0.147411 0.166821 -0.112676
C23   C     C_R   0.205761 0.408597 0.898765 0.496542
C24   C     C_R   0.551968 0.178121 0.112878 -0.091743
C25   C     C_R   0.867716 0.429472 0.489521 -0.243686
C26   C     C_R   0.962988 0.509894 0.585938 0.069969
C27   C     C_R   0.048144 0.589992 0.589611 -0.006073
C28   C     C_R   0.034879 0.586874 0.495123 -0.241483
C29   C     C_R   0.940690 0.505701 0.397938 0.050822
C30   C     C_R   0.855763 0.425862 0.394206 0.024772
C31   C     C_R   0.181824 0.780093 0.748465 -0.137672
C32   C     C_R   0.284179 0.856594 0.838440 -0.084864
C33   C     C_R   0.362149 0.824955 0.865824 -0.090269
C34   C     C_R   0.998143 0.592100 0.299497 -0.150165
C35   C     C_R   0.337508 0.716548 0.803651 -0.104189
C36   C     C_R   0.234547 0.639148 0.714599 -0.079057
C37   C     C_R   0.156007 0.670556 0.686477 0.157054
C38   C     C_R   0.229389 0.015460 0.518599 -0.117870
C39   C     C_R   0.313902 0.999517 0.512313 -0.166276
C40   C     C_R   0.335196 0.923171 0.535805 -0.060856
C41   C     C_R   0.273087 0.865720 0.570659 0.509045
C42   C     C_R   0.183868 0.877410 0.568842 -0.198053
C43   C     C_R   0.161872 0.951383 0.542571 -0.220459
C44   C     C_R   0.523745 0.979858 0.621354 -0.236207
C45   C     C_R   0.295509 0.590945 0.990849 -0.220171
C46   C     C_R   0.618812 0.015867 0.616265 0.061254
C47   C     C_R   0.618987 0.952377 0.521629 0.030894
C48   C     C_R   0.520569 0.867999 0.430205 -0.252526
C49   C     C_R   0.423311 0.852984 0.429553 0.082628
C50   C     C_R   0.425977 0.909964 0.527879 0.016148
C51   C     C_R   0.727310 0.022174 0.443484 -0.193804
C52   C     C_R   0.828390 0.075652 0.453599 -0.156697
C53   C     C_R   0.918757 0.083987 0.528476 -0.086995
C54   C     C_R   0.907671 0.036107 0.591076 -0.103335
C55   C     C_R   0.807164 0.983852 0.582630 -0.170491
C56   C     C_R   0.911123 0.408737 0.210337 -0.128223
C57   C     C_R   0.717158 0.980288 0.511485 0.122350
C58   C     C_3   0.500668 0.470735 0.828720 -0.493471
C59   C     C_3   0.392184 0.463296 0.818026 -0.392446
C60   C     C_3   0.518409 0.423143 0.973970 -0.412866
C61   C     C_3   0.601058 0.623493 0.023000 0.387852
C62   C     C_3   0.577053 0.505972 0.945755 0.291488
C63   C     C_3   0.398494 0.503649 0.930402 0.379486
C64   C     C_3   0.421573 0.431474 0.976847 -0.449542
C65   C     C_3   0.495530 0.623168 0.008199 -0.519119
C66   C     C_R   0.135791 0.025837 0.783799 -0.108280
C67   C     C_R   0.219730 0.749469 0.311675 -0.107773
C68   C     C_R   0.105220 0.042482 0.863027 -0.141361
C69   C     C_R   0.182752 0.119737 0.972016 0.106005
C70   C     C_R   0.290871 0.178585 0.000527 -0.165211
C71   C     C_R   0.320634 0.160642 0.920652 -0.168839
C72   C     C_R   0.243430 0.086103 0.812820 -0.071842
C73   C     C_R   0.168574 0.040485 0.082113 -0.227552
C74   C     C_R   0.100419 0.988645 0.113589 0.054693
C75   C     C_R   0.053523 0.045073 0.161254 0.025169
C76   C     C_R   0.064111 0.140340 0.159723 -0.233097
C77   C     C_R   0.096096 0.164279 0.090286 0.067168
C78   C     C_R   0.067899 0.252339 0.973264 -0.124701
C79   C     C_R   0.155194 0.116966 0.055542 0.017374
C80   C     C_R   0.867251 0.956553 0.132234 -0.188494
C81   C     C_R   0.795686 0.912167 0.164482 -0.133605
C82   C     C_R   0.834807 0.909891 0.259828 0.008571
C83   C     C_R   0.945742 0.956385 0.325347 -0.147455
C84   C     C_R   0.017921 0.005482 0.295885 -0.192146
C85   C     C_R   0.978675 0.001328 0.196984 0.123973
C86   C     C_R   0.049924 0.221251 0.044514 0.030024
H1    H     H_    0.936523 0.232640 0.107833 0.093904
H2    H     H_    0.062108 0.679690 0.806386 0.107522
H3    H     H_    0.823220 0.178646 0.645902 0.141722
H4    H     H_    0.979116 0.826029 0.158106 0.135391
H5    H     H_    0.152037 0.833634 0.984563 0.091558
H6    H     H_    0.658135 0.167118 0.828008 0.090914
H7    H     H_    0.802568 0.680312 0.062381 0.133452
H8    H     H_    0.908918 0.324826 0.621297 0.107820
H9    H     H_    0.473747 0.115440 0.043292 0.102607
H10   H     H_    0.532221 0.314736 0.111185 0.101877
H11   H     H_    0.709507 0.456619 0.267591 0.111598
H12   H     H_    0.377920 0.774582 0.203792 0.093701
H13   H     H_    0.771593 0.203906 0.300563 0.108647
H14   H     H_    0.594374 0.061153 0.138710 0.098247
H15   H     H_    0.802931 0.369045 0.488621 0.132913
H16   H     H_    0.102313 0.643492 0.496376 0.185291
H17   H     H_    0.121580 0.805123 0.728818 0.095921
H18   H     H_    0.302946 0.940273 0.886866 0.111619
H19   H     H_    0.441706 0.884452 0.935020 0.086894
H20   H     H_    0.398583 0.692909 0.824076 0.089014
H21   H     H_    0.216339 0.555368 0.667017 0.095036
H22   H     H_    0.095305 0.962563 0.545902 0.126097
H23   H     H_    0.216989 0.078273 0.505991 0.111614
H24   H     H_    0.363886 0.047684 0.490443 0.133589
H25   H     H_    0.131770 0.830410 0.589357 0.134438
H26   H     H_    0.521218 0.021413 0.693880 0.129105
H27   H     H_    0.520412 0.821455 0.357099 0.125527
H28   H     H_    0.659014 0.021047 0.388898 0.120576
H29   H     H_    0.837079 0.112380 0.404813 0.122826
H30   H     H_    0.997447 0.127559 0.538005 0.115158
H31   H     H_    0.977870 0.044005 0.649513 0.133713
H32   H     H_    0.023823 0.676780 0.353874 0.109771
H33   H     H_    0.801006 0.953150 0.636397 0.115151
H34   H     H_    0.485727 0.389443 0.770804 0.181369
H35   H     H_    0.538672 0.531483 0.807684 0.158297
H36   H     H_    0.373657 0.514179 0.784362 0.154896
H37   H     H_    0.327726 0.377071 0.758856 0.151016
H38   H     H_    0.489119 0.337754 0.911373 0.160627
H39   H     H_    0.352055 0.347297 0.930022 0.193418
H40   H     H_    0.641197 0.681458 0.000381 0.063794
H41   H     H_    0.485202 0.676999 0.975071 0.128119
H42   H     H_    0.346812 0.676265 0.018634 0.128351
H43   H     H_    0.500487 0.659423 0.088482 0.175787
H44   H     H_    0.573947 0.437561 0.052636 0.164152
H45   H     H_    0.436571 0.466954 0.061342 0.159843
H46   H     H_    0.268795 0.074158 0.753044 0.127485
H47   H     H_    0.076712 0.963715 0.700585 0.089649
H48   H     H_    0.022292 0.992190 0.840272 0.109187
H49   H     H_    0.352042 0.234277 0.084578 0.119042
H50   H     H_    0.403721 0.202607 0.941286 0.110062
H51   H     H_    0.215470 0.006815 0.056595 0.124223
H52   H     H_    0.030074 0.183568 0.198642 0.127335
H53   H     H_    0.859241 0.323937 0.183192 0.105908
H54   H     H_    0.836100 0.955331 0.056688 0.119267
H55   H     H_    0.709948 0.878374 0.115006 0.109230
H56   H     H_    0.779287 0.873315 0.283746 0.151825
H57   H     H_    0.975488 0.954178 0.398760 0.119290
H58   H     H_    0.103555 0.041293 0.346097 0.118253
H59   H     H_    0.194134 0.747664 0.369034 0.114226
H60   H     H_    0.125779 0.250646 0.947180 0.167885
H61   H     H_    0.624049 0.324500 0.884031 0.098513
N1    N     N_R   0.947080 0.293830 0.002870 -0.045849
N2    N     N_R   0.054040 0.556820 0.847890 -0.042911
N3    N     N_R   0.848290 0.293830 0.791110 -0.043090
N4    N     N_R   0.995680 0.706170 0.053910 -0.047402
N5    N     N_R   0.052920 0.706170 0.997130 -0.040992
N6    N     N_R   0.791050 0.293830 0.847890 -0.043062
N7    N     N_R   0.846330 0.556820 0.053910 -0.045165
N8    N     N_R   0.997640 0.443180 0.791110 -0.038305
N9    N     N_R   0.208950 0.706170 0.152110 -0.039359
N10   N     N_R   0.153670 0.443180 0.946090 -0.068281
N11   N     N_R   0.002360 0.556820 0.208890 -0.041711
N12   N     N_R   0.210070 0.556820 0.002870 -0.062310
N13   N     N_R   0.945960 0.443180 0.152110 -0.042275
N14   N     N_R   0.151710 0.706170 0.208890 -0.045080
N15   N     N_R   0.004320 0.293830 0.946090 -0.036218
N16   N     N_R   0.789930 0.443180 0.997130 -0.039900
Ni1   Ni    Ni4+2 0.869690 0.369690 0.000000 0.209538
Ni2   Ni    Ni4+2 0.130310 0.630310 0.000000 0.205523
Ni3   Ni    Ni4+2 0.000970 0.369690 0.869780 0.258856
Ni4   Ni    Ni4+2 0.999030 0.630310 0.130220 0.220251
O1    O     O_3   0.158143 0.301277 0.817467 -0.798715
H62   H     H_    0.201792 0.296183 0.781749 0.299507
O2    O     O_3   0.293745 0.795291 0.602582 -0.785732
H63   H     H_    0.357872 0.793695 0.599479 0.319612
O3    O     O_3   0.670816 0.662840 0.132127 -0.790422
H64   H     H_    0.631911 0.619694 0.157451 0.322798

loop_
_geom_bond_atom_site_label_1
_geom_bond_atom_site_label_2
_ccdc_geom_bond_type
C34   H32   S    
C66   C68   A    
C63   C65   S    
C9    N5    A    
C58   C62   S    
C5    H61   S    
C18   H10   S    
C41   C42   A    
C54   C55   A    
C3    C23   A    
C35   C36   A    
C45   N12   A    
C82   H56   S    
C2    C12   A    
C9    H5    S    
N5    Ni2   S    
C19   H11   S    
C20   C30   S    
C53   C54   A    
O3    H64   S    
C26   C27   A    
C80   C85   A    
C18   C24   A    
N13   Ni1   S    
C28   C29   A    
C38   C39   A    
C21   H13   S    
C11   C14   A    
N4    Ni4   S    
C52   H29   S    
O2    H63   S    
C84   H58   S    
N8    Ni3   S    
C14   C62   S    
C1    C86   A    
C6    H2    S    
C60   C62   S    
C18   C19   A    
C73   C74   A    
C1    H1    S    
C60   H38   S    
C13   N8    A    
C25   H15   S    
C11   N7    A    
C6    C15   A    
N15   Ni3   S    
C6    N2    A    
C75   C85   S    
C39   H24   S    
C66   C72   A    
C83   C84   A    
C68   C69   A    
N3    N6    A    
C67   H59   S    
N4    N5    A    
C32   H18   S    
C61   H40   S    
C51   C57   A    
C12   H12   S    
C4    C29   S    
C53   H30   S    
C78   C86   A    
C59   H36   S    
C81   H55   S    
C10   H6    S    
N10   N12   A    
C21   C22   A    
C4    C56   A    
C36   H21   S    
N11   N13   A    
C61   C62   S    
C12   N9    A    
C10   N6    A    
C44   C46   A    
N11   Ni4   S    
C72   H46   S    
C77   C79   A    
C59   H37   S    
C4    C34   A    
C51   H28   S    
C22   H14   S    
C74   C75   A    
N6    Ni1   S    
C51   C52   A    
N1    Ni1   S    
N7    N16   A    
C8    N4    A    
N2    Ni2   S    
C76   C77   A    
C2    C67   A    
C24   H9    S    
C16   C46   S    
C71   H50   S    
C56   H53   S    
C15   C26   S    
C55   H33   S    
C25   C26   A    
C80   H54   S    
C3    C45   A    
C81   C82   A    
N12   Ni2   S    
C31   H17   S    
C75   C76   A    
C29   C30   A    
C2    C49   S    
C61   C65   S    
C23   O1    S    
C47   C57   S    
C7    N3    A    
C67   N14   A    
C47   C48   A    
C64   H45   S    
C48   C49   A    
C58   H34   S    
C73   C79   A    
C33   H19   S    
C61   O3    S    
C84   C85   A    
C38   H23   S    
C5    C14   A    
N14   Ni4   S    
C28   H16   S    
C44   H26   S    
C9    C17   A    
O1    H62   S    
C77   C86   S    
C78   N15   A    
C76   H52   S    
C55   C57   A    
C70   H49   S    
C49   C50   A    
C22   C24   A    
N7    Ni4   S    
C69   C79   S    
C8    H4    S    
C42   C43   A    
C60   H44   S    
C5    N16   A    
C39   C40   A    
C70   C71   A    
C52   C53   A    
C66   H47   S    
C44   C50   A    
C25   C30   A    
C46   C47   A    
C36   C37   A    
C58   H35   S    
C34   N11   A    
C65   H41   S    
C42   H25   S    
C7    C16   A    
C80   C81   A    
N10   Ni3   S    
N9    N14   A    
C65   H43   S    
N3    Ni3   S    
C3    C63   S    
C41   O2    S    
C59   C63   S    
C8    C17   A    
C13   H8    S    
C60   C64   S    
N1    N15   A    
C32   C33   A    
C19   C20   A    
C13   C15   A    
C58   C59   S    
C38   C43   A    
C56   N13   A    
C35   H20   S    
C10   C16   A    
C83   H57   S    
C11   H7    S    
C17   C74   S    
C73   H51   S    
N9    Ni2   S    
C27   C37   S    
C40   C50   S    
C23   N10   A    
C68   H48   S    
C33   C35   A    
C43   H22   S    
N2    N8    A    
C69   C70   A    
N16   Ni1   S    
C78   H60   S    
C63   C64   S    
C31   C32   A    
C31   C37   A    
C71   C72   A    
C20   C21   A    
C64   H39   S    
C54   H31   S    
C27   C28   A    
C1    N1    A    
C40   C41   A    
C45   H42   S    
C82   C83   A    
C48   H27   S    
C7    H3    S    
