data_mof_unit_4923.cif
_audit_creation_date              2012-12-11T14:44:20-0500
_audit_creation_method            fapswitch 2.2
_symmetry_space_group_name_H-M    P1
_symmetry_Int_Tables_number       1
_space_group_crystal_system       triclinic
_cell_length_a                    24.887871
_cell_length_b                    16.746367
_cell_length_c                    15.611099
_cell_angle_alpha                 89.818352
_cell_angle_beta                  49.811748
_cell_angle_gamma                 89.954863
_cell_volume                      4970.40399862

loop_
_atom_site_label
_atom_site_type_symbol
_atom_type_description
_atom_site_fract_x
_atom_site_fract_y
_atom_site_fract_z
_atom_type_partial_charge
C1    C     C_R   0.353421 0.148125 0.753389 -0.116654
C2    C     C_3   0.770390 0.812030 0.587234 0.687577
C3    C     C_1   0.356177 0.721372 0.347313 0.088385
C4    C     C_1   0.913537 0.827967 0.301953 0.099483
C5    C     C_1   0.086482 0.172406 0.698443 0.099170
C6    C     C_1   0.088277 0.858766 0.652145 0.107911
C7    C     C_1   0.911704 0.140652 0.348876 0.108182
C8    C     C_3   0.272414 0.099357 0.269281 -0.245987
C9    C     C_3   0.726799 0.899996 0.731632 -0.246206
C10   C     C_3   0.681532 0.148623 0.780222 -0.254653
C11   C     C_3   0.318302 0.851670 0.220011 -0.255279
C12   C     C_3   0.831688 0.681627 0.262534 -0.273217
C13   C     C_3   0.755502 0.204143 0.603116 0.685526
C14   C     C_3   0.168815 0.318806 0.736831 -0.273227
C15   C     C_3   0.127902 0.729631 0.779157 -0.275846
C16   C     C_3   0.872795 0.269167 0.220338 -0.275746
C17   C     C_3   0.244341 0.796055 0.397064 0.685522
C18   C     C_3   0.784494 0.767951 0.410535 0.691833
C19   C     C_3   0.215670 0.232176 0.589250 0.691944
C20   C     C_3   0.201522 0.786773 0.602766 0.687548
C21   C     C_3   0.798780 0.212608 0.397085 0.687580
C22   C     C_2   0.637325 0.267741 0.156721 -0.203256
C23   C     C_2   0.362666 0.732270 0.843307 -0.203298
C24   C     C_2   0.362731 0.267277 0.842757 -0.202292
C25   C     C_R   0.646590 0.851885 0.246585 -0.116677
C26   C     C_2   0.637293 0.732745 0.157187 -0.202319
C27   C     C_2   0.197151 0.647778 0.012679 -0.215506
C28   C     C_2   0.802849 0.352226 0.987325 -0.215525
C29   C     C_2   0.803162 0.648177 0.986525 -0.217714
C30   C     C_2   0.196838 0.351814 0.013477 -0.217793
C31   C     C_2   0.686530 0.310220 0.147164 -0.105678
C32   C     C_2   0.313471 0.689785 0.852847 -0.105654
C33   C     C_2   0.312839 0.309291 0.853620 -0.106167
C34   C     C_2   0.687165 0.690716 0.146361 -0.106141
C35   C     C_2   0.266710 0.639435 0.951337 -0.106134
C36   C     C_R   0.646653 0.148240 0.246280 -0.117194
C37   C     C_2   0.733289 0.360565 0.048668 -0.106112
C38   C     C_2   0.733515 0.640620 0.047927 -0.106644
C39   C     C_2   0.266486 0.359372 0.952072 -0.106636
C40   C     C_R   0.614221 0.110944 0.591676 -0.153765
C41   C     C_R   0.385846 0.888879 0.408305 -0.153914
C42   C     C_R   0.387040 0.112779 0.407190 -0.160666
C43   C     C_R   0.612959 0.887187 0.592797 -0.160541
C44   C     C_R   0.085103 0.650760 0.591771 -0.151337
C45   C     C_R   0.914872 0.349243 0.408243 -0.151164
C46   C     C_R   0.915621 0.650311 0.406441 -0.156398
C47   C     C_R   0.353338 0.851767 0.753747 -0.117196
C48   C     C_R   0.084383 0.349703 0.593576 -0.156487
C49   C     C_R   0.688734 0.110511 0.405166 -0.120166
C50   C     C_R   0.311321 0.889318 0.594828 -0.119923
C51   C     C_R   0.311806 0.111755 0.593735 -0.096477
C52   C     C_R   0.688182 0.888204 0.406249 -0.096679
C53   C     C_R   0.161588 0.648473 0.405289 -0.106997
C54   C     C_R   0.838388 0.351548 0.594733 -0.106972
C55   C     C_R   0.840069 0.649615 0.592790 -0.106890
C56   C     C_R   0.159923 0.350378 0.407225 -0.106961
C57   C     C_R   0.557937 0.144782 0.243832 -0.142629
C58   C     C_R   0.833360 0.610778 0.802740 -0.108039
C59   C     C_R   0.442059 0.855224 0.756181 -0.142627
C60   C     C_R   0.442289 0.144734 0.755541 -0.140217
C61   C     C_R   0.557728 0.855279 0.244420 -0.140217
C62   C     C_R   0.078366 0.607236 0.195452 -0.146011
C63   C     C_R   0.921633 0.392765 0.804549 -0.145963
C64   C     C_R   0.921768 0.607245 0.804218 -0.150430
C65   C     C_R   0.078231 0.392750 0.195785 -0.150539
C66   C     C_R   0.386378 0.190816 0.783799 0.142390
C67   C     C_R   0.613642 0.809202 0.216154 0.142371
C68   C     C_R   0.613780 0.190977 0.215590 0.141760
C69   C     C_R   0.166639 0.389218 0.197262 -0.108024
C70   C     C_R   0.386212 0.809033 0.784436 0.141761
C71   C     C_R   0.851601 0.626984 0.867575 0.154949
C72   C     C_R   0.148398 0.373009 0.132428 0.154986
C73   C     C_R   0.148567 0.626942 0.131936 0.153066
C74   C     C_R   0.851432 0.373062 0.868067 0.153097
C75   C     C_R   0.680488 0.132084 0.497458 0.128730
C76   C     C_R   0.319633 0.867590 0.502522 0.129063
C77   C     C_R   0.321276 0.135284 0.500594 0.137715
C78   C     C_R   0.678709 0.864645 0.499379 0.137707
C79   C     C_R   0.135247 0.695109 0.497322 0.134241
C80   C     C_R   0.166720 0.610799 0.196972 -0.111329
C81   C     C_R   0.864712 0.304914 0.502713 0.133852
C82   C     C_R   0.866975 0.695808 0.499312 0.146753
C83   C     C_R   0.133019 0.304200 0.500717 0.146892
C84   C     C_3   0.287108 0.227915 0.406681 -0.078387
C85   C     C_3   0.712862 0.771844 0.593135 -0.078584
C86   C     C_3   0.713491 0.241214 0.572858 -0.082922
C87   C     C_3   0.286626 0.758753 0.426685 -0.083133
C88   C     C_3   0.842181 0.808135 0.404281 -0.082932
C89   C     C_3   0.157819 0.192035 0.595902 -0.082739
C90   C     C_3   0.158825 0.823964 0.573492 -0.084600
C91   C     C_R   0.833279 0.389206 0.803032 -0.111528
C92   C     C_3   0.841204 0.175642 0.427011 -0.084417
C93   C     C_3   0.788988 0.870287 0.493663 -0.421278
C94   C     C_3   0.210835 0.129694 0.506703 -0.421730
C95   C     C_3   0.224871 0.869443 0.472494 -0.412528
C96   C     C_3   0.774975 0.130457 0.528145 -0.412997
C97   C     C_3   0.234849 0.289079 0.495825 -0.421103
C98   C     C_3   0.765296 0.710873 0.503814 -0.420919
C99   C     C_3   0.778592 0.285253 0.472342 -0.418533
C100  C     C_3   0.221689 0.714423 0.527075 -0.418256
C101  C     C_3   0.731175 0.828395 0.499672 -0.080123
C102  C     C_3   0.229412 0.187778 0.412983 0.687639
C103  C     C_3   0.268817 0.171540 0.500285 -0.080157
C104  C     C_3   0.267205 0.830633 0.502857 -0.073647
C105  C     C_3   0.732922 0.169039 0.497119 -0.073611
C106  C     C_3   0.176477 0.248154 0.501898 -0.073611
C107  C     C_3   0.823502 0.751842 0.498145 -0.073605
C108  C     C_3   0.821352 0.247595 0.503049 -0.071680
C109  C     C_3   0.178655 0.752317 0.497018 -0.071617
C110  C     C_1   0.357163 0.249795 0.302533 0.081931
C111  C     C_1   0.642782 0.749735 0.697047 0.081842
C112  C     C_1   0.643974 0.278740 0.651839 0.089416
H1    H     H_    0.307008 0.164171 0.765305 0.111227
H2    H     H_    0.405996 0.889773 0.322790 0.088701
H3    H     H_    0.407202 0.110722 0.321753 0.095568
H4    H     H_    0.592807 0.889220 0.678230 0.095440
H5    H     H_    0.057309 0.666849 0.678097 0.099195
H6    H     H_    0.942672 0.333138 0.321921 0.099133
H7    H     H_    0.943203 0.665298 0.319721 0.101974
H8    H     H_    0.056804 0.334735 0.680299 0.102027
H9    H     H_    0.736889 0.108098 0.319020 0.150271
H10   H     H_    0.263145 0.891700 0.680961 0.149935
H11   H     H_    0.263107 0.110143 0.679603 0.130350
H12   H     H_    0.693006 0.835840 0.234659 0.111217
H13   H     H_    0.736878 0.889824 0.320381 0.130624
H14   H     H_    0.204831 0.662136 0.318516 0.148886
H15   H     H_    0.795165 0.337900 0.681514 0.149288
H16   H     H_    0.797029 0.664645 0.679118 0.132806
H17   H     H_    0.202957 0.335334 0.320898 0.132667
H18   H     H_    0.521820 0.160325 0.230268 0.106872
H19   H     H_    0.478176 0.839683 0.769746 0.106860
H20   H     H_    0.478650 0.160288 0.768562 0.105124
H21   H     H_    0.521383 0.839733 0.231364 0.105094
H22   H     H_    0.050342 0.601962 0.164254 0.086220
H23   H     H_    0.693051 0.164375 0.234343 0.107815
H24   H     H_    0.949658 0.398041 0.835747 0.086242
H25   H     H_    0.949891 0.602153 0.835293 0.085938
H26   H     H_    0.050108 0.397838 0.164711 0.085958
H27   H     H_    0.797628 0.935618 0.487972 0.161833
H28   H     H_    0.202056 0.064380 0.512694 0.161762
H29   H     H_    0.227882 0.933025 0.450078 0.147388
H30   H     H_    0.771786 0.066969 0.551072 0.147392
H31   H     H_    0.244190 0.354443 0.490772 0.164647
H32   H     H_    0.756087 0.645496 0.508576 0.164667
H33   H     H_    0.780005 0.348955 0.450827 0.162759
H34   H     H_    0.306929 0.835637 0.765716 0.107932
H35   H     H_    0.220428 0.650627 0.548105 0.162770
H36   H     H_    0.297404 0.705303 0.804698 0.141018
H37   H     H_    0.702603 0.294698 0.195302 0.140806
H38   H     H_    0.703812 0.706232 0.193605 0.147598
H39   H     H_    0.296181 0.293768 0.806393 0.147630
H40   H     H_    0.711587 0.390764 0.015398 0.127965
H41   H     H_    0.288410 0.609234 0.984609 0.127944
H42   H     H_    0.288492 0.389014 0.985040 0.127677
H43   H     H_    0.711510 0.610972 0.014963 0.127680
H44   H     H_    0.377983 0.716759 0.892612 0.137355
H45   H     H_    0.780925 0.608558 0.830219 0.082586
H46   H     H_    0.622002 0.283255 0.107425 0.137338
H47   H     H_    0.621382 0.717167 0.108816 0.137776
H48   H     H_    0.378656 0.282864 0.891106 0.137781
H49   H     H_    0.823901 0.321658 0.021600 0.136412
H50   H     H_    0.176100 0.678348 0.978403 0.136389
H51   H     H_    0.175489 0.321803 0.979494 0.133984
H52   H     H_    0.824511 0.678195 0.020505 0.133997
H53   H     H_    0.241317 0.046850 0.322975 0.141584
H54   H     H_    0.324073 0.101356 0.249651 0.117205
H55   H     H_    0.283095 0.091694 0.188958 0.176958
H56   H     H_    0.219074 0.391437 0.169785 0.082554
H57   H     H_    0.675106 0.897554 0.751416 0.117486
H58   H     H_    0.757513 0.952759 0.678246 0.140873
H59   H     H_    0.716176 0.907588 0.811917 0.176879
H60   H     H_    0.700426 0.086493 0.751980 0.129887
H61   H     H_    0.635569 0.160518 0.785377 0.125953
H62   H     H_    0.663329 0.154130 0.866177 0.174068
H63   H     H_    0.364671 0.838306 0.213237 0.126871
H64   H     H_    0.300228 0.913871 0.249182 0.128982
H65   H     H_    0.335548 0.847268 0.134573 0.174283
H66   H     H_    0.806622 0.627290 0.315761 0.145332
H67   H     H_    0.219178 0.608415 0.169360 0.085766
H68   H     H_    0.884974 0.690562 0.235380 0.129112
H69   H     H_    0.838295 0.671459 0.186018 0.166444
H70   H     H_    0.115479 0.309987 0.764133 0.129057
H71   H     H_    0.193974 0.373030 0.683377 0.145411
H72   H     H_    0.162306 0.329093 0.813239 0.166445
H73   H     H_    0.146541 0.667800 0.748071 0.136363
H74   H     H_    0.080982 0.743181 0.787564 0.136302
H75   H     H_    0.111339 0.732704 0.864238 0.172742
H76   H     H_    0.919556 0.255764 0.212430 0.136354
H77   H     H_    0.854176 0.331085 0.250931 0.136236
H78   H     H_    0.780820 0.391596 0.830649 0.085880
H79   H     H_    0.889603 0.265718 0.135117 0.172971
H80   H     H_    0.594052 0.110039 0.677199 0.088520
N1    N     N_R   0.389620 0.081040 0.705440 -0.048371
N2    N     N_R   0.417680 0.920160 0.443370 -0.038892
N3    N     N_R   0.417680 0.079840 0.443370 -0.039959
N4    N     N_R   0.582320 0.920160 0.556630 -0.039945
N5    N     N_R   0.082320 0.579840 0.556630 -0.045448
N6    N     N_R   0.917680 0.420160 0.443370 -0.045416
N7    N     N_R   0.917680 0.579840 0.443370 -0.046139
N8    N     N_R   0.082320 0.420160 0.556630 -0.046147
N9    N     N_R   0.627920 0.078930 0.443400 -0.051498
N10   N     N_R   0.372080 0.921070 0.556600 -0.051514
N11   N     N_R   0.372080 0.078930 0.556600 -0.052374
N12   N     N_R   0.610380 0.918960 0.294560 -0.048358
N13   N     N_R   0.627920 0.921070 0.443400 -0.052370
N14   N     N_R   0.127920 0.578930 0.443400 -0.055046
N15   N     N_R   0.872080 0.421070 0.556600 -0.055036
N16   N     N_R   0.872080 0.578930 0.556600 -0.054731
N17   N     N_R   0.127920 0.421070 0.443400 -0.054732
N18   N     N_R   0.555090 0.077730 0.294590 -0.043376
N19   N     N_R   0.444910 0.922270 0.705410 -0.043377
N20   N     N_R   0.444910 0.077730 0.705410 -0.043937
N21   N     N_R   0.555090 0.922270 0.294590 -0.043924
N22   N     N_R   0.055090 0.577730 0.294590 -0.037040
N23   N     N_R   0.610380 0.081040 0.294560 -0.047780
N24   N     N_R   0.944910 0.422270 0.705410 -0.037043
N25   N     N_R   0.944910 0.577730 0.705410 -0.036764
N26   N     N_R   0.055090 0.422270 0.294590 -0.036767
N27   N     N_1   0.412353 0.267045 0.220454 -0.103826
N28   N     N_1   0.587572 0.732306 0.778940 -0.103769
N29   N     N_1   0.589190 0.308205 0.714051 -0.096915
N30   N     N_1   0.410988 0.692018 0.284796 -0.097048
N31   N     N_1   0.969828 0.843539 0.221239 -0.085671
N32   N     N_1   0.030207 0.156995 0.779324 -0.085854
N33   N     N_1   0.032609 0.886188 0.714216 -0.077887
N34   N     N_R   0.389620 0.918960 0.705440 -0.047787
N35   N     N_1   0.967335 0.113078 0.287213 -0.077762
N36   N     N_R   0.889620 0.581040 0.705440 -0.044984
N37   N     N_R   0.110380 0.418960 0.294560 -0.044978
N38   N     N_R   0.110380 0.581040 0.294560 -0.045815
N39   N     N_R   0.889620 0.418960 0.705440 -0.045836
N40   N     N_R   0.582320 0.079840 0.556630 -0.038872
Ni1   Ni    Ni4+2 0.382970 0.000000 0.629840 0.217144
Ni2   Ni    Ni4+2 0.617030 0.000000 0.370160 0.217194
Ni3   Ni    Ni4+2 0.882970 0.500000 0.629840 0.211316
Ni4   Ni    Ni4+2 0.117030 0.500000 0.370160 0.211266
Ni5   Ni    Ni4+2 0.514540 0.000000 0.629840 0.206686
Ni6   Ni    Ni4+2 0.485460 0.000000 0.370160 0.206675
Ni7   Ni    Ni4+2 0.014540 0.500000 0.629840 0.203557
Ni8   Ni    Ni4+2 0.985460 0.500000 0.370160 0.203593
O1    O     O_3   0.233724 0.170157 0.320393 -0.617656
O2    O     O_3   0.765922 0.829512 0.680005 -0.617645
O3    O     O_3   0.736286 0.203954 0.710227 -0.627897
O4    O     O_3   0.263191 0.796761 0.290211 -0.627516
O5    O     O_3   0.788684 0.749128 0.318235 -0.630727
O6    O     O_3   0.211656 0.251165 0.681339 -0.630695
O7    O     O_3   0.182142 0.785659 0.710023 -0.633677
O8    O     O_3   0.818445 0.213283 0.289626 -0.633734

loop_
_geom_bond_atom_site_label_1
_geom_bond_atom_site_label_2
_ccdc_geom_bond_type
C45   H6    S    
C10   H62   S    
C12   H66   S    
C96   C105  S    
C76   C104  S    
N8    Ni7   S    
C51   H11   S    
C112  N29   T    
N3    Ni6   S    
C9    H57   S    
C50   H10   S    
N26   Ni8   S    
C41   H2    S    
C25   N12   A    
C28   C74   S    
N7    Ni8   S    
C60   H20   S    
C51   C77   A    
C14   H71   S    
C9    H58   S    
C61   H21   S    
C90   C95   S    
C48   H8    S    
C36   C68   A    
C43   C78   A    
C99   C108  S    
C15   H73   S    
C59   H19   S    
C11   H64   S    
C33   C39   S    
N34   Ni1   S    
C61   N21   A    
C64   N25   A    
C48   N8    A    
C86   C99   S    
C26   C67   S    
N18   Ni6   S    
N13   Ni2   S    
C53   C79   A    
N11   Ni1   S    
C69   N37   A    
C8    H53   S    
C36   N23   A    
C65   N26   A    
C21   C99   S    
C58   C71   A    
N3    N11   A    
C100  H35   S    
C10   H60   S    
C12   O5    S    
N2    N10   A    
C6    N33   T    
C2    C107  S    
N4    N13   A    
N24   N39   A    
C94   H28   S    
C2    C85   S    
N14   Ni4   S    
C44   N5    A    
C64   C71   A    
C89   C94   S    
C55   N16   A    
C97   H31   S    
N36   Ni3   S    
N12   Ni2   S    
C85   C98   S    
C4    C88   S    
C46   C82   A    
C19   C103  S    
C26   C34   D    
C20   O7    S    
C17   O4    S    
C51   N11   A    
N19   N34   A    
C25   C67   A    
C29   C38   D    
C46   H7    S    
N19   Ni5   S    
C62   C73   A    
N38   Ni4   S    
C17   C95   S    
C63   N24   A    
C40   N40   A    
C92   C108  S    
N25   Ni7   S    
N20   Ni5   S    
C2    C93   S    
C24   C66   S    
C84   C102  S    
C64   H25   S    
C46   N7    A    
C10   H61   S    
C16   O8    S    
C99   H33   S    
C81   C108  S    
C60   C66   A    
C100  C109  S    
C34   C38   S    
C23   H44   S    
C78   C101  S    
C11   O4    S    
C62   N22   A    
C29   H52   S    
N5    N14   A    
N23   Ni2   S    
C1    H1    S    
C38   H43   S    
C13   C108  S    
C52   C78   A    
C9    O2    S    
C40   C75   A    
N1    Ni1   S    
C57   C68   A    
C14   H70   S    
C59   N19   A    
C28   H49   S    
C1    C66   A    
C21   O8    S    
N4    Ni5   S    
C50   N10   A    
C92   C96   S    
C34   H38   S    
C49   H9    S    
C91   H78   S    
C49   N9    A    
C30   H51   S    
C22   C31   D    
C79   C109  S    
C13   C96   S    
N15   Ni3   S    
C52   N13   A    
C80   H67   S    
C35   H41   S    
C57   H18   S    
C19   C97   S    
C24   C33   D    
N21   Ni6   S    
C16   H76   S    
C93   C101  S    
C88   C107  S    
C88   C93   S    
N1    N20   A    
C39   H42   S    
C27   C35   D    
C45   N6    A    
C6    C90   S    
C47   C70   A    
C3    C87   S    
N12   N21   A    
C84   C110  S    
C98   C107  S    
C31   C37   S    
C91   N39   A    
C43   N4    A    
C19   O6    S    
C18   C101  S    
C74   C91   A    
C89   C106  S    
C69   C72   A    
C86   C112  S    
C32   C35   S    
N26   N37   A    
C41   N2    A    
C19   C89   S    
C16   H79   S    
C50   C76   A    
C43   H4    S    
C2    O2    S    
C61   C67   A    
C30   C72   S    
C12   H69   S    
C40   H80   S    
C52   H13   S    
N22   Ni8   S    
C49   C75   A    
C53   N14   A    
C26   H47   S    
C102  O1    S    
C82   C107  S    
N2    Ni6   S    
C55   C82   A    
C110  N27   T    
C60   N20   A    
N16   Ni3   S    
C22   C68   S    
C8    O1    S    
N6    Ni8   S    
C11   H65   S    
C65   H26   S    
C12   H68   S    
C15   O7    S    
C94   C103  S    
C75   C105  S    
C3    N30   T    
C33   H39   S    
N40   Ni5   S    
C9    H59   S    
C86   C105  S    
C111  N28   T    
C84   C97   S    
C37   H40   S    
C65   C72   A    
C36   H23   S    
C8    H55   S    
C85   C101  S    
C95   C104  S    
C20   C104  S    
C87   C100  S    
N22   N38   A    
C57   N18   A    
C98   H32   S    
N6    N15   A    
C17   C87   S    
N24   Ni7   S    
C44   C79   A    
C45   C81   A    
C10   O3    S    
C56   H17   S    
C13   C86   S    
C80   N38   A    
C85   C111  S    
C58   H45   S    
C23   C70   S    
C14   H72   S    
C56   C83   A    
C24   H48   S    
C95   H29   S    
C32   H36   S    
C63   C74   A    
C7    N35   T    
C4    N31   T    
C22   H46   S    
C54   H15   S    
C20   C90   S    
C11   H63   S    
N8    N17   A    
C83   C106  S    
C15   H74   S    
C63   H24   S    
C62   H22   S    
N37   Ni4   S    
N17   Ni4   S    
C20   C100  S    
C27   H50   S    
C23   C32   D    
N10   Ni1   S    
N5    Ni7   S    
C18   O5    S    
C93   H27   S    
N9    Ni2   S    
C13   O3    S    
C47   N34   A    
C15   H75   S    
C28   C37   D    
C17   C109  S    
C31   H37   S    
C7    C92   S    
C8    H54   S    
N7    N16   A    
C73   C80   A    
C30   C39   D    
C102  C106  S    
C42   N3    A    
C25   H12   S    
C18   C88   S    
C47   H34   S    
C69   H56   S    
C53   H14   S    
C59   C70   A    
C96   H30   S    
C87   C104  S    
C29   C71   S    
C5    C89   S    
C42   H3    S    
C56   N17   A    
C5    N32   T    
C44   H5    S    
C55   H16   S    
N9    N40   A    
C42   C77   A    
C54   N15   A    
C77   C103  S    
C84   C103  S    
C48   C83   A    
C1    N1    A    
C58   N36   A    
N39   Ni3   S    
C18   C98   S    
C90   C109  S    
C14   O6    S    
N25   N36   A    
C27   C73   S    
C16   H77   S    
C54   C81   A    
C21   C105  S    
N18   N23   A    
C94   C102  S    
C41   C76   A    
C21   C92   S    
C97   C106  S    
