data_mof_unit_4152.cif
_audit_creation_date              2012-10-26T20:20:44-0400
_audit_creation_method            fapswitch 2.2
_symmetry_space_group_name_H-M    P1
_symmetry_Int_Tables_number       1
_space_group_crystal_system       triclinic
_cell_length_a                    8.718783
_cell_length_b                    10.825758
_cell_length_c                    9.596275
_cell_angle_alpha                 90.553148
_cell_angle_beta                  99.008047
_cell_angle_gamma                 91.409471
_cell_volume                      894.242031174

loop_
_atom_site_label
_atom_site_type_symbol
_atom_type_description
_atom_site_fract_x
_atom_site_fract_y
_atom_site_fract_z
_atom_type_partial_charge
C1    C     C_R   0.499764 0.262303 0.499545 0.548189
C2    C     C_R   0.517006 0.065430 0.627915 -0.139901
C3    C     C_R   0.500117 0.871672 0.500507 0.019928
C4    C     C_R   0.499883 0.128328 0.499493 0.019928
C5    C     C_R   0.385796 0.435373 0.054488 0.104276
C6    C     C_R   0.614206 0.564626 0.945512 0.104271
C7    C     C_R   0.387549 0.437848 0.906435 0.021881
C8    C     C_R   0.612448 0.562154 0.093564 0.021882
C9    C     C_3   0.250081 0.367217 0.105039 -0.241095
C10   C     C_3   0.172538 0.260692 0.009378 -0.356767
C11   C     C_3   0.061034 0.184181 0.083999 -0.453421
C12   C     C_R   0.500236 0.737697 0.500455 0.548189
C13   C     C_3   0.749925 0.632775 0.894959 -0.241092
C14   C     C_3   0.827504 0.739280 0.990633 -0.356772
C15   C     C_3   0.939027 0.815775 0.916018 -0.453416
C16   C     C_R   0.203645 0.499790 0.463189 0.549032
C17   C     C_R   0.796355 0.500210 0.536811 0.549032
C18   C     C_2   0.036884 0.499758 0.443585 -0.154758
C19   C     C_2   0.963116 0.500242 0.556415 -0.154759
C20   C     C_R   0.482789 0.062376 0.371583 -0.147478
C21   C     C_R   0.517211 0.937624 0.628417 -0.147475
C22   C     C_R   0.482994 0.934570 0.372085 -0.139903
Cu1   Cu    Cu3+1 0.500000 0.500020 0.640660 0.911214
Cu2   Cu    Cu3+1 0.500000 0.499980 0.359340 0.911215
H1    H     H_    0.974781 0.499362 0.336098 0.113850
H2    H     H_    0.972784 0.244273 0.119630 0.159850
H3    H     H_    0.000111 0.113109 0.009857 0.146484
H4    H     H_    0.103554 0.298362 0.912603 0.153798
H5    H     H_    0.262519 0.199129 0.979181 0.159264
H6    H     H_    0.290014 0.325140 0.207229 0.214406
H7    H     H_    0.159453 0.435264 0.116694 0.149760
H8    H     H_    0.027263 0.755669 0.880387 0.159850
H9    H     H_    0.874251 0.862913 0.823426 0.152064
H10   H     H_    0.999966 0.886839 0.990164 0.146484
H11   H     H_    0.737543 0.800859 0.020841 0.159262
H12   H     H_    0.025219 0.500639 0.663902 0.113848
H13   H     H_    0.896480 0.701591 0.087402 0.153799
H14   H     H_    0.840537 0.564718 0.883285 0.149783
H15   H     H_    0.709985 0.674868 0.792779 0.214391
H16   H     H_    0.468628 0.109217 0.271292 0.125535
H17   H     H_    0.531372 0.890783 0.728708 0.125532
H18   H     H_    0.469141 0.885291 0.271930 0.129430
H19   H     H_    0.530859 0.114709 0.728070 0.129430
H20   H     H_    0.299084 0.390528 0.832750 0.120054
H21   H     H_    0.700909 0.609477 0.167250 0.120056
H22   H     H_    0.125823 0.137053 0.176592 0.152063
N1    N     N_R   0.500040 0.500030 0.852080 -0.237374
N2    N     N_R   0.499960 0.499970 0.147920 -0.237374
O1    O     O_R   0.499990 0.319660 0.618740 -0.503561
O2    O     O_R   0.500010 0.680340 0.381260 -0.503562
O3    O     O_R   0.499990 0.319630 0.381170 -0.521448
O4    O     O_R   0.500010 0.680370 0.618830 -0.521446
O5    O     O_R   0.274840 0.500010 0.591370 -0.502074
O6    O     O_R   0.725160 0.499990 0.408630 -0.502073
O7    O     O_R   0.274830 0.499980 0.353800 -0.521139
O8    O     O_R   0.725170 0.500020 0.646200 -0.521140

loop_
_geom_bond_atom_site_label_1
_geom_bond_atom_site_label_2
_ccdc_geom_bond_type
C2    C4    A    
Cu1   Cu2   S    
C8    N2    A    
C5    C9    S    
C9    C10   S    
C15   H10   S    
C12   O2    A    
C17   O8    A    
C11   H3    S    
C2    H19   S    
C1    C4    S    
C11   H22   S    
Cu2   O3    S    
Cu1   O4    S    
C16   O7    A    
C15   H8    S    
C13   C14   S    
C16   O5    A    
Cu2   O7    S    
C14   H13   S    
C1    O3    A    
C10   H5    S    
C13   H14   S    
C22   H18   S    
C18   H1    S    
C9    H6    S    
C2    C21   A    
C21   H17   S    
C17   C19   S    
C20   C22   A    
Cu1   O5    S    
C19   H12   S    
Cu2   O2    S    
C20   H16   S    
C5    N2    A    
C3    C21   A    
Cu1   O1    S    
C10   C11   S    
C9    H7    S    
Cu2   O6    S    
C4    C20   A    
Cu1   O8    S    
Cu1   N1    S    
C16   C18   S    
C18   C19   D    
C6    N1    A    
C10   H4    S    
C14   H11   S    
C5    C7    A    
C14   C15   S    
C3    C22   A    
C6    C8    A    
C3    C12   S    
C11   H2    S    
C12   O4    A    
C7    H20   S    
C1    O1    A    
C17   O6    A    
C15   H9    S    
C13   H15   S    
C8    H21   S    
C7    N1    A    
C6    C13   S    
Cu2   N2    S    
