data_mof_unit_1470.cif
_audit_creation_date              2013-03-05T16:10:41-0500
_audit_creation_method            fapswitch 2.2
_symmetry_space_group_name_H-M    P1
_symmetry_Int_Tables_number       1
_space_group_crystal_system       triclinic
_cell_length_a                    8.143383
_cell_length_b                    15.051116
_cell_length_c                    18.737083
_cell_angle_alpha                 101.646773
_cell_angle_beta                  91.54032
_cell_angle_gamma                 98.88802
_cell_volume                      2218.24986095

loop_
_atom_site_label
_atom_site_type_symbol
_atom_site_description
_atom_site_fract_x
_atom_site_fract_y
_atom_site_fract_z
_atom_type_partial_charge
P1    P     P_3+3 0.039430 0.410940 0.333230 0.470691
O1    O     O_2   0.871960 0.437280 0.322960 -0.369002
O2    O     O_3   0.121410 0.444460 0.412450 -0.405946
O3    O     O_3   0.661450 0.607570 0.372550 -0.382344
O4    O     O_2   0.786382 0.546194 0.246910 -0.383948
O5    O     O_3   0.997334 0.290585 0.310923 -0.557996
O6    O     O_3   0.706992 0.709502 0.261095 -0.501962
H1    H     H_    0.730508 0.776672 0.369819 0.142558
C1    C     C_3   0.691553 0.869105 0.300084 -0.918562
H2    H     H_    0.826442 0.888971 0.293464 0.271856
H3    H     H_    0.620654 0.869451 0.248776 0.298392
P2    P     P_3+3 0.676770 0.715000 0.563590 0.451361
P3    P     P_3+3 0.126087 0.773783 0.411440 0.459235
O7    O     O_2   0.852310 0.726980 0.542430 -0.380226
O8    O     O_3   0.084010 0.657370 0.410280 -0.341392
O9    O     O_2   0.001230 0.819173 0.461328 -0.388704
O10   O     O_3   0.695518 0.747985 0.658944 -0.570637
O11   O     O_3   0.065666 0.787655 0.324618 -0.518665
C2    C     C_3   0.198116 0.777775 0.278923 0.182263
H4    H     H_    0.240349 0.710459 0.277146 0.083322
H5    H     H_    0.302962 0.835052 0.298448 0.073075
C3    C     C_3   0.139003 0.782099 0.201716 -0.064414
H6    H     H_    0.070071 0.713843 0.173506 0.123120
H7    H     H_    0.052369 0.832937 0.204662 0.157862
C4    C     C_3   0.241971 0.744190 0.628295 0.443071
H8    H     H_    0.357834 0.719681 0.610365 0.091946
H9    H     H_    0.144734 0.722746 0.582915 0.133411
C5    C     C_3   0.273704 0.848759 0.649435 -0.992614
H10   H     H_    0.377587 0.872413 0.691966 0.273487
H11   H     H_    0.306883 0.878566 0.601316 0.225035
H12   H     H_    0.159797 0.873988 0.670924 0.262761
Ba1   Ba    Ba6+2 0.853520 0.540910 0.466490 1.560397
C6    C     C_3   0.952181 0.256002 0.372632 0.446340
H13   H     H_    0.839339 0.281752 0.393081 0.087997
H14   H     H_    0.053085 0.276679 0.416304 0.127857
C7    C     C_3   0.917570 0.151443 0.351244 -0.936395
H15   H     H_    0.808720 0.128663 0.311155 0.297297
H16   H     H_    0.890845 0.121474 0.399853 0.210623
H17   H     H_    0.028070 0.125474 0.326576 0.260376
C8    C     C_3   0.732316 0.675095 0.688954 0.446419
H18   H     H_    0.849179 0.654461 0.668104 0.092578
H19   H     H_    0.629671 0.615553 0.675805 0.126706
C9    C     C_3   0.754369 0.707259 0.771493 -1.009082
H20   H     H_    0.862405 0.763722 0.786189 0.278838
H21   H     H_    0.776325 0.649913 0.797503 0.215583
H22   H     H_    0.640403 0.732585 0.792780 0.264114
P4    P     P_3+3 0.150290 0.589140 0.666780 0.459290
O12   O     O_2   0.317750 0.562750 0.677090 -0.374182
O13   O     O_3   0.068300 0.555620 0.587560 -0.409519
O14   O     O_3   0.528270 0.392500 0.627460 -0.376489
O15   O     O_3   0.191477 0.709515 0.689400 -0.569921
P5    P     P_3+3 0.068178 0.225528 0.590527 0.454008
O16   O     O_3   0.609290 0.386840 0.459690 -0.385494
O17   O     O_3   0.105700 0.342700 0.589730 -0.351488
O18   O     O_2   0.197913 0.180873 0.543141 -0.393696
O19   O     O_3   0.122901 0.214915 0.678974 -0.494188
Ba2   Ba    Ba6+2 0.336320 0.459170 0.533520 1.551209
P6    P     P_3+3 0.648232 0.599289 0.278653 0.467311
C10   C     C_3   0.657918 0.774081 0.318217 0.533071
H23   H     H_    0.652789 0.920612 0.344811 0.211826
O20   O     O_3   0.580430 0.613240 0.540320 -0.400204
C11   C     C_3   0.461969 0.306280 0.307109 0.280016
H24   H     H_    0.364033 0.340912 0.335740 0.054057
C12   C     C_3   0.399292 0.268636 0.227370 -0.131698
H25   H     H_    0.266045 0.236943 0.225385 0.150174
H26   H     H_    0.407795 0.325944 0.197731 0.034341
P7    P     P_3+3 0.519568 0.271080 0.433654 0.435972
O21   O     O_2   0.337390 0.273050 0.457610 -0.374535
O22   O     O_3   0.497398 0.233911 0.338768 -0.550997
C13   C     C_3   0.001493 0.245142 0.725561 0.395524
H27   H     H_    0.964090 0.309663 0.715130 0.075167
H28   H     H_    0.891325 0.189929 0.718837 0.048149
C14   C     C_3   0.071224 0.264626 0.804285 -0.871863
H29   H     H_    0.178159 0.322030 0.813343 0.279797
H30   H     H_    0.973426 0.284324 0.841712 0.209265
H31   H     H_    0.113342 0.202409 0.816816 0.258348
P8    P     P_3+3 0.543630 0.399561 0.721049 0.453324
C15   C     C_3   0.533472 0.224931 0.682448 0.555272
H32   H     H_    0.668088 0.243888 0.675157 -0.048762
O23   O     O_2   0.410724 0.455716 0.754174 -0.382873
O24   O     O_3   0.478646 0.289595 0.737728 -0.512926
H33   H     H_    0.462469 0.219826 0.630027 0.148152
H34   H     H_    0.575637 0.133933 0.754756 0.256591
C16   C     C_3   0.504138 0.131146 0.702819 -0.990862
H35   H     H_    0.545377 0.079096 0.659259 0.223762
H36   H     H_    0.369572 0.110017 0.709507 0.288931
C17   C     C_R   0.993414 0.454798 0.046022 0.007652
C18   C     C_R   0.889070 0.412079 0.092366 0.103734
C19   C     C_R   0.723207 0.374943 0.068428 -0.144385
C20   C     C_R   0.662022 0.378886 0.998932 -0.202632
C21   C     C_R   0.765829 0.419420 0.951693 0.118928
C22   C     C_R   0.931940 0.458030 0.975226 0.018350
C23   C     C_R   0.706027 0.420723 0.881157 -0.237342
C24   C     C_R   0.810508 0.458570 0.832236 -0.027167
C25   C     C_R   0.976066 0.500786 0.856466 0.002235
C26   C     C_R   0.036066 0.499971 0.928206 -0.013410
C27   C     C_R   0.755623 0.453666 0.759236 0.167918
C28   C     C_R   0.865295 0.488614 0.711427 -0.529761
C29   C     C_R   0.025033 0.536254 0.735091 0.283006
C30   C     C_R   0.081800 0.543446 0.809229 -0.034390
C31   C     C_R   0.158963 0.493682 0.070215 -0.013249
C32   C     C_R   0.218536 0.493580 0.142190 0.002634
C33   C     C_R   0.111206 0.453312 0.190112 -0.049966
C34   C     C_R   0.950319 0.408452 0.162348 -0.110246
H37   H     H_    0.639884 0.343642 0.103726 0.161757
H38   H     H_    0.533363 0.349767 0.981996 0.145142
H39   H     H_    0.577894 0.390662 0.864838 0.184044
H40   H     H_    0.868617 0.372653 0.195313 0.197476
C35   C     C_R   0.241754 0.589641 0.837497 -0.126200
C36   C     C_R   0.304407 0.583913 0.906807 0.112825
C37   C     C_R   0.201334 0.539269 0.952519 0.010705
C38   C     C_R   0.263488 0.534936 0.022969 0.015837
C39   C     C_R   0.470320 0.620973 0.930724 -0.164955
C40   C     C_R   0.533186 0.614274 0.999291 -0.121871
C41   C     C_R   0.430210 0.572449 0.046166 0.143467
C42   C     C_R   0.384830 0.534594 0.166099 -0.029407
C43   C     C_R   0.490524 0.570257 0.116524 -0.142044
C44   C     C_R   0.438944 0.540903 0.239481 0.172582
C45   C     C_R   0.328891 0.506493 0.287469 -0.522941
C46   C     C_R   0.167389 0.461173 0.264371 0.261993
H41   H     H_    0.322047 0.627777 0.805329 0.164908
H42   H     H_    0.552237 0.654442 0.896094 0.135117
H43   H     H_    0.661949 0.643209 0.016146 0.137922
H44   H     H_    0.619170 0.599420 0.132674 0.171817
H45   H     H_    0.371138 0.513131 0.343808 0.184103
C47   C     C_R   0.854738 0.173239 0.552199 0.140038
C48   C     C_R   0.787304 0.079343 0.545645 -0.011551
C49   C     C_R   0.649135 0.890380 0.529709 -0.032449
C50   C     C_R   0.798848 0.928636 0.571810 -0.070085
C51   C     C_R   0.868285 0.020730 0.578303 -0.201437
C52   C     C_R   0.581529 0.795572 0.518794 0.249879
H46   H     H_    0.865887 0.888367 0.600091 0.170368
H47   H     H_    0.984914 0.045578 0.610197 0.168885
C53   C     C_R   0.431165 0.762047 0.477329 -0.530207
C54   C     C_R   0.613800 0.194695 0.481733 0.220780
C55   C     C_R   0.546106 0.101331 0.473326 -0.027141
C56   C     C_R   0.632170 0.043414 0.505906 0.017088
C57   C     C_R   0.394129 0.064455 0.433371 -0.060254
C58   C     C_R   0.324948 0.973404 0.427327 -0.196891
C59   C     C_R   0.408475 0.914181 0.457969 -0.024481
C60   C     C_R   0.563880 0.949070 0.497496 0.009867
C61   C     C_R   0.340789 0.820868 0.449736 0.145906
C62   C     C_R   0.763430 0.230072 0.522800 -0.520925
H48   H     H_    0.206122 0.950298 0.397070 0.171429
H49   H     H_    0.324253 0.105115 0.406719 0.172799
H50   H     H_    0.378689 0.690086 0.470486 0.185232
H51   H     H_    0.814322 0.302020 0.527979 0.178823
H52   H     H_    0.523221 0.756786 0.326098 -0.022811
H53   H     H_    0.576388 0.357465 0.309086 0.112692
N1    N     N_R   0.496099 0.200212 0.191482 0.290857
O25   O     O_R   0.656228 0.221616 0.188059 -0.392113
O26   O     O_R   0.422951 0.116623 0.164091 -0.304164
N2    N     N_R   0.279908 0.809024 0.159920 0.240718
O27   O     O_R   0.395478 0.758205 0.147341 -0.414871
O28   O     O_R   0.290696 0.884148 0.134884 -0.319025
H54   H     H_    0.822947 0.482042 0.655112 0.178318

loop_
_geom_bond_atom_site_label_1
_geom_bond_atom_site_label_2
_geom_bond_distance
_ccdc_geom_bond_type
C17   C18   1.409152 A    
O14   P8    1.735180 S    
C23   C24   1.411253 A    
P2    C52   1.855610 S    
C25   C26   1.420907 A    
C14   H29   1.110839 S    
C2    H4    1.113824 S    
C22   C26   1.411722 A    
C52   C53   1.399012 A    
C49   C50   1.410035 A    
C40   C41   1.403788 A    
O13   Ba2   2.898403 S    
C54   C55   1.403555 A    
P4    O13   1.563294 S    
C4    C5    1.522463 S    
C62   H51   1.081937 S    
C31   C32   1.421254 A    
O4    P6    1.542685 D    
H34   C16   1.110535 S    
C5    H10   1.110673 S    
C11   H53   1.108096 S    
C43   H44   1.081191 S    
C59   C61   1.403164 A    
Ba1   O20   2.889624 S    
O11   C2    1.402261 S    
H1    C10   1.110271 S    
C53   C61   1.399434 A    
C57   H49   1.078620 S    
C47   C62   1.397416 A    
P6    C44   1.850725 S    
C6    C7    1.522804 S    
P4    C29   1.882275 S    
C42   C43   1.411839 A    
O1    Ba1   2.843999 S    
P1    O1    1.495939 D    
C44   C45   1.402777 A    
C11   C12   1.530248 S    
C33   C34   1.411109 A    
C32   C33   1.426796 A    
C17   C31   1.407719 A    
C8    C9    1.521284 S    
C39   H42   1.082220 S    
C29   C30   1.429815 A    
C41   C43   1.402848 A    
P2    O10   1.750920 S    
P8    C27   1.849132 S    
C13   H27   1.113036 S    
N2    O28   1.300745 A    
C49   C60   1.417327 A    
O6    P6    1.752836 S    
P5    O18   1.544377 D    
C50   H46   1.078213 S    
C10   H52   1.108482 S    
C54   C62   1.394275 A    
C30   C35   1.412444 A    
N2    O27   1.299191 A    
C17   C22   1.417922 A    
P2    Ba1   3.410123 S    
C14   H30   1.110408 S    
C24   C25   1.418942 A    
Ba1   Ba2   4.516828 S    
O6    C10   1.404635 S    
C18   C34   1.404758 A    
P5    O17   1.745894 S    
C27   C28   1.401730 A    
C7    H17   1.110951 S    
C53   H50   1.081721 S    
C26   C37   1.407453 A    
C28   H54   1.081606 S    
P7    O21   1.564380 D    
O12   Ba2   2.844525 S    
C2    C3    1.529377 S    
C59   C60   1.418823 A    
C20   H38   1.083776 S    
C55   C57   1.403683 A    
C21   C22   1.408376 A    
P5    C47   1.854242 S    
C15   H32   1.108580 S    
C3    N2    1.458389 S    
P4    O15   1.751924 S    
C24   C27   1.411482 A    
C4    H8    1.101696 S    
P1    Ba1   3.391087 S    
C36   C37   1.409388 A    
C11   O22   1.403676 S    
C12   N1    1.460822 S    
C31   C38   1.411695 A    
O10   C8    1.396823 S    
C12   H26   1.110957 S    
P7    C54   1.837340 S    
C9    H20   1.110629 S    
C4    O15   1.397338 S    
C11   H24   1.110899 S    
C21   C23   1.401101 A    
C1    H3    1.109350 S    
C58   H48   1.079635 S    
C15   H33   1.109158 S    
P4    O12   1.496305 D    
P8    O24   1.750482 S    
C45   C46   1.398303 A    
C13   C14   1.520895 S    
C6    H13   1.100199 S    
P3    C61   1.848877 S    
C16   H35   1.109292 S    
C9    H21   1.107828 S    
C36   C39   1.403948 A    
O3    Ba1   2.757015 S    
C40   H43   1.083718 S    
P3    O11   1.748714 S    
C8    H18   1.103208 S    
P2    O7    1.487558 D    
O19   C13   1.404081 S    
P3    O8    1.728183 S    
C14   H31   1.110577 S    
C3    H7    1.112696 S    
C51   H47   1.080981 S    
Ba2   O21   2.875751 S    
C19   H37   1.082097 S    
C49   C52   1.419336 A    
O2    Ba2   2.778844 S    
Ba1   O16   2.791262 S    
C34   H40   1.077109 S    
C45   H45   1.081655 S    
C39   C40   1.398470 A    
C1    H2    1.110044 S    
P8    O23   1.542056 D    
P7    O22   1.748252 S    
C56   C60   1.418236 A    
C7    H15   1.110761 S    
O16   Ba2   2.888798 S    
C37   C38   1.418438 A    
C2    H5    1.111043 S    
C25   C30   1.427107 A    
O14   Ba2   2.756512 S    
C5    H12   1.110825 S    
P4    Ba2   3.391631 S    
O7    Ba1   2.875453 S    
C55   C56   1.415767 A    
O8    Ba1   2.745863 S    
C58   C59   1.399942 A    
Ba2   O20   2.790693 S    
C4    H9    1.108248 S    
N1    O25   1.300511 A    
O5    C6    1.396320 S    
C1    H23   1.109277 S    
C12   H25   1.112232 S    
C7    H16   1.107502 S    
C50   C51   1.393514 A    
C48   C51   1.401294 A    
C5    H11   1.107302 S    
C35   C36   1.406220 A    
C23   H39   1.080774 S    
P2    O20   1.578634 S    
C15   O24   1.404111 S    
C35   H41   1.079438 S    
C20   C21   1.403264 A    
C47   C48   1.414346 A    
C8    H19   1.109435 S    
C6    H14   1.106186 S    
C33   C46   1.428947 A    
C42   C44   1.412629 A    
N1    O26   1.300907 A    
O2    Ba1   2.897511 S    
O16   P7    1.746928 S    
C9    H22   1.110649 S    
Ba1   O13   2.778216 S    
C32   C42   1.418807 A    
C57   C58   1.379703 A    
C15   C16   1.521021 S    
C18   C19   1.403873 A    
C28   C29   1.398303 A    
P3    O9    1.543434 D    
O3    P6    1.737690 S    
P1    O5    1.751678 S    
C3    H6    1.111985 S    
C16   H36   1.110613 S    
C13   H28   1.110232 S    
C48   C56   1.420762 A    
P1    O2    1.563268 S    
C19   C20   1.397434 A    
C1    C10   1.521893 S    
P1    C46   1.882761 S    
C38   C41   1.408305 A    
P5    O19   1.749191 S    
O17   Ba2   2.746586 S    
