data_mof_unit_46.cif
_audit_creation_date              2012-10-26T19:41:50-0400
_audit_creation_method            fapswitch 2.2
_symmetry_space_group_name_H-M    P1
_symmetry_Int_Tables_number       1
_space_group_crystal_system       triclinic
_cell_length_a                    10.632129
_cell_length_b                    10.862463
_cell_length_c                    9.585509
_cell_angle_alpha                 90.499409
_cell_angle_beta                  89.753226
_cell_angle_gamma                 92.60535
_cell_volume                      1105.84625392

loop_
_atom_site_label
_atom_site_type_symbol
_atom_type_description
_atom_site_fract_x
_atom_site_fract_y
_atom_site_fract_z
_atom_type_partial_charge
C1    C     C_R   0.510195 0.263187 0.500081 0.544240
C2    C     C_R   0.538452 0.066192 0.629357 0.023689
C3    C     C_R   0.522098 0.129501 0.502235 -0.009899
C4    C     C_R   0.259437 0.499704 0.500359 0.590056
C5    C     C_R   0.499759 0.062769 0.378659 -0.164245
C6    C     C_R   0.489164 0.935563 0.380645 -0.153067
C7    C     C_R   0.489305 0.872478 0.507518 0.002247
C8    C     C_R   0.668600 0.663011 0.144876 -0.098836
C9    C     C_R   0.751317 0.742202 0.072901 -0.179348
C10   C     C_R   0.751273 0.742169 0.929163 -0.165509
C11   C     C_R   0.668383 0.663072 0.856558 -0.088938
C12   C     C_3   0.959659 0.502722 0.366402 -0.107056
C13   C     C_R   0.582745 0.580226 0.925527 0.147591
C14   C     C_R   0.582780 0.580182 0.075193 0.154972
C15   C     C_R   0.421613 0.423387 0.073544 -0.003141
C16   C     C_R   0.493551 0.737666 0.501751 0.548924
C17   C     C_R   0.421650 0.423415 0.925558 -0.008288
C18   C     C_R   0.740515 0.500725 0.499671 0.534356
C19   C     C_3   0.039462 0.497892 0.633240 -0.139230
C20   C     C_3   0.951953 0.398073 0.562641 -0.138512
C21   C     C_3   0.877222 0.501158 0.498844 0.006418
C22   C     C_3   0.962145 0.601227 0.569850 -0.118788
C23   C     C_3   0.036956 0.399861 0.430812 -0.157892
C24   C     C_3   0.045909 0.600014 0.439210 0.243943
C25   C     C_3   0.122545 0.499466 0.501404 0.077837
C26   C     C_R   0.588834 0.124164 0.751288 -0.097368
C27   C     C_R   0.577370 0.067008 0.880477 -0.132794
C28   C     C_R   0.515502 0.952147 0.890242 -0.126135
C29   C     C_R   0.476938 0.889174 0.769352 -0.096245
C30   C     C_R   0.500935 0.940314 0.635450 0.022393
Cu1   Cu    Cu3+1 0.499990 0.499990 0.640660 0.909066
Cu2   Cu    Cu3+1 0.500010 0.500010 0.359340 0.938721
H1    H     H_    0.909536 0.314611 0.613642 0.116866
H2    H     H_    0.357492 0.360603 0.869873 0.121153
H3    H     H_    0.074318 0.495159 0.742136 0.126141
H4    H     H_    0.929166 0.684269 0.624782 0.100188
H5    H     H_    0.925279 0.506914 0.257400 0.125644
H6    H     H_    0.070327 0.317500 0.374894 0.111853
H7    H     H_    0.490095 0.108823 0.279720 0.134110
H8    H     H_    0.639340 0.212723 0.748140 0.143978
H9    H     H_    0.613049 0.113553 0.973502 0.111665
H10   H     H_    0.027334 0.752491 0.344183 0.310786
H11   H     H_    0.499596 0.910473 0.991379 0.118656
H12   H     H_    0.424229 0.803182 0.784397 0.157792
H13   H     H_    0.478414 0.886667 0.282105 0.142799
H14   H     H_    0.357404 0.360577 0.128536 0.113664
H15   H     H_    0.676466 0.671105 0.254846 0.180664
H16   H     H_    0.815762 0.804325 0.129417 0.117232
H17   H     H_    0.815362 0.804554 0.873145 0.122337
H18   H     H_    0.675055 0.672007 0.746672 0.184130
N1    N     N_R   0.501210 0.501210 0.147910 -0.242744
N2    N     N_R   0.501250 0.501290 0.852040 -0.250908
O1    O     O_R   0.499990 0.319640 0.618810 -0.511088
O2    O     O_R   0.500000 0.319660 0.381240 -0.509250
O3    O     O_R   0.316850 0.499960 0.618770 -0.512468
O4    O     O_R   0.316860 0.499980 0.381190 -0.475107
O5    O     O_R   0.500000 0.680340 0.618760 -0.539025
O6    O     O_R   0.500010 0.680360 0.381190 -0.514974
O7    O     O_R   0.683140 0.500020 0.618810 -0.524102
O8    O     O_R   0.683150 0.500040 0.381230 -0.526829
O9    O     O_3   0.099495 0.705044 0.375087 -0.692322

loop_
_geom_bond_atom_site_label_1
_geom_bond_atom_site_label_2
_ccdc_geom_bond_type
C1    O2    A    
Cu2   N1    S    
C6    C7    A    
C6    H13   S    
C15   N1    A    
C23   H6    S    
C22   H4    S    
C9    C10   A    
C27   H9    S    
C28   H11   S    
Cu1   Cu2   S    
C12   C23   S    
C20   C23   S    
Cu2   O6    S    
Cu1   N2    S    
C2    C30   A    
Cu1   O5    S    
C23   C25   S    
C2    C3    A    
C16   O6    A    
C8    H15   S    
C29   H12   S    
C11   H18   S    
C19   H3    S    
C21   C22   S    
C4    O4    A    
C18   C21   S    
C11   C13   A    
H10   O9    S    
C26   H8    S    
C26   C27   A    
C24   O9    S    
C20   H1    S    
C17   N2    A    
Cu2   O2    S    
C7    C16   S    
C4    C25   S    
C16   O5    A    
C5    H7    S    
C4    O3    A    
C5    C6    A    
C19   C25   S    
C22   C24   S    
C14   N1    A    
C10   C11   A    
Cu2   O8    S    
C29   C30   A    
C13   N2    A    
C3    C5    A    
C18   O7    A    
C27   C28   A    
C19   C22   S    
C24   C25   S    
C9    H16   S    
C2    C26   A    
C12   C24   S    
C17   H2    S    
C18   O8    A    
C12   H5    S    
C15   C17   A    
C1    O1    A    
C28   C29   A    
C8    C14   A    
C15   H14   S    
Cu1   O3    S    
C20   C21   S    
C13   C14   A    
C10   H17   S    
C12   C21   S    
Cu2   O4    S    
Cu1   O1    S    
C19   C20   S    
C8    C9    A    
C1    C3    S    
Cu1   O7    S    
C7    C30   A    
