data_mof_unit_1254.cif
_audit_creation_date              2012-12-10T18:48:48-0500
_audit_creation_method            fapswitch 2.2
_symmetry_space_group_name_H-M    P1
_symmetry_Int_Tables_number       1
_space_group_crystal_system       triclinic
_cell_length_a                    25.549962
_cell_length_b                    25.488519
_cell_length_c                    25.498917
_cell_angle_alpha                 119.921299
_cell_angle_beta                  89.956175
_cell_angle_gamma                 60.03848
_cell_volume                      11758.2776782

loop_
_atom_site_label
_atom_site_type_symbol
_atom_type_description
_atom_site_fract_x
_atom_site_fract_y
_atom_site_fract_z
_atom_type_partial_charge
C1    C     C_R   0.849870 0.500051 0.849793 0.532223
C2    C     C_3   0.560356 0.435983 0.463407 -0.030418
C3    C     C_3   0.045003 0.352871 0.459877 -0.242112
C4    C     C_3   0.109004 0.289147 0.405004 -0.266390
C5    C     C_3   0.122039 0.214325 0.381366 -0.454549
C6    C     C_3   0.541068 0.060716 0.954033 -0.239896
C7    C     C_3   0.595668 0.004823 0.889699 -0.274580
C8    C     C_3   0.621259 0.041444 0.876664 -0.434775
C9    C     C_3   0.459911 0.939281 0.046892 -0.240178
C10   C     C_3   0.397862 0.995172 0.104323 -0.277826
C11   C     C_3   0.388319 0.958513 0.132205 -0.433567
C12   C     C_3   0.455987 0.504360 0.606856 -0.249048
C13   C     C_3   0.476419 0.501841 0.548535 -0.024300
C14   C     C_3   0.398668 0.499601 0.609669 -0.262271
C15   C     C_3   0.366905 0.526780 0.676929 -0.450899
C16   C     C_3   0.544054 0.494962 0.392218 -0.238020
C17   C     C_3   0.608551 0.484240 0.380671 -0.275781
C18   C     C_3   0.624325 0.483797 0.322638 -0.440248
C19   C     C_3   0.372345 0.632571 0.569755 -0.235195
C20   C     C_3   0.353312 0.677327 0.643174 -0.286751
C21   C     C_3   0.296900 0.757710 0.674668 -0.405560
C22   C     C_3   0.630521 0.368411 0.430885 -0.261030
C23   C     C_3   0.646654 0.310392 0.359953 -0.284961
C24   C     C_3   0.524916 0.496012 0.450089 -0.014446
C25   C     C_3   0.718843 0.257837 0.325078 -0.435860
C26   C     C_3   0.629803 0.369206 0.937824 -0.239212
C27   C     C_3   0.646401 0.312084 0.952187 -0.281468
C28   C     C_3   0.718762 0.258227 0.932227 -0.440357
C29   C     C_3   0.370027 0.630352 0.061920 -0.254023
C30   C     C_3   0.353298 0.688161 0.048419 -0.292117
C31   C     C_3   0.281005 0.740472 0.066424 -0.442023
C32   C     C_3   0.542837 0.496424 0.103500 -0.244266
C33   C     C_3   0.606714 0.487011 0.105579 -0.270723
C34   C     C_3   0.625679 0.477470 0.158567 -0.443611
C35   C     C_1   0.610954 0.499596 0.610036 0.042551
C36   C     C_3   0.457279 0.504136 0.896732 -0.256966
C37   C     C_3   0.393186 0.514213 0.894540 -0.286182
C38   C     C_3   0.375398 0.522118 0.840528 -0.446836
C39   C     C_1   0.389331 0.500092 0.389672 0.046191
C40   C     C_3   0.502362 0.558018 0.522054 0.281993
C41   C     C_3   0.498920 0.439869 0.476510 0.239096
C42   C     C_3   0.537599 0.498616 0.535497 -0.023227
C43   C     C_3   0.463568 0.499704 0.463339 -0.015411
C44   C     C_1   0.578001 0.499171 0.576347 -0.007723
C45   C     C_R   0.150129 0.499949 0.150208 0.532281
C46   C     C_1   0.422634 0.500028 0.423009 -0.001649
C47   C     C_3   0.524307 0.497343 0.046467 -0.021958
C48   C     C_3   0.475761 0.502629 0.953591 -0.025332
C49   C     C_R   0.650177 0.499973 0.650111 0.508146
C50   C     C_R   0.349821 0.500026 0.349887 0.508727
C51   C     C_3   0.559779 0.437123 0.973291 -0.017636
C52   C     C_3   0.440278 0.562920 0.026836 -0.025770
C53   C     C_1   0.610897 0.499690 0.889616 0.044982
C54   C     C_1   0.389159 0.500268 0.110408 0.045015
C55   C     C_3   0.501536 0.559296 0.036240 0.246550
C56   C     C_3   0.478258 0.975410 0.024429 -0.080614
C57   C     C_3   0.498583 0.440664 0.963860 0.253149
C58   C     C_3   0.536908 0.499492 0.963461 -0.014550
C59   C     C_3   0.463188 0.500483 0.036632 -0.015596
C60   C     C_1   0.577704 0.499535 0.922949 -0.003160
C61   C     C_1   0.422389 0.500418 0.077111 -0.003163
C62   C     C_3   0.969461 0.567563 0.055281 0.170217
C63   C     C_3   0.030412 0.432534 0.944872 0.185970
C64   C     C_3   0.987535 0.549709 0.987850 0.181489
C65   C     C_3   0.012335 0.450371 0.012293 0.164236
C66   C     C_1   0.889355 0.500117 0.889418 0.127564
C67   C     C_3   0.521607 0.024590 0.975469 -0.080178
C68   C     C_1   0.110635 0.499877 0.110591 0.126199
C69   C     C_3   0.944920 0.517971 0.030619 0.183456
C70   C     C_3   0.054939 0.482111 0.969530 0.194179
C71   C     C_3   0.963027 0.500120 0.963201 -0.105337
C72   C     C_3   0.036853 0.499946 0.036911 -0.104475
C73   C     C_R   0.849742 0.500148 0.650182 0.519352
C74   C     C_R   0.150258 0.499847 0.349813 0.519696
C75   C     C_1   0.922585 0.500136 0.922718 0.132173
C76   C     C_1   0.077369 0.499878 0.077326 0.129435
C77   C     C_3   0.000800 0.975628 0.440101 0.258128
C78   C     C_3   0.536516 0.926548 0.963404 -0.058636
C79   C     C_3   0.999873 0.024525 0.561075 0.237544
C80   C     C_3   0.940311 0.023917 0.498597 -0.019659
C81   C     C_3   0.060384 0.976044 0.502542 -0.019581
C82   C     C_1   0.889362 0.221007 0.610707 0.043366
C83   C     C_1   0.110683 0.778996 0.389465 0.040912
C84   C     C_3   0.023954 0.024830 0.478268 -0.021621
C85   C     C_3   0.976785 0.975163 0.522921 -0.032651
C86   C     C_3   0.963487 0.073086 0.536898 -0.010269
C87   C     C_3   0.037090 0.926895 0.463967 -0.020440
C88   C     C_1   0.922638 0.154358 0.577503 -0.003035
C89   C     C_3   0.463419 0.073453 0.036558 -0.059249
C90   C     C_1   0.077576 0.845645 0.422926 -0.009760
C91   C     C_3   0.059409 0.467358 0.502666 0.245104
C92   C     C_3   0.940577 0.532796 0.497453 0.238578
C93   C     C_3   0.998636 0.537595 0.560631 0.239202
C94   C     C_3   0.001335 0.462539 0.439466 0.205035
C95   C     C_1   0.889143 0.500461 0.610716 0.090134
C96   C     C_1   0.110857 0.499545 0.389293 0.090482
C97   C     C_R   0.650301 0.499924 0.849918 0.513695
C98   C     C_R   0.349707 0.500069 0.150086 0.513557
C99   C     C_3   0.024130 0.429509 0.478692 -0.081882
C100  C     C_1   0.577168 0.845472 0.922723 0.070051
C101  C     C_3   0.975878 0.570613 0.521417 -0.072993
C102  C     C_3   0.963134 0.500243 0.536830 -0.062213
C103  C     C_3   0.036828 0.499877 0.463262 -0.062713
C104  C     C_1   0.922396 0.500565 0.577483 0.068938
C105  C     C_1   0.077595 0.499475 0.422552 0.067642
C106  C     C_R   0.849856 0.300303 0.650196 0.516574
C107  C     C_R   0.150147 0.699698 0.349791 0.515783
C108  C     C_R   0.650198 0.699696 0.849807 0.523723
C109  C     C_R   0.349801 0.300304 0.150192 0.524088
C110  C     C_3   0.439469 0.024492 0.001240 0.245000
C111  C     C_1   0.422794 0.154528 0.077261 0.069716
C112  C     C_3   0.560431 0.975516 0.998683 0.203400
C113  C     C_3   0.497520 0.975512 0.940376 0.244415
C114  C     C_3   0.502375 0.024481 0.059553 0.199942
C115  C     C_1   0.610535 0.778886 0.889370 0.095745
C116  C     C_1   0.389447 0.221115 0.110626 0.096454
C117  C     C_3   0.871036 0.058899 0.498300 -0.236651
C118  C     C_3   0.851347 0.005146 0.473658 -0.284226
C119  C     C_3   0.793342 0.031568 0.452065 -0.400926
C120  C     C_3   0.130687 0.938671 0.499432 -0.247741
C121  C     C_3   0.146421 0.993855 0.541470 -0.270624
C122  C     C_3   0.441004 0.561887 0.535275 -0.023760
C123  C     C_3   0.218508 0.957118 0.521727 -0.439040
C124  C     C_3   0.956989 0.936927 0.541021 -0.260490
C125  C     C_3   0.900822 0.990978 0.603974 -0.280049
C126  C     C_3   0.869000 0.955665 0.608925 -0.453933
C127  C     C_3   0.042628 0.063255 0.459245 -0.250942
C128  C     C_3   0.107431 0.010193 0.405863 -0.298492
C129  C     C_3   0.121111 0.051389 0.386931 -0.451942
C130  C     C_3   0.954899 0.647050 0.539504 -0.225743
C131  C     C_3   0.893780 0.711485 0.597791 -0.251695
C132  C     C_3   0.875938 0.785733 0.613557 -0.447862
H1    H     H_    0.460968 0.982356 0.804377 0.383633
H2    H     H_    0.805244 0.032935 0.411045 0.200529
H3    H     H_    0.641160 0.342102 0.457072 0.137092
H4    H     H_    0.576099 0.292896 0.454173 0.331179
H5    H     H_    0.484514 0.714433 0.531606 0.384713
H6    H     H_    0.741627 0.229336 0.880276 0.180322
H7    H     H_    0.739326 0.288322 0.960414 0.169816
H8    H     H_    0.729426 0.216206 0.941360 0.162348
H9    H     H_    0.624929 0.339641 0.004003 0.173498
H10   H     H_    0.627635 0.279531 0.924772 0.243891
H11   H     H_    0.639458 0.342163 0.885361 0.170348
H12   H     H_    0.660931 0.389017 0.951241 0.153548
H13   H     H_    0.779001 0.992915 0.436481 0.177550
H14   H     H_    0.261934 0.709266 0.036519 0.170028
H15   H     H_    0.256827 0.768764 0.117906 0.174590
H16   H     H_    0.270205 0.783072 0.058046 0.162071
H17   H     H_    0.370510 0.721894 0.077561 0.216217
H18   H     H_    0.376134 0.661168 0.997046 0.181625
H19   H     H_    0.339405 0.609954 0.047496 0.163631
H20   H     H_    0.359649 0.656958 0.114380 0.138410
H21   H     H_    0.588270 0.526405 0.205994 0.168844
H22   H     H_    0.632216 0.426808 0.149445 0.150529
H23   H     H_    0.671545 0.471912 0.159798 0.175484
H24   H     H_    0.891183 0.948784 0.433152 0.227733
H25   H     H_    0.645331 0.437834 0.059256 0.169514
H26   H     H_    0.602568 0.536593 0.115352 0.250814
H27   H     H_    0.504141 0.549189 0.148576 0.172298
H28   H     H_    0.545071 0.450592 0.101108 0.141598
H29   H     H_    0.369975 0.571802 0.848398 0.153991
H30   H     H_    0.412892 0.472131 0.793485 0.160986
H31   H     H_    0.329220 0.528471 0.839394 0.176068
H32   H     H_    0.396368 0.465551 0.885917 0.230245
H33   H     H_    0.354408 0.564326 0.940414 0.175964
H34   H     H_    0.455306 0.549998 0.899454 0.150259
H35   H     H_    0.838498 0.001335 0.512537 0.153049
H36   H     H_    0.495898 0.451545 0.851548 0.144335
H37   H     H_    0.517360 0.332695 0.825314 0.339055
H38   H     H_    0.424534 0.706357 0.161440 0.328229
H39   H     H_    0.838020 0.107314 0.547873 0.139630
H40   H     H_    0.866289 0.079770 0.468093 0.190734
H41   H     H_    0.243516 0.909166 0.525097 0.174044
H42   H     H_    0.237318 0.937848 0.471771 0.155498
H43   H     H_    0.228584 0.997703 0.554151 0.179386
H44   H     H_    0.122618 0.041815 0.538213 0.181893
H45   H     H_    0.503950 0.994138 0.167115 0.341590
H46   H     H_    0.129420 0.014510 0.592141 0.251854
H47   H     H_    0.141810 0.901630 0.514988 0.158426
H48   H     H_    0.161104 0.903167 0.448482 0.149608
H49   H     H_    0.000892 0.011775 0.335992 0.345314
H50   H     H_    0.035758 0.961900 0.632163 0.320054
H51   H     H_    0.848444 0.941226 0.569819 0.159094
H52   H     H_    0.904435 0.904743 0.605833 0.158436
H53   H     H_    0.829709 0.995334 0.655672 0.165549
H54   H     H_    0.918866 0.006135 0.644894 0.219867
H55   H     H_    0.864477 0.042300 0.608119 0.188888
H56   H     H_    0.989585 0.696752 0.997725 0.377230
H57   H     H_    0.944728 0.905032 0.500817 0.159122
H58   H     H_    0.998788 0.896365 0.545408 0.131652
H59   H     H_    0.083773 0.076951 0.368661 0.158357
H60   H     H_    0.122206 0.095322 0.428845 0.162698
H61   H     H_    0.168392 0.011940 0.348483 0.160074
H62   H     H_    0.146434 0.983915 0.422149 0.167844
H63   H     H_    0.107933 0.966075 0.362909 0.220800
H64   H     H_    0.004398 0.092611 0.443789 0.157512
H65   H     H_    0.043997 0.105769 0.502382 0.154752
H66   H     H_    0.020977 0.660754 0.699002 0.378656
H67   H     H_    0.956742 0.365726 0.029401 0.382634
H68   H     H_    0.008281 0.318908 0.334389 0.335862
H69   H     H_    0.194853 0.360757 0.539284 0.381753
H70   H     H_    0.804530 0.642748 0.463566 0.381728
H71   H     H_    0.914914 0.792721 0.624996 0.162860
H72   H     H_    0.867299 0.789176 0.572335 0.169825
H73   H     H_    0.831509 0.831520 0.655856 0.166844
H74   H     H_    0.853404 0.707144 0.588067 0.239501
H75   H     H_    0.900750 0.710595 0.640244 0.238848
H76   H     H_    0.994631 0.653023 0.549561 0.177710
H77   H     H_    0.947163 0.649043 0.497467 0.184630
H78   H     H_    0.865257 0.746608 0.122722 0.389105
H79   H     H_    0.123178 0.207397 0.421144 0.165831
H80   H     H_    0.084344 0.209873 0.362183 0.155502
H81   H     H_    0.169122 0.169096 0.342427 0.169492
H82   H     H_    0.108969 0.294054 0.364254 0.220081
H83   H     H_    0.148547 0.290519 0.421796 0.244890
H84   H     H_    0.049037 0.351514 0.502643 0.186099
H85   H     H_    0.006673 0.345622 0.445980 0.159062
H86   H     H_    0.301566 0.017643 0.975699 0.381143
H87   H     H_    0.666341 0.005866 0.990744 0.336346
H88   H     H_    0.582359 0.087922 0.876038 0.194698
H89   H     H_    0.160687 0.237651 0.826754 0.378165
H90   H     H_    0.641351 0.062806 0.914144 0.161044
H91   H     H_    0.659859 0.000157 0.829277 0.169755
H92   H     H_    0.635542 0.958305 0.889286 0.221084
H93   H     H_    0.578088 0.982131 0.850289 0.244848
H94   H     H_    0.498590 0.101023 0.950022 0.193592
H95   H     H_    0.555414 0.092031 0.992139 0.164399
H96   H     H_    0.386511 0.912102 0.095122 0.178720
H97   H     H_    0.428053 0.937050 0.150128 0.180499
H98   H     H_    0.342493 0.999806 0.172898 0.167357
H99   H     H_    0.398693 0.041634 0.142459 0.222000
H100  H     H_    0.173031 0.428368 0.838934 0.374489
H101  H     H_    0.356356 0.017944 0.088993 0.242596
H102  H     H_    0.454255 0.898988 0.006295 0.183367
H103  H     H_    0.500221 0.907952 0.059439 0.174983
H104  H     H_    0.402051 0.493579 0.691962 0.160334
H105  H     H_    0.347536 0.586102 0.711948 0.149646
H106  H     H_    0.326751 0.520789 0.677074 0.181177
H107  H     H_    0.362595 0.532725 0.595187 0.186394
H108  H     H_    0.415448 0.441058 0.576357 0.252819
H109  H     H_    0.497192 0.457411 0.605270 0.161216
H110  H     H_    0.444765 0.556377 0.650805 0.142312
H111  H     H_    0.829158 0.564730 0.158366 0.376759
H112  H     H_    0.627456 0.437678 0.278741 0.150674
H113  H     H_    0.586958 0.537189 0.330467 0.171770
H114  H     H_    0.671164 0.476041 0.315249 0.176963
H115  H     H_    0.607225 0.529671 0.423068 0.246867
H116  H     H_    0.647432 0.430983 0.371725 0.164442
H117  H     H_    0.545889 0.449667 0.348711 0.138433
H118  H     H_    0.505842 0.548075 0.400087 0.188859
H119  H     H_    0.310398 0.785268 0.660598 0.197434
H120  H     H_    0.255174 0.760272 0.660093 0.159142
H121  H     H_    0.282946 0.787981 0.727667 0.168740
H122  H     H_    0.752400 0.087809 0.492244 0.157642
H123  H     H_    0.338960 0.652854 0.660651 0.152265
H124  H     H_    0.393980 0.676190 0.658984 0.223513
H125  H     H_    0.368549 0.666728 0.553027 0.190884
H126  H     H_    0.338411 0.617305 0.555157 0.139509
H127  H     H_    0.737917 0.288799 0.325606 0.159842
H128  H     H_    0.743378 0.229693 0.348321 0.172788
H129  H     H_    0.729208 0.215132 0.274403 0.179359
H130  H     H_    0.629437 0.276876 0.356170 0.225553
H131  H     H_    0.623394 0.337218 0.335508 0.183631
H132  H     H_    0.661230 0.388607 0.436082 0.159460
O1    O     O_3   0.750050 0.500010 0.750000 -0.468715
O2    O     O_R   0.332180 0.543100 0.332140 -0.553147
O3    O     O_R   0.789210 0.543100 0.875260 -0.511824
O4    O     O_R   0.210790 0.456900 0.124740 -0.512572
O5    O     O_R   0.667790 0.543110 0.667830 -0.503602
O6    O     O_R   0.332210 0.456890 0.332170 -0.501836
O7    O     O_R   0.875320 0.456920 0.667760 -0.535967
O8    O     O_R   0.124680 0.543080 0.332240 -0.535856
O9    O     O_R   0.667890 0.456890 0.789150 -0.547552
O10   O     O_R   0.332110 0.543110 0.210850 -0.547707
O11   O     O_R   0.875360 0.335610 0.667790 -0.523715
O12   O     O_3   0.249950 0.499990 0.250000 -0.469317
O13   O     O_R   0.124640 0.664390 0.332210 -0.524599
O14   O     O_R   0.667870 0.664400 0.875290 -0.527401
O15   O     O_R   0.332130 0.335600 0.124710 -0.527299
O16   O     O_R   0.789160 0.335600 0.667830 -0.541318
O17   O     O_R   0.210840 0.664400 0.332170 -0.541017
O18   O     O_R   0.667820 0.664410 0.789090 -0.506724
O19   O     O_R   0.332180 0.335590 0.210910 -0.505262
O20   O     O_2   0.561631 0.878571 0.813349 -0.279995
O21   O     O_2   0.456582 0.906909 0.850612 -0.191487
O22   O     O_3   0.459928 0.006774 0.849499 -0.485156
O23   O     O_R   0.789090 0.543120 0.667780 -0.507354
O24   O     O_2   0.544474 0.091841 0.148772 -0.147226
O25   O     O_2   0.438922 0.122746 0.187214 -0.279827
O26   O     O_3   0.539595 0.993873 0.151411 -0.436406
O27   O     O_2   0.998164 0.574729 0.899095 -0.195151
O28   O     O_2   0.898643 0.668580 0.991189 -0.244276
O29   O     O_3   0.001751 0.661288 0.009154 -0.435832
O30   O     O_2   0.101853 0.328180 0.004304 -0.166539
O31   O     O_2   0.007233 0.423743 0.101122 -0.221852
O32   O     O_3   0.995333 0.341457 0.994720 -0.418057
O33   O     O_2   0.921641 0.649790 0.183924 -0.175739
O34   O     O_R   0.210910 0.456880 0.332220 -0.506761
O35   O     O_2   0.972098 0.684229 0.137681 -0.229656
O36   O     O_3   0.858971 0.716205 0.131722 -0.409774
O37   O     O_2   0.029825 0.313811 0.864608 -0.204569
O38   O     O_2   0.076330 0.350012 0.816169 -0.217768
O39   O     O_3   0.142141 0.285538 0.868848 -0.411604
O40   O     O_2   0.134490 0.521927 0.969927 -0.224386
O41   O     O_2   0.183464 0.390877 0.924192 -0.210317
O42   O     O_3   0.131101 0.440800 0.857388 -0.416829
O43   O     O_2   0.816711 0.613158 0.080879 -0.186332
O44   O     O_2   0.862347 0.481442 0.027600 -0.270812
O45   O     O_R   0.667910 0.543090 0.875320 -0.505315
O46   O     O_3   0.870993 0.552638 0.140129 -0.426930
O47   O     O_2   0.072822 0.883573 0.314782 -0.299092
O48   O     O_2   0.971809 0.899669 0.339827 -0.224516
O49   O     O_3   0.966987 0.007907 0.348632 -0.514130
O50   O     O_2   0.015781 0.117086 0.661581 -0.233390
O51   O     O_2   0.928139 0.110252 0.685880 -0.278603
O52   O     O_3   0.044709 0.999789 0.654096 -0.492503
O53   O     O_2   0.928584 0.634841 0.686320 -0.282109
O54   O     O_2   0.037052 0.529052 0.655939 -0.177718
O55   O     O_3   0.024762 0.635233 0.653077 -0.506356
O56   O     O_R   0.332090 0.456910 0.124680 -0.505433
O57   O     O_2   0.964321 0.472266 0.344197 -0.145993
O58   O     O_2   0.070970 0.364292 0.313225 -0.285266
O59   O     O_3   0.971904 0.368165 0.346649 -0.459072
O60   O     O_2   0.186276 0.373163 0.438659 -0.277374
O61   O     O_2   0.149008 0.486979 0.544076 -0.202288
O62   O     O_3   0.149818 0.382578 0.540257 -0.491476
O63   O     O_2   0.851232 0.513793 0.454251 -0.194677
O64   O     O_2   0.813652 0.625538 0.561400 -0.280339
O65   O     O_3   0.849604 0.620631 0.462493 -0.492922
O66   O     O_2   0.314092 0.121428 0.071459 -0.283178
O67   O     O_R   0.875390 0.456910 0.789050 -0.512883
O68   O     O_2   0.344183 0.093047 0.964685 -0.174130
O69   O     O_3   0.347419 0.993200 0.971930 -0.500100
O70   O     O_2   0.655222 0.908188 0.036374 -0.136304
O71   O     O_2   0.686543 0.877263 0.929111 -0.288981
O72   O     O_3   0.653460 0.006150 0.027568 -0.454001
O73   O     O_2   0.421738 0.394313 0.462376 -0.231511
O74   O     O_2   0.517601 0.317803 0.370979 -0.255386
O75   O     O_3   0.530731 0.312100 0.469776 -0.495009
O76   O     O_2   0.472069 0.690092 0.623708 -0.263168
O77   O     O_2   0.577050 0.607494 0.541662 -0.266645
O78   O     O_R   0.124610 0.543090 0.210950 -0.512303
O79   O     O_3   0.476581 0.675647 0.515147 -0.549670
O80   O     O_2   0.514929 0.322227 0.952618 -0.263480
O81   O     O_2   0.424969 0.389950 0.926275 -0.265521
O82   O     O_3   0.539856 0.306218 0.844803 -0.507563
O83   O     O_2   0.578395 0.605430 0.067498 -0.231151
O84   O     O_2   0.481746 0.682378 0.053790 -0.292339
O85   O     O_3   0.470107 0.686180 0.157436 -0.498476
O86   O     O_R   0.667820 0.456900 0.667860 -0.553876
S1    S     S_3+6 0.494740 0.938722 0.860536 0.065631
S2    S     S_3+6 0.995693 0.065746 0.643367 0.014091
S3    S     S_3+6 0.996391 0.584807 0.641958 0.065009
S4    S     S_3+6 0.003190 0.416001 0.358148 0.086374
S5    S     S_3+6 0.139055 0.426986 0.505597 0.061914
S6    S     S_3+6 0.860865 0.573653 0.494658 0.061603
S7    S     S_3+6 0.358314 0.061261 0.003256 0.067695
S8    S     S_3+6 0.641631 0.938806 0.996901 0.088131
S9    S     S_3+6 0.491353 0.364339 0.442941 0.024109
S10   S     S_3+6 0.507936 0.634771 0.552938 0.003155
S11   S     S_3+6 0.493153 0.363507 0.922088 0.008443
S12   S     S_3+6 0.505402 0.061208 0.139420 0.092809
S13   S     S_3+6 0.508845 0.634995 0.078439 0.011550
S14   S     S_3+6 0.970008 0.615029 0.970132 0.107745
S15   S     S_3+6 0.030593 0.384611 0.029690 0.141711
S16   S     S_3+6 0.930845 0.656390 0.129833 0.139277
S17   S     S_3+6 0.069387 0.343368 0.870693 0.132595
S18   S     S_3+6 0.128907 0.458427 0.930553 0.126896
S19   S     S_3+6 0.870777 0.541977 0.069578 0.105984
S20   S     S_3+6 0.004195 0.938703 0.358188 0.013926
Zn1   Zn    Zn3+2 0.719220 0.561590 0.719210 1.024517
Zn2   Zn    Zn3+2 0.280780 0.438410 0.280790 1.028027
Zn3   Zn    Zn3+2 0.842430 0.438430 0.719180 1.002237
Zn4   Zn    Zn3+2 0.157570 0.561570 0.280820 1.001871
Zn5   Zn    Zn3+2 0.719260 0.438420 0.719240 0.943765
Zn6   Zn    Zn3+2 0.280740 0.561580 0.280760 0.944237
Zn7   Zn    Zn3+2 0.719300 0.561580 0.842360 1.021989
Zn8   Zn    Zn3+2 0.280700 0.438420 0.157640 1.021624

loop_
_geom_bond_atom_site_label_1
_geom_bond_atom_site_label_2
_ccdc_geom_bond_type
C63   C65   S    
C19   C122  S    
O70   S8    D    
H86   O69   S    
C19   C20   S    
C34   H23   S    
C84   C86   S    
C14   H107  S    
C86   C88   S    
C57   C59   S    
C2    C41   S    
C58   C60   S    
C77   S20   S    
O46   S19   S    
C36   H36   S    
O18   Zn1   S    
C80   C86   S    
C25   H128  S    
C50   O6    A    
C22   H132  S    
C11   H96   S    
C132  H71   S    
C62   S16   S    
C2    C22   S    
O74   S9    D    
C51   C57   S    
H70   O65   S    
C92   C102  S    
C31   H15   S    
C101  C130  S    
C101  C103  S    
O24   S12   D    
C41   C43   S    
O13   Zn4   S    
C100  C115  T    
C42   C44   S    
C124  H58   S    
C13   C42   S    
C4    H82   S    
O1    Zn1   S    
C73   O7    A    
C93   C101  S    
O21   S1    D    
C74   O8    A    
C113  S1    S    
C30   H17   S    
C17   H116  S    
C91   S5    S    
C37   C38   S    
C74   C96   S    
C1    O3    A    
C23   H131  S    
C5    H81   S    
C6    H95   S    
C45   C68   S    
C92   C94   S    
O78   Zn4   S    
C43   C122  S    
O49   S20   S    
C8    H91   S    
C70   S18   S    
O52   S2    S    
C110  S7    S    
C63   C71   S    
C12   H110  S    
O33   S16   D    
C32   C47   S    
C78   C113  S    
C73   C95   S    
O17   Zn6   S    
C79   C85   S    
C123  H42   S    
C33   H26   S    
C20   H123  S    
O64   S6    D    
C34   H21   S    
C5    H80   S    
C80   C117  S    
O16   Zn5   S    
C126  H53   S    
O53   S3    D    
C106  O11   A    
C91   C103  S    
C4    C5    S    
C19   H125  S    
C6    C7    S    
C54   C61   T    
C40   C122  S    
C15   H105  S    
C22   H3    S    
C130  C131  S    
O45   Zn7   S    
C26   H12   S    
C117  H40   S    
O56   Zn8   S    
C27   H9    S    
H66   O55   S    
C121  C123  S    
O2    Zn6   S    
O9    Zn5   S    
C47   C59   S    
C1    O67   A    
C67   C112  S    
C48   C52   S    
C20   C21   S    
O11   Zn3   S    
H1    O22   S    
C24   C43   S    
O48   S20   D    
C22   C23   S    
C129  H60   S    
O80   S11   D    
C9    H103  S    
O1    Zn3   S    
C131  H75   S    
C128  C129  S    
O12   Zn4   S    
C7    C8    S    
C65   S15   S    
O43   S19   D    
O20   S1    D    
C108  C115  S    
C36   C37   S    
C120  H47   S    
C109  O19   A    
O6    Zn2   S    
C118  H35   S    
H111  O46   S    
C56   C78   S    
C92   S6    S    
C98   O56   A    
O50   S2    D    
O27   S14   D    
C98   O10   A    
C15   H104  S    
C35   C49   S    
C62   C64   S    
O71   S8    D    
C118  H24   S    
H4    O75   S    
C9    C10   S    
O19   Zn2   S    
C40   C42   S    
C132  H73   S    
C11   H97   S    
C126  H51   S    
O3    Zn7   S    
C28   H7    S    
C53   C60   T    
C33   C34   S    
O15   Zn8   S    
C59   C61   S    
C119  H2    S    
O83   S13   D    
C112  S8    S    
O29   S14   S    
C37   H33   S    
C7    H93   S    
C77   C84   S    
C89   C110  S    
C57   S11   S    
C29   C30   S    
C29   H19   S    
O86   Zn5   S    
O84   S13   D    
O42   S18   S    
C17   C18   S    
C103  C105  S    
C9    C56   S    
O30   S15   D    
O5    Zn1   S    
O66   S7    D    
C6    C67   S    
C37   H32   S    
O1    Zn5   S    
C74   O34   A    
C3    C4    S    
C119  H122  S    
O10   Zn6   S    
O12   Zn6   S    
C8    H90   S    
C120  C121  S    
C18   H112  S    
O68   S7    D    
H49   O49   S    
C38   H31   S    
O82   S11   S    
C123  H43   S    
C16   H117  S    
C49   O86   A    
C68   C76   T    
C65   C72   S    
C125  H55   S    
O60   S5    D    
C117  C118  S    
O85   S13   S    
C14   H108  S    
C18   H113  S    
C2    C42   S    
C82   C88   T    
C129  H59   S    
C36   C48   S    
C82   C106  S    
H78   O36   S    
C10   C11   S    
C21   H121  S    
C25   H127  S    
C3    C99   S    
O31   S15   D    
C12   C13   S    
C77   C87   S    
C14   C15   S    
C130  H77   S    
C91   C99   S    
C26   H11   S    
C55   S13   S    
O36   S16   S    
C96   C105  T    
C40   S10   S    
O69   S7    S    
O67   Zn3   S    
C128  H63   S    
C21   H120  S    
C13   C41   S    
O44   S19   D    
H5    O79   S    
C26   C27   S    
O75   S9    S    
C30   C31   S    
C30   H18   S    
C17   H115  S    
C64   C71   S    
C124  H57   S    
C109  C116  S    
C123  H41   S    
C87   C90   S    
C38   H29   S    
C16   C17   S    
O1    Zn7   S    
C111  C116  T    
O35   S16   D    
O12   Zn8   S    
C52   C55   S    
C32   H27   S    
H50   O52   S    
H69   O62   S    
H68   O59   S    
C127  H65   S    
O23   Zn1   S    
C109  O15   A    
C33   H25   S    
C20   H124  S    
C34   H22   S    
C5    H79   S    
C132  H72   S    
O26   S12   S    
C48   C57   S    
C28   H6    S    
C47   C51   S    
C3    H84   S    
O32   S15   S    
H89   O39   S    
C62   C69   S    
O72   S8    S    
C80   C85   S    
O8    Zn4   S    
C91   C93   S    
O54   S3    D    
C25   H129  S    
C117  H39   S    
C15   H106  S    
C130  H76   S    
C51   C58   S    
C69   S19   S    
C81   C87   S    
C92   C101  S    
C31   H16   S    
O34   Zn2   S    
O40   S18   D    
C94   C103  S    
C78   C100  S    
C125  C126  S    
C131  C132  S    
O12   Zn2   S    
O73   S9    D    
C77   C80   S    
C89   C114  S    
C9    H102  S    
O25   S12   D    
C93   C102  S    
O37   S17   D    
C48   C58   S    
O47   S20   D    
C119  H13   S    
C32   C33   S    
O58   S4    D    
C120  H48   S    
O55   S3    S    
C127  H64   S    
C7    H92   S    
C65   C69   S    
C66   C75   T    
C6    H94   S    
C10   H99   S    
C99   C102  S    
C12   H109  S    
C55   C58   S    
O81   S11   D    
C78   C112  S    
C26   C51   S    
C79   C86   S    
H87   O72   S    
O65   S6    S    
C50   O2    A    
C97   O45   A    
O28   S14   D    
C126  H52   S    
C28   H8    S    
C72   C76   S    
C19   H126  S    
C81   C120  S    
H45   O26   S    
C128  H62   S    
O57   S4    D    
O39   S17   S    
C121  H44   S    
C93   S3    S    
C67   C89   S    
C27   H10   S    
C85   C124  S    
C69   C71   S    
C118  C119  S    
O59   S4    S    
C31   H14   S    
C45   O4    A    
H100  O42   S    
C64   S14   S    
C64   C70   S    
H37   O82   S    
H56   O29   S    
C84   C127  S    
C45   O78   A    
C79   S2    S    
C16   C24   S    
C4    H83   S    
O38   S17   D    
C107  O17   A    
C108  O14   A    
C56   C110  S    
C85   C87   S    
C63   S17   S    
C79   C81   S    
C16   H118  S    
C23   H130  S    
C53   C97   S    
O7    Zn3   S    
C125  H54   S    
C10   H101  S    
O22   S1    S    
C8    H88   S    
C52   C59   S    
C73   O23   A    
C63   C70   S    
C3    H85   S    
C36   H34   S    
C1    C66   S    
C62   C72   S    
C102  C104  S    
C35   C44   T    
O77   S10   D    
C110  C113  S    
O41   S18   D    
C112  C114  S    
C12   C14   S    
C11   H98   S    
H67   O32   S    
C2    C24   S    
O76   S10   D    
C106  O16   A    
O51   S2    D    
C94   S4    S    
C107  O13   A    
O61   S5    D    
C81   C84   S    
C108  O18   A    
C95   C104  T    
O14   Zn7   S    
C47   C55   S    
C83   C90   T    
H38   O85   S    
C21   H119  S    
C129  H61   S    
C18   H114  S    
C121  H46   S    
O63   S6    D    
C89   C111  S    
C67   C113  S    
C29   H20   S    
C71   C75   S    
C13   C122  S    
C94   C99   S    
C24   C40   S    
C83   C107  S    
C39   C46   T    
C23   C25   S    
O62   S5    S    
C43   C46   S    
O79   S10   S    
C41   S9    S    
C38   H30   S    
C39   C50   S    
O4    Zn8   S    
C114  S12   S    
C27   C28   S    
C56   C114  S    
C54   C98   S    
C70   C72   S    
C131  H74   S    
C97   O9    A    
C127  C128  S    
C124  C125  S    
C32   H28   S    
C29   C52   S    
C49   O5    A    
