data_mof_unit_4000.cif
_audit_creation_date              2012-10-26T19:55:48-0400
_audit_creation_method            fapswitch 2.2
_symmetry_space_group_name_H-M    P1
_symmetry_Int_Tables_number       1
_space_group_crystal_system       triclinic
_cell_length_a                    10.863457
_cell_length_b                    10.870834
_cell_length_c                    9.578473
_cell_angle_alpha                 89.502442
_cell_angle_beta                  91.143439
_cell_angle_gamma                 92.563289
_cell_volume                      1129.77700111

loop_
_atom_site_label
_atom_site_type_symbol
_atom_type_description
_atom_site_fract_x
_atom_site_fract_y
_atom_site_fract_z
_atom_type_partial_charge
C1    C     C_R   0.507627 0.262602 0.501822 0.559523
C2    C     C_R   0.839597 0.410271 0.991192 -0.109377
C3    C     C_R   0.812187 0.283794 0.998207 -0.123595
C4    C     C_R   0.262446 0.502112 0.498276 0.567513
C5    C     C_R   0.821794 0.211533 0.879351 -0.134169
C6    C     C_R   0.855920 0.265918 0.751705 0.022531
C7    C     C_R   0.884338 0.393774 0.744610 0.039364
C8    C     C_R   0.542887 0.115029 0.768122 -0.081954
C9    C     C_R   0.516767 0.052904 0.892463 -0.124770
C10   C     C_R   0.459583 0.936608 0.888681 -0.113196
C11   C     C_R   0.439656 0.878115 0.761108 -0.071039
C12   C     C_R   0.148439 0.689339 0.979112 0.006678
C13   C     C_R   0.477616 0.935078 0.633946 0.032394
C14   C     C_R   0.512409 0.061440 0.636491 0.040364
C15   C     C_R   0.514504 0.128193 0.507623 0.008252
C16   C     C_R   0.491562 0.737144 0.500483 0.539609
C17   C     C_R   0.508244 0.064426 0.381086 -0.150157
C18   C     C_R   0.497891 0.937382 0.380064 -0.157867
C19   C     C_R   0.483529 0.871177 0.504949 0.000895
C20   C     C_R   0.658853 0.668867 0.145700 -0.105251
C21   C     C_R   0.735568 0.752044 0.074149 -0.186059
C22   C     C_R   0.735940 0.751515 0.930365 -0.173110
C23   C     C_R   0.932452 0.546657 0.388290 -0.146964
C24   C     C_R   0.659931 0.667459 0.857378 -0.087613
C25   C     C_R   0.577865 0.583117 0.925892 0.141712
C26   C     C_R   0.577557 0.583419 0.075562 0.150437
C27   C     C_R   0.427121 0.420116 0.073994 -0.012181
C28   C     C_R   0.737499 0.497749 0.501745 0.538759
C29   C     C_R   0.426660 0.419861 0.926171 0.072881
C30   C     C_R   0.136149 0.770907 0.089846 -0.128297
C31   C     C_R   0.118500 0.725259 0.225357 -0.108776
C32   C     C_R   0.113601 0.597785 0.250883 0.053449
C33   C     C_R   0.131849 0.516922 0.140721 -0.088988
C34   C     C_R   0.871369 0.498051 0.504702 0.008115
C35   C     C_R   0.150045 0.562694 0.005710 -0.123805
C36   C     C_1   0.148561 0.734193 0.837288 0.166632
C37   C     C_1   0.862907 0.189192 0.630154 0.187612
C38   C     C_1   0.345997 0.331072 0.855682 0.213018
C39   C     C_R   0.939774 0.451382 0.618676 -0.024392
C40   C     C_R   0.067311 0.454832 0.612480 -0.126019
C41   C     C_R   0.128522 0.502523 0.495562 0.014362
C42   C     C_R   0.059992 0.548698 0.381397 -0.023290
C43   C     C_R   0.876926 0.464776 0.865499 -0.095186
Cu1   Cu    Cu3+1 0.499990 0.499990 0.640660 0.944542
Cu2   Cu    Cu3+1 0.500010 0.500010 0.359340 0.930927
H1    H     H_    0.784323 0.241558 0.096028 0.127326
H2    H     H_    0.134292 0.869149 0.070469 0.119286
H3    H     H_    0.669004 0.674742 0.255765 0.184662
H4    H     H_    0.796621 0.816124 0.131060 0.127746
H5    H     H_    0.797416 0.815021 0.874735 0.134146
H6    H     H_    0.671745 0.671004 0.747765 0.189602
H7    H     H_    0.101228 0.788612 0.308667 0.128399
H8    H     H_    0.124677 0.418250 0.157870 0.116157
H9    H     H_    0.158651 0.498862 0.921063 0.113341
H10   H     H_    0.880527 0.583754 0.301030 0.120908
H11   H     H_    0.118924 0.416792 0.699012 0.148269
H12   H     H_    0.801414 0.113211 0.886611 0.114761
H13   H     H_    0.902457 0.562133 0.862700 0.126469
H14   H     H_    0.833936 0.465819 0.083737 0.129159
H15   H     H_    0.512437 0.112743 0.281764 0.130673
H16   H     H_    0.590333 0.203425 0.778653 0.154375
H17   H     H_    0.538408 0.096481 0.991728 0.102671
H18   H     H_    0.433244 0.890240 0.984792 0.116777
H19   H     H_    0.391773 0.789416 0.765052 0.171323
H20   H     H_    0.500572 0.891011 0.280547 0.136292
H21   H     H_    0.367596 0.355115 0.130118 0.115966
N1    N     N_R   0.501190 0.501210 0.147910 -0.249882
N2    N     N_R   0.501230 0.501290 0.852040 -0.261113
N3    N     N_1   0.147246 0.769840 0.723078 -0.311889
N4    N     N_1   0.868244 0.127740 0.532605 -0.307677
N5    N     N_1   0.280909 0.258872 0.800315 -0.307603
O1    O     O_R   0.499990 0.319640 0.618810 -0.500780
O2    O     O_R   0.500000 0.319660 0.381240 -0.508546
O3    O     O_R   0.319640 0.500000 0.618780 -0.495782
O4    O     O_R   0.319650 0.500020 0.381210 -0.493885
O5    O     O_R   0.500000 0.680340 0.618760 -0.541428
O6    O     O_R   0.500010 0.680360 0.381190 -0.522517
O7    O     O_R   0.680350 0.499980 0.618790 -0.520646
O8    O     O_R   0.680360 0.500000 0.381220 -0.530074

loop_
_geom_bond_atom_site_label_1
_geom_bond_atom_site_label_2
_ccdc_geom_bond_type
C27   C29   A    
C41   C42   A    
C10   H18   S    
C31   H7    S    
C21   H4    S    
Cu1   Cu2   S    
C18   H20   S    
C23   C42   A    
C26   N1    A    
C7    C39   S    
C18   C19   A    
C30   C31   A    
C4    C41   S    
Cu2   O2    S    
C16   O6    A    
Cu1   O5    S    
C28   O8    A    
C4    O4    A    
C43   H13   S    
C8    C9    A    
C40   H11   S    
C29   C38   S    
Cu2   N1    S    
C1    C15   S    
C7    C43   A    
C12   C36   S    
C28   O7    A    
C9    C10   A    
C4    O3    A    
C8    H16   S    
C22   H5    S    
C24   H6    S    
C28   C34   S    
C13   C14   A    
C35   H9    S    
C25   N2    A    
C33   H8    S    
C1    O1    A    
C13   C19   A    
C9    H17   S    
C30   H2    S    
C24   C25   A    
C11   H19   S    
C39   C40   A    
C2    H14   S    
C25   C26   A    
C34   C39   A    
C29   N2    A    
C31   C32   A    
C2    C43   A    
C23   C34   A    
C17   C18   A    
C6    C37   S    
Cu2   O8    S    
C12   C35   A    
Cu1   O3    S    
C20   H3    S    
C40   C41   A    
C22   C24   A    
Cu1   N2    S    
C36   N3    T    
C15   C17   A    
C38   N5    T    
C8    C14   A    
C12   C30   A    
C16   O5    A    
C3    C5    A    
C23   H10   S    
C6    C7    A    
C3    H1    S    
C5    H12   S    
Cu2   O4    S    
C1    O2    A    
C32   C33   A    
Cu1   O7    S    
C2    C3    A    
C27   H21   S    
C11   C13   A    
C5    C6    A    
C20   C26   A    
C16   C19   S    
C33   C35   A    
Cu1   O1    S    
C27   N1    A    
C10   C11   A    
C17   H15   S    
C20   C21   A    
C32   C42   S    
C14   C15   A    
Cu2   O6    S    
C21   C22   A    
C37   N4    T    
