data_mof_unit_1982.cif
_audit_creation_date              2013-03-05T16:07:35-0500
_audit_creation_method            fapswitch 2.2
_symmetry_space_group_name_H-M    P1
_symmetry_Int_Tables_number       1
_space_group_crystal_system       triclinic
_cell_length_a                    21.645887
_cell_length_b                    7.067921
_cell_length_c                    14.82928
_cell_angle_alpha                 89.722375
_cell_angle_beta                  106.126207
_cell_angle_gamma                 89.894385
_cell_volume                      2179.44459865

loop_
_atom_site_label
_atom_site_type_symbol
_atom_site_description
_atom_site_fract_x
_atom_site_fract_y
_atom_site_fract_z
_atom_type_partial_charge
O1    O     O_R   0.585850 0.505770 0.002130 -0.589793
O2    O     O_R   0.414150 0.005770 0.997870 -0.594525
O3    O     O_R   0.467530 0.173560 0.861970 -0.592476
O4    O     O_R   0.532470 0.673560 0.138030 -0.584519
C1    C     C_R   0.455507 0.345268 0.825261 0.922902
C2    C     C_R   0.544663 0.843801 0.174790 0.919799
O5    O     O_R   0.588690 0.175900 0.993250 -0.603705
O6    O     O_R   0.411310 0.675900 0.006750 -0.596667
O7    O     O_R   0.536170 0.007950 0.130090 -0.590043
O8    O     O_R   0.463830 0.507950 0.869910 -0.581127
C3    C     C_R   0.615090 0.344535 0.997802 0.937657
C4    C     C_R   0.384861 0.844769 0.001915 0.942673
O9    O     O_3   0.482630 0.339970 0.044740 -0.282322
O10   O     O_3   0.517370 0.839970 0.955260 -0.282728
V1    V     V_3+5 0.503220 0.064200 0.991700 1.160407
V2    V     V_3+5 0.496780 0.564200 0.008300 1.171029
C5    C     C_R   0.276884 0.007765 0.957481 0.201204
C6    C     C_R   0.707539 0.510574 0.958841 0.154521
C7    C     C_R   0.315544 0.852816 0.997470 -0.239576
C8    C     C_R   0.683020 0.352699 0.994781 -0.214358
C9    C     C_R   0.285070 0.700356 0.029102 -0.145362
C10   C     C_R   0.725347 0.199449 0.026355 -0.140506
H1    H     H_    0.312486 0.576453 0.059424 0.139521
H2    H     H_    0.708779 0.074578 0.054750 0.151941
C11   C     C_R   0.219830 0.711526 0.027940 -0.155706
C12   C     C_R   0.790708 0.211360 0.028091 -0.096727
H3    H     H_    0.199119 0.595271 0.057148 0.131387
H4    H     H_    0.822324 0.094056 0.056734 0.152092
C13   C     C_R   0.183056 0.875798 0.995373 -0.239078
C14   C     C_R   0.815856 0.377456 0.998872 -0.195521
C15   C     C_R   0.212460 0.019176 0.956647 0.291345
C16   C     C_R   0.772168 0.522604 0.960755 0.135355
C17   C     C_3   0.216975 0.225974 0.976389 -0.479969
C18   C     C_3   0.774957 0.727704 0.984078 -0.460788
C19   C     C_3   0.287193 0.213658 0.976911 -0.480018
C20   C     C_3   0.704455 0.714666 0.981758 -0.438541
H5    H     H_    0.210336 0.259375 0.046292 0.168007
H6    H     H_    0.783353 0.816863 0.926671 0.171692
H7    H     H_    0.187083 0.310962 0.916817 0.245490
H8    H     H_    0.807202 0.756465 0.055271 0.230491
H9    H     H_    0.321256 0.240486 0.046984 0.184284
H10   H     H_    0.672169 0.796170 0.922952 0.181442
H11   H     H_    0.297763 0.291073 0.917479 0.237047
H12   H     H_    0.695864 0.736329 0.051539 0.220052
C21   C     C_R   0.929854 0.884399 0.722366 -0.263605
C22   C     C_R   0.070021 0.381176 0.277558 -0.264194
C23   C     C_R   0.573301 0.848003 0.276360 -0.128625
C24   C     C_R   0.427097 0.359499 0.723879 -0.132266
C25   C     C_R   0.941396 0.850817 0.565596 -0.190449
C26   C     C_R   0.059108 0.332923 0.433963 -0.193196
C27   C     C_R   0.969978 0.870501 0.662136 0.330658
C28   C     C_R   0.030350 0.349036 0.337206 0.333027
C29   C     C_R   0.862880 0.879855 0.685554 -0.255695
C30   C     C_R   0.136725 0.395935 0.315004 -0.256137
C31   C     C_R   0.833545 0.857452 0.588298 0.127378
C32   C     C_R   0.166210 0.382650 0.412766 0.129356
C33   C     C_R   0.874318 0.844792 0.528675 0.002921
C34   C     C_R   0.125870 0.350280 0.471736 0.001540
C35   C     C_R   0.765328 0.846613 0.548513 0.017643
C36   C     C_R   0.234171 0.399675 0.453654 0.017823
C37   C     C_R   0.738957 0.837249 0.448610 -0.180820
C38   C     C_R   0.260889 0.375260 0.553005 -0.182271
C39   C     C_R   0.782162 0.814805 0.392693 0.730511
C40   C     C_R   0.217689 0.355743 0.609234 0.733079
C41   C     C_R   0.848216 0.821223 0.432483 -0.237071
C42   C     C_R   0.151942 0.340099 0.568591 -0.238090
C43   C     C_R   0.722784 0.838012 0.605557 -0.139510
C44   C     C_R   0.276021 0.445822 0.398698 -0.139880
C45   C     C_R   0.656848 0.824038 0.566936 -0.241134
C46   C     C_R   0.341608 0.465359 0.438427 -0.241386
C47   C     C_R   0.630150 0.826896 0.470111 0.187258
C48   C     C_R   0.368837 0.432722 0.533751 0.187650
C49   C     C_R   0.670447 0.841552 0.409405 0.150077
C50   C     C_R   0.329462 0.379991 0.592031 0.149822
C51   C     C_R   0.563061 0.815456 0.433478 -0.184285
C52   C     C_R   0.435563 0.453329 0.571315 -0.183527
C53   C     C_R   0.534966 0.821233 0.336950 -0.166030
C54   C     C_R   0.464213 0.421949 0.666428 -0.163533
C55   C     C_R   0.640058 0.863585 0.312192 -0.172994
C56   C     C_R   0.360927 0.332324 0.686578 -0.180569
H13   H     H_    0.879475 0.803695 0.387217 0.199322
H14   H     H_    0.120775 0.323736 0.614111 0.199125
H15   H     H_    0.666396 0.896661 0.262375 0.185690
H16   H     H_    0.336027 0.272434 0.733343 0.188188
H17   H     H_    0.483307 0.807084 0.309514 0.104494
H18   H     H_    0.515336 0.445731 0.695239 0.105999
H19   H     H_    0.626307 0.813321 0.613628 0.126917
H20   H     H_    0.371494 0.505023 0.393613 0.125913
H21   H     H_    0.971758 0.840752 0.518660 0.171996
H22   H     H_    0.029028 0.309613 0.480489 0.170233
H23   H     H_    0.835174 0.895161 0.735264 0.105958
H24   H     H_    0.164132 0.414370 0.265094 0.103165
H25   H     H_    0.738904 0.834678 0.681047 0.116636
H26   H     H_    0.259598 0.474013 0.324495 0.115777
H27   H     H_    0.532335 0.800112 0.479639 0.117902
H28   H     H_    0.465457 0.497322 0.527281 0.118370
O11   O     O_R   0.036080 0.231270 0.130120 -0.601495
O12   O     O_R   0.963920 0.731270 0.869880 -0.601499
O13   O     O_R   0.911300 0.558970 0.006750 -0.587713
O14   O     O_R   0.088700 0.058970 0.993250 -0.590543
C57   C     C_R   0.884842 0.390046 0.001808 0.995432
C58   C     C_R   0.115213 0.889758 0.998389 0.992964
O15   O     O_R   0.032450 0.561140 0.138040 -0.582418
O16   O     O_R   0.967550 0.061140 0.861960 -0.577080
O17   O     O_R   0.085870 0.728910 0.002130 -0.601255
O18   O     O_R   0.914130 0.228910 0.997870 -0.609790
C59   C     C_R   0.044011 0.391777 0.175267 1.027912
C60   C     C_R   0.955970 0.892802 0.824678 1.029189
O19   O     O_3   0.017320 0.394650 0.955270 -0.279749
O20   O     O_3   0.982680 0.894650 0.044730 -0.283901
V3    V     V_3+5 0.996780 0.670490 0.008300 1.203989
V4    V     V_3+5 0.003220 0.170490 0.991700 1.205156
N1    N     N_R   0.039147 0.874295 0.697050 0.225173
O21   O     O_R   0.067482 0.970148 0.771685 -0.430745
O22   O     O_R   0.074421 0.796180 0.649200 -0.394956
N2    N     N_R   0.961480 0.332262 0.301524 0.227698
O23   O     O_R   0.930020 0.423905 0.226486 -0.426412
O24   O     O_R   0.929051 0.239326 0.349108 -0.400378
F1    F     F_    0.762509 0.768322 0.300606 -0.710202
F2    F     F_    0.236487 0.367946 0.704082 -0.714824

loop_
_geom_bond_atom_site_label_1
_geom_bond_atom_site_label_2
_geom_bond_distance
_ccdc_geom_bond_type
C47   C51   1.404690 A    
C39   C41   1.387944 A    
C31   C35   1.432209 A    
C20   H10   1.111679 S    
O1    C3    1.313015 A    
C23   C55   1.398981 A    
C56   H16   1.075303 S    
C46   H20   1.084619 S    
C2    O7    1.320342 A    
C51   H27   1.084057 S    
O18   V4    1.998292 S    
O5    C3    1.316661 A    
C27   N1    1.442254 S    
C18   H8    1.111912 S    
O15   V3    2.013270 S    
C7    C9    1.409232 A    
C52   C54   1.390579 A    
N1    O21   1.300707 A    
O19   V3    2.196129 S    
C17   C19   1.520140 S    
C21   C27   1.411815 A    
C22   C28   1.411420 A    
C25   C33   1.403081 A    
N2    O23   1.300744 A    
C14   C57   1.484594 S    
C58   O17   1.311707 A    
C36   C38   1.434829 A    
C24   C54   1.394281 A    
C45   C47   1.390949 A    
O20   V3    1.730103 S    
C38   C40   1.421704 A    
C35   C43   1.414148 A    
C34   C42   1.391105 A    
N2    O24   1.301744 A    
C25   C27   1.400667 A    
C29   H23   1.077430 S    
C26   C28   1.400441 A    
C15   C17   1.490103 S    
C14   C16   1.400047 A    
C19   H11   1.111873 S    
C18   C20   1.519843 S    
C45   H19   1.084526 S    
C21   C60   1.466144 S    
C48   C52   1.404378 A    
C54   H18   1.083567 S    
C29   C31   1.414986 A    
O17   V3    1.999577 S    
C53   H17   1.083519 S    
O6    V2    2.004347 S    
C50   C56   1.416774 A    
C26   H22   1.084403 S    
O20   V4    2.190813 S    
C28   N2    1.442027 S    
C11   C13   1.411563 A    
C1    C24   1.460581 S    
C30   C32   1.415049 A    
C3    C8    1.484702 S    
C35   C37   1.433986 A    
C2    C23   1.461384 S    
C26   C34   1.403160 A    
C48   C50   1.421076 A    
O19   V4    1.726335 S    
C25   H21   1.084377 S    
O16   V4    2.021505 S    
O11   V4    2.025471 S    
C37   C49   1.434870 A    
C17   H5    1.111721 S    
C32   C36   1.432493 A    
C43   C45   1.386269 A    
C40   C42   1.387649 A    
O4    V2    2.021458 S    
C30   H24   1.077036 S    
C42   H14   1.084760 S    
C39   F1    1.354943 S    
C41   H13   1.084702 S    
O6    C4    1.315802 A    
O13   V3    2.006816 S    
C22   C59   1.465573 S    
C22   C30   1.399902 A    
O14   C58   1.318258 A    
C49   C55   1.416266 A    
O1    V2    1.997883 S    
C17   H7    1.111668 S    
O2    V1    1.999169 S    
C51   C53   1.391507 A    
O4    C2    1.319937 A    
O13   C57   1.318683 A    
C8    C10   1.408904 A    
C12   C14   1.410913 A    
C31   C33   1.415145 A    
C5    C15   1.393313 A    
C10   H2    1.079954 S    
C20   H12   1.112271 S    
C6    C16   1.394088 A    
C23   C53   1.394550 A    
O16   C60   1.309430 A    
O3    V1    2.013222 S    
C47   C49   1.420426 A    
O2    C4    1.312852 A    
C57   O18   1.311855 A    
C9    C11   1.409556 A    
O12   V3    2.020691 S    
C18   H6    1.111782 S    
O12   C60   1.307735 A    
C37   C39   1.420870 A    
C33   C41   1.391650 A    
O3    C1    1.323129 A    
C46   C48   1.390087 A    
O14   V4    2.004047 S    
C11   H3    1.081455 S    
C12   H4    1.081279 S    
C40   F2    1.354509 S    
C24   C56   1.398667 A    
C9    H1    1.080421 S    
O7    V1    2.014033 S    
C1    O8    1.317126 A    
C13   C15   1.400579 A    
O8    V2    2.018474 S    
C52   H28   1.084111 S    
C55   H15   1.076206 S    
C4    C7    1.484433 S    
O5    V1    2.007120 S    
C5    C7    1.402145 A    
C32   C34   1.415103 A    
C13   C58   1.484695 S    
C6    C8    1.401570 A    
C19   H9    1.111839 S    
C44   H26   1.075734 S    
C21   C29   1.400511 A    
O11   C59   1.307251 A    
C36   C44   1.414148 A    
C44   C46   1.385129 A    
C10   C12   1.410552 A    
O9    V2    1.727128 S    
C43   H25   1.076208 S    
O10   V1    1.730893 S    
C38   C50   1.436121 A    
O15   C59   1.309979 A    
C5    C19   1.489989 S    
C6    C20   1.489220 S    
C16   C18   1.489386 S    
N1    O22   1.301743 A    
