data_mof_unit_1566.cif
_audit_creation_date              2012-12-10T20:45:27-0500
_audit_creation_method            fapswitch 2.2
_symmetry_space_group_name_H-M    P1
_symmetry_Int_Tables_number       1
_space_group_crystal_system       triclinic
_cell_length_a                    10.791334
_cell_length_b                    10.651894
_cell_length_c                    9.89783
_cell_angle_alpha                 90.442309
_cell_angle_beta                  92.19237
_cell_angle_gamma                 89.56387
_cell_volume                      1136.84005303

loop_
_atom_site_label
_atom_site_type_symbol
_atom_type_description
_atom_site_fract_x
_atom_site_fract_y
_atom_site_fract_z
_atom_type_partial_charge
C1    C     C_R   0.502145 0.260441 0.499890 0.975438
C2    C     C_R   0.151047 0.578263 0.969675 -0.252158
C3    C     C_R   0.928884 0.556791 0.393668 0.584453
C4    C     C_R   0.872335 0.508318 0.507128 -0.207926
C5    C     C_R   0.943951 0.458703 0.616191 -0.073215
C6    C     C_R   0.070638 0.457244 0.607972 -0.176939
C7    C     C_R   0.126903 0.499158 0.492728 -0.133373
C8    C     C_R   0.055410 0.544754 0.381482 -0.056968
C9    C     C_R   0.873979 0.481243 0.851992 -0.100248
C10   C     C_R   0.851737 0.427790 0.977176 -0.161646
C11   C     C_R   0.849020 0.297317 0.990448 -0.104111
C12   C     C_R   0.259886 0.499448 0.497172 0.969280
C13   C     C_R   0.866058 0.220025 0.877797 -0.087026
C14   C     C_R   0.888701 0.273109 0.752452 -0.101173
C15   C     C_R   0.893959 0.404077 0.739280 0.158001
C16   C     C_R   0.445595 0.065074 0.599440 -0.160224
C17   C     C_R   0.509562 0.128534 0.502121 -0.156136
C18   C     C_R   0.589891 0.063160 0.417977 0.600377
C19   C     C_R   0.588419 0.932954 0.417225 -0.235350
C20   C     C_R   0.509820 0.871081 0.503758 -0.185143
C21   C     C_R   0.447091 0.937505 0.601372 -0.010169
C22   C     C_3   0.316855 0.930371 0.647055 0.779567
C23   C     C_R   0.501768 0.739477 0.500573 0.951903
C24   C     C_3   0.314140 0.073973 0.642708 0.031881
C25   C     C_R   0.556329 0.406075 0.072397 0.207393
C26   C     C_R   0.452292 0.599129 0.070775 -0.086757
C27   C     C_R   0.452370 0.599130 0.927011 -0.090196
C28   C     C_R   0.556722 0.406426 0.930332 0.218104
C29   C     C_3   0.529124 0.269999 0.920840 -0.473792
C30   C     C_3   0.527018 0.269445 0.074031 -0.426700
C31   C     C_R   0.739880 0.502110 0.502647 0.925320
C32   C     C_R   0.117451 0.685782 0.042333 0.275143
C33   C     C_R   0.094774 0.677458 0.180078 -0.101862
C34   C     C_R   0.103477 0.561060 0.245173 0.060724
C35   C     C_R   0.136097 0.453707 0.171593 -0.145552
C36   C     C_R   0.160483 0.462187 0.034867 0.260825
H1    H     H_    0.166940 0.584592 0.862731 0.203149
H2    H     H_    0.833296 0.256213 0.087893 0.181117
H3    H     H_    0.863843 0.118995 0.888135 0.180401
H4    H     H_    0.906892 0.212398 0.667057 0.179777
H5    H     H_    0.645998 0.881075 0.348554 0.204126
H6    H     H_    0.307405 0.117357 0.744351 0.197900
H7    H     H_    0.411664 0.677634 0.123547 0.174511
H8    H     H_    0.411918 0.677543 0.872150 0.221470
H9    H     H_    0.438245 0.250723 0.870038 0.255305
H10   H     H_    0.607019 0.214704 0.880075 0.206181
H11   H     H_    0.434024 0.250196 0.113465 0.254113
H12   H     H_    0.604010 0.213074 0.120040 0.255667
H13   H     H_    0.064692 0.760032 0.234692 0.216451
H14   H     H_    0.137870 0.362574 0.219597 0.196263
H15   H     H_    0.125887 0.418714 0.691063 0.222007
H16   H     H_    0.880718 0.582311 0.844086 0.164839
H17   H     H_    0.838349 0.487460 0.064299 0.209870
N1    N     N_R   0.499160 0.499140 0.142800 -0.112146
N2    N     N_R   0.499160 0.499180 0.857150 -0.113612
O1    O     O_R   0.500020 0.316790 0.614690 -0.632549
O2    O     O_R   0.500000 0.316760 0.385350 -0.592410
O3    O     O_R   0.316770 0.500030 0.614670 -0.607464
O4    O     O_R   0.316750 0.499990 0.385330 -0.624399
O5    O     O_R   0.500000 0.683240 0.614650 -0.607309
O6    O     O_R   0.499980 0.683210 0.385310 -0.619170
O7    O     O_R   0.683250 0.500010 0.614670 -0.639103
O8    O     O_R   0.683230 0.499970 0.385330 -0.552043
Zn1   Zn    Zn3+2 0.500010 0.500020 0.653130 0.985987
Zn2   Zn    Zn3+2 0.499990 0.499980 0.346870 1.013685
F1    F     F_    0.668034 0.124422 0.337550 -0.687571
Br1   Br    Br    0.202414 0.839980 0.524485 -0.459710
F2    F     F_    0.315414 0.885840 0.777660 -0.642816
Br2   Br    Br    0.201949 0.150792 0.507033 -0.483492
Br3   Br    Br    0.091440 0.841998 0.952203 -0.380699
Br4   Br    Br    0.194970 0.311818 0.937801 -0.560517
F3    F     F_    0.860245 0.610499 0.290914 -0.679556

loop_
_geom_bond_atom_site_label_1
_geom_bond_atom_site_label_2
_ccdc_geom_bond_type
C26   H7    S    
C11   H2    S    
C32   Br3   S    
O1    Zn1   S    
C16   C21   A    
C1    O2    A    
C6    H15   S    
C18   F1    S    
C24   H6    S    
C9    C10   A    
C1    C17   S    
C19   C20   A    
C2    H1    S    
C20   C23   S    
C29   H10   S    
O5    Zn1   S    
C12   O3    A    
N2    Zn1   S    
C35   H14   S    
O8    Zn2   S    
C17   C18   A    
C9    C15   A    
C7    C8    A    
C16   C24   S    
N1    Zn2   S    
C8    C34   S    
C21   C22   S    
O4    Zn2   S    
C25   C28   A    
C23   O5    A    
C11   C13   A    
C31   O7    A    
C22   F2    S    
C26   C27   A    
C29   C30   S    
C9    H16   S    
C25   N1    A    
C5    C6    A    
C26   N1    A    
C30   H12   S    
C28   C29   S    
C28   N2    A    
C24   Br2   S    
C33   C34   A    
C6    C7    A    
C27   N2    A    
O6    Zn2   S    
O3    Zn1   S    
C7    C12   S    
C22   C24   S    
C22   Br1   S    
C5    C15   S    
C4    C31   S    
C13   H3    S    
C10   C11   A    
C14   H4    S    
C3    C4    A    
C16   C17   A    
C31   O8    A    
C30   H11   S    
C23   O6    A    
C3    F3    S    
C20   C21   A    
C3    C8    A    
C36   Br4   S    
C2    C32   A    
C34   C35   A    
C2    C36   A    
C25   C30   S    
C10   H17   S    
C14   C15   A    
C18   C19   A    
O7    Zn1   S    
C13   C14   A    
C12   O4    A    
C33   H13   S    
C27   H8    S    
C1    O1    A    
C19   H5    S    
C32   C33   A    
C29   H9    S    
C4    C5    A    
O2    Zn2   S    
C35   C36   A    
