data_mof_unit_1994.cif
_audit_creation_date              2012-12-11T14:28:24-0500
_audit_creation_method            fapswitch 2.2
_symmetry_space_group_name_H-M    P1
_symmetry_Int_Tables_number       1
_space_group_crystal_system       triclinic
_cell_length_a                    10.875851
_cell_length_b                    19.321064
_cell_length_c                    18.804246
_cell_angle_alpha                 90.086093
_cell_angle_beta                  90.089766
_cell_angle_gamma                 90.006518
_cell_volume                      3951.38353648

loop_
_atom_site_label
_atom_site_type_symbol
_atom_type_description
_atom_site_fract_x
_atom_site_fract_y
_atom_site_fract_z
_atom_type_partial_charge
C1    C     C_R   0.318792 0.964112 0.644433 0.542880
C2    C     C_3   0.176199 0.705686 0.027407 -0.115958
C3    C     C_3   0.019071 0.199333 0.977098 0.250322
C4    C     C_3   0.596804 0.306343 0.470035 0.221789
C5    C     C_3   0.589298 0.306881 0.032771 0.225735
C6    C     C_3   0.495751 0.711287 0.519414 0.244773
C7    C     C_3   0.519071 0.699333 0.977098 0.250322
C8    C     C_3   0.190446 0.767225 0.515412 -0.098580
C9    C     C_3   0.195295 0.775955 0.989392 -0.110263
C10   C     C_3   0.129406 0.206055 0.494732 -0.141072
C11   C     C_3   0.148291 0.189509 0.008052 -0.133894
C12   C     C_3   0.690446 0.267225 0.515412 -0.098581
C13   C     C_3   0.160390 0.271737 0.537642 -0.140573
C14   C     C_3   0.695295 0.275955 0.989392 -0.110263
C15   C     C_3   0.629406 0.706055 0.494732 -0.141072
C16   C     C_3   0.648291 0.689509 0.008052 -0.133894
C17   C     C_3   0.088568 0.752666 0.570057 0.010248
C18   C     C_3   0.099952 0.753537 0.932715 0.012702
C19   C     C_3   0.094262 0.251947 0.430939 0.020372
C20   C     C_3   0.114626 0.243964 0.064945 0.021928
C21   C     C_3   0.588568 0.252666 0.570057 0.010248
C22   C     C_3   0.599952 0.253537 0.932715 0.012702
C23   C     C_3   0.594262 0.751947 0.430939 0.020372
C24   C     C_3   0.196072 0.248531 0.959829 -0.175147
C25   C     C_3   0.614627 0.743965 0.064945 0.021928
C26   C     C_3   0.995360 0.794454 0.525431 -0.090333
C27   C     C_3   0.994650 0.787074 0.975475 -0.100989
C28   C     C_3   0.960374 0.256091 0.454826 -0.103588
C29   C     C_3   0.985060 0.252028 0.035043 -0.098353
C30   C     C_3   0.495360 0.294454 0.525431 -0.090333
C31   C     C_3   0.494650 0.287074 0.975475 -0.100989
C32   C     C_3   0.460374 0.756091 0.454826 -0.103587
C33   C     C_3   0.485060 0.752028 0.035043 -0.098353
C34   C     C_3   0.961940 0.726164 0.486588 -0.149676
C35   C     C_3   0.657088 0.198796 0.477293 -0.104503
C36   C     C_3   0.976735 0.716721 0.013516 -0.143709
C37   C     C_3   0.992756 0.322040 0.498833 -0.172747
C38   C     C_3   0.034318 0.310640 0.986994 -0.143938
C39   C     C_3   0.461940 0.226164 0.486588 -0.149676
C40   C     C_3   0.476735 0.216721 0.013516 -0.143709
C41   C     C_3   0.492756 0.822040 0.498833 -0.172747
C42   C     C_3   0.534318 0.810640 0.986994 -0.143938
C43   C     C_3   0.054905 0.685248 0.532418 -0.120255
C44   C     C_3   0.081996 0.683801 0.970096 -0.108323
C45   C     C_3   0.127312 0.317680 0.473436 -0.107188
C46   C     C_3   0.676199 0.205686 0.027407 -0.115958
C47   C     C_3   0.164576 0.302598 0.017736 -0.109588
C48   C     C_3   0.554905 0.185248 0.532418 -0.120255
C49   C     C_3   0.581996 0.183801 0.970096 -0.108323
C50   C     C_3   0.627312 0.817680 0.473436 -0.107188
C51   C     C_3   0.664576 0.802598 0.017736 -0.109588
C52   C     C_3   0.660390 0.771737 0.537642 -0.140573
C53   C     C_3   0.696072 0.748531 0.959829 -0.175147
C54   C     C_3   0.064607 0.739903 0.432102 0.054405
C55   C     C_3   0.071061 0.739004 0.069819 0.058681
C56   C     C_3   0.026344 0.275458 0.562503 0.062517
C57   C     C_R   0.316162 0.940415 0.862087 0.545645
C58   C     C_3   0.067246 0.256833 0.929849 0.063761
C59   C     C_3   0.564607 0.239903 0.432102 0.054407
C60   C     C_3   0.571061 0.239004 0.069819 0.058681
C61   C     C_3   0.526344 0.775458 0.562503 0.062517
C62   C     C_3   0.567246 0.756833 0.929849 0.063760
C63   C     C_R   0.321476 0.035312 0.434195 -0.021650
C64   C     C_R   0.316417 0.005867 0.074899 -0.026953
C65   C     C_R   0.321268 0.990714 0.573402 -0.035562
C66   C     C_R   0.318473 0.965488 0.934244 -0.039040
C67   C     C_R   0.821476 0.535312 0.434195 -0.021650
C68   C     C_R   0.316534 0.060146 0.362092 0.544288
C69   C     C_R   0.816417 0.505867 0.074899 -0.026953
C70   C     C_R   0.821269 0.490714 0.573402 -0.035562
C71   C     C_R   0.818473 0.465488 0.934244 -0.039040
C72   C     C_R   0.546022 0.001621 0.431327 -0.077448
C73   C     C_R   0.538870 0.977321 0.080257 -0.076560
C74   C     C_R   0.547534 0.012114 0.577948 -0.092161
C75   C     C_R   0.543355 0.997672 0.934436 -0.093061
C76   C     C_R   0.046022 0.501621 0.431327 -0.077448
C77   C     C_R   0.038870 0.477320 0.080257 -0.076560
C78   C     C_R   0.047534 0.512114 0.577948 -0.092161
C79   C     C_R   0.317903 0.034711 0.145111 0.547268
C80   C     C_R   0.043355 0.497672 0.934436 -0.093061
C81   C     C_R   0.656139 0.997611 0.468399 -0.143577
C82   C     C_R   0.650682 0.982823 0.045383 -0.125769
C83   C     C_R   0.657802 0.008385 0.541325 -0.115211
C84   C     C_R   0.652247 0.998644 0.973249 -0.138096
C85   C     C_R   0.156139 0.497611 0.468399 -0.143577
C86   C     C_R   0.150682 0.482823 0.045383 -0.125769
C87   C     C_R   0.157802 0.508385 0.541325 -0.115211
C88   C     C_R   0.152247 0.498644 0.973249 -0.138096
C89   C     C_R   0.433957 0.008233 0.541050 -0.028519
C90   C     C_R   0.818792 0.464112 0.644433 0.542880
C91   C     C_R   0.429775 0.984562 0.968629 -0.019371
C92   C     C_R   0.434190 0.015832 0.467280 -0.003640
C93   C     C_R   0.427937 0.987511 0.042527 -0.016773
C94   C     C_R   0.933957 0.508233 0.541050 -0.028519
C95   C     C_R   0.929775 0.484562 0.968629 -0.019371
C96   C     C_R   0.934190 0.515832 0.467280 -0.003641
C97   C     C_R   0.927937 0.487511 0.042527 -0.016773
C98   C     C_R   0.209373 0.991500 0.533404 0.018219
C99   C     C_R   0.204645 0.968923 0.971565 0.012915
C100  C     C_R   0.208476 0.029261 0.471605 0.004868
C101  C     C_R   0.816162 0.440415 0.862087 0.545645
C102  C     C_R   0.203114 0.004153 0.035334 0.023546
C103  C     C_R   0.709373 0.491500 0.533404 0.018218
C104  C     C_R   0.704645 0.468923 0.971565 0.012915
C105  C     C_R   0.708476 0.529261 0.471605 0.004868
C106  C     C_R   0.703114 0.504153 0.035334 0.023546
C107  C     C_R   0.097699 0.956873 0.551623 -0.023620
C108  C     C_R   0.090491 0.942892 0.945735 -0.034704
C109  C     C_R   0.092688 0.054347 0.447238 -0.060837
C110  C     C_R   0.087504 0.034286 0.055816 -0.044851
C111  C     C_R   0.597699 0.456873 0.551623 -0.023621
C112  C     C_R   0.816534 0.560146 0.362092 0.544288
C113  C     C_R   0.590491 0.442892 0.945735 -0.034704
C114  C     C_R   0.592688 0.554346 0.447238 -0.060836
C115  C     C_R   0.587504 0.534286 0.055816 -0.044851
C116  C     C_R   0.986015 0.975683 0.521737 -0.083168
C117  C     C_R   0.978941 0.965131 0.972114 -0.081636
C118  C     C_R   0.983277 0.028265 0.472487 -0.074765
C119  C     C_R   0.977844 0.014577 0.024643 -0.072418
C120  C     C_R   0.486015 0.475683 0.521737 -0.083168
C121  C     C_R   0.478941 0.465131 0.972114 -0.081636
C122  C     C_R   0.483277 0.528265 0.472487 -0.074765
C123  C     C_R   0.817903 0.534712 0.145111 0.547268
C124  C     C_R   0.477844 0.514577 0.024643 -0.072418
C125  C     C_R   0.130625 0.757873 0.644285 0.530829
C126  C     C_R   0.134605 0.758644 0.857254 0.533909
C127  C     C_R   0.138639 0.240984 0.358256 0.533044
C128  C     C_R   0.145010 0.238938 0.140122 0.545616
C129  C     C_R   0.630625 0.257873 0.644285 0.530829
C130  C     C_R   0.634605 0.258644 0.857254 0.533909
C131  C     C_R   0.638639 0.740984 0.358256 0.533044
C132  C     C_R   0.645010 0.738938 0.140122 0.545617
C133  C     C_R   0.496936 0.787610 0.637593 0.561707
C134  C     C_3   0.157088 0.698796 0.477293 -0.104503
C135  C     C_R   0.538424 0.771288 0.856377 0.549276
C136  C     C_R   0.539603 0.228721 0.356657 0.550206
C137  C     C_R   0.541926 0.229065 0.144444 0.555379
C138  C     C_R   0.996937 0.287610 0.637593 0.561707
C139  C     C_R   0.038424 0.271288 0.856377 0.549277
C140  C     C_R   0.039603 0.728721 0.356657 0.550204
C141  C     C_R   0.041926 0.729065 0.144444 0.555379
C142  C     C_3   0.096804 0.806343 0.470035 0.221789
C143  C     C_3   0.089298 0.806881 0.032771 0.225735
C144  C     C_3   0.995751 0.211287 0.519414 0.244774
Cr1   Cr    Cr6+3 0.488160 0.884660 0.750000 0.992723
Cr2   Cr    Cr6+3 0.333410 0.272740 0.250000 1.049022
Cr3   Cr    Cr6+3 0.833410 0.227260 0.750000 1.039256
Cr4   Cr    Cr6+3 0.833410 0.772740 0.250000 1.049022
Cr5   Cr    Cr6+3 0.488160 0.115340 0.250000 0.997866
Cr6   Cr    Cr6+3 0.988160 0.384660 0.750000 0.992723
Cr7   Cr    Cr6+3 0.988160 0.615340 0.250000 0.997866
Cr8   Cr    Cr6+3 0.173480 0.883120 0.750000 0.982535
Cr9   Cr    Cr6+3 0.173480 0.116880 0.250000 1.003139
Cr10  Cr    Cr6+3 0.673480 0.383120 0.750000 0.982535
Cr11  Cr    Cr6+3 0.673480 0.616880 0.250000 1.003140
Cr12  Cr    Cr6+3 0.333410 0.727260 0.750000 1.039256
H1    H     H_    0.277124 0.789020 0.534927 0.118120
H2    H     H_    0.894993 0.944453 0.950208 0.087101
H3    H     H_    0.898189 0.048748 0.452145 0.128828
H4    H     H_    0.893304 0.038753 0.041280 0.126228
H5    H     H_    0.402855 0.449410 0.537096 0.086587
H6    H     H_    0.394993 0.444453 0.950208 0.087101
H7    H     H_    0.398189 0.548748 0.452145 0.128828
H8    H     H_    0.393304 0.538753 0.041280 0.126228
H9    H     H_    0.927953 0.831917 0.546723 0.096462
H10   H     H_    0.923149 0.821688 0.953455 0.102672
H11   H     H_    0.881585 0.248903 0.418044 0.103191
H12   H     H_    0.280442 0.804240 0.975884 0.101715
H13   H     H_    0.903991 0.254107 0.070498 0.095278
H14   H     H_    0.427953 0.331917 0.546723 0.096463
H15   H     H_    0.423150 0.321688 0.953455 0.102672
H16   H     H_    0.381586 0.748903 0.418044 0.103191
H17   H     H_    0.403991 0.754107 0.070498 0.095278
H18   H     H_    0.870527 0.708050 0.469659 0.106613
H19   H     H_    0.891515 0.689487 0.028263 0.115984
H20   H     H_    0.936043 0.369538 0.501347 0.121860
H21   H     H_    0.985068 0.358737 0.975332 0.128207
H22   H     H_    0.370527 0.208050 0.469659 0.106613
H23   H     H_    0.191472 0.161308 0.498137 0.087401
H24   H     H_    0.391515 0.189486 0.028263 0.115984
H25   H     H_    0.436043 0.869538 0.501347 0.121861
H26   H     H_    0.485068 0.858737 0.975332 0.128207
H27   H     H_    0.031630 0.639024 0.563184 0.137934
H28   H     H_    0.077134 0.633927 0.941509 0.141583
H29   H     H_    0.185447 0.360420 0.453445 0.147023
H30   H     H_    0.226324 0.344941 0.035463 0.152434
H31   H     H_    0.531630 0.139024 0.563184 0.137934
H32   H     H_    0.577134 0.133927 0.941509 0.141583
H33   H     H_    0.685447 0.860420 0.453445 0.147023
H34   H     H_    0.202119 0.141826 0.015469 0.097965
H35   H     H_    0.726324 0.844941 0.035463 0.152434
H36   H     H_    0.222845 0.659841 0.456446 0.166648
H37   H     H_    0.247685 0.671258 0.050234 0.157984
H38   H     H_    0.240959 0.277781 0.573270 0.128487
H39   H     H_    0.275737 0.244676 0.923519 0.113906
H40   H     H_    0.722845 0.159841 0.456446 0.166648
H41   H     H_    0.747685 0.171258 0.050234 0.157984
H42   H     H_    0.740959 0.777781 0.573270 0.128487
H43   H     H_    0.775737 0.744676 0.923519 0.113906
H44   H     H_    0.738850 0.984925 0.439845 0.103897
H45   H     H_    0.777124 0.289020 0.534927 0.118119
H46   H     H_    0.734666 0.977104 0.075374 0.113920
H47   H     H_    0.743119 0.011398 0.570447 0.125249
H48   H     H_    0.736560 0.011799 0.946604 0.124460
H49   H     H_    0.238850 0.484925 0.439845 0.103897
H50   H     H_    0.234666 0.477104 0.075374 0.113920
H51   H     H_    0.243119 0.511398 0.570447 0.125249
H52   H     H_    0.236560 0.511799 0.946604 0.124460
H53   H     H_    0.551445 0.988198 0.375873 0.153463
H54   H     H_    0.540295 0.966117 0.136566 0.136912
H55   H     H_    0.553299 0.021282 0.634486 0.141588
H56   H     H_    0.780442 0.304240 0.975884 0.101715
H57   H     H_    0.550605 0.012065 0.879298 0.150807
H58   H     H_    0.051445 0.488198 0.375873 0.153463
H59   H     H_    0.040295 0.466117 0.136566 0.136912
H60   H     H_    0.053299 0.521282 0.634486 0.141588
H61   H     H_    0.050605 0.512064 0.879298 0.150807
H62   H     H_    0.083663 0.094795 0.408990 0.166838
H63   H     H_    0.076646 0.076781 0.092194 0.167346
H64   H     H_    0.094390 0.912232 0.585357 0.169123
H65   H     H_    0.084069 0.903760 0.906335 0.164814
H66   H     H_    0.583663 0.594794 0.408990 0.166838
H67   H     H_    0.691472 0.661308 0.498137 0.087401
H68   H     H_    0.576646 0.576781 0.092194 0.167346
H69   H     H_    0.594390 0.412232 0.585357 0.169123
H70   H     H_    0.584069 0.403760 0.906335 0.164814
H71   H     H_    0.200935 0.860582 0.409392 0.317552
H72   H     H_    0.170034 0.865371 0.100874 0.315419
H73   H     H_    0.976595 0.132218 0.579960 0.338574
H74   H     H_    0.989197 0.120965 0.916930 0.331599
H75   H     H_    0.700936 0.360584 0.409394 0.317553
H76   H     H_    0.670034 0.365371 0.100874 0.315419
H77   H     H_    0.476595 0.632218 0.579960 0.338574
H78   H     H_    0.702119 0.641826 0.015469 0.097965
H79   H     H_    0.489197 0.620965 0.916930 0.331599
H80   H     H_    0.902855 0.949410 0.537096 0.086587
O1    O     O_R   0.575450 0.828820 0.667950 -0.526512
O2    O     O_R   0.416860 0.942890 0.825320 -0.513757
O3    O     O_R   0.416860 0.057110 0.325320 -0.517749
O4    O     O_R   0.416860 0.057110 0.174680 -0.505819
O5    O     O_R   0.916860 0.442890 0.674680 -0.521858
O6    O     O_R   0.916860 0.442890 0.825320 -0.513757
O7    O     O_R   0.916860 0.557110 0.325320 -0.517748
O8    O     O_R   0.916860 0.557110 0.174680 -0.505819
O9    O     O_R   0.213790 0.953680 0.668330 -0.536006
O10   O     O_R   0.213790 0.953680 0.831670 -0.529345
O11   O     O_R   0.213790 0.046320 0.331670 -0.509985
O12   O     O_R   0.575450 0.828820 0.832050 -0.529496
O13   O     O_R   0.213790 0.046320 0.168330 -0.530827
O14   O     O_R   0.713790 0.453680 0.668330 -0.536006
O15   O     O_R   0.713790 0.453680 0.831670 -0.529345
O16   O     O_R   0.713790 0.546320 0.331670 -0.509985
O17   O     O_R   0.713790 0.546320 0.168330 -0.530827
O18   O     O_R   0.121360 0.817890 0.672660 -0.534508
O19   O     O_R   0.121360 0.817890 0.827340 -0.548899
O20   O     O_R   0.121360 0.182110 0.327340 -0.542658
O21   O     O_R   0.121360 0.182110 0.172660 -0.526224
O22   O     O_R   0.621360 0.317890 0.672660 -0.534508
O23   O     O_R   0.575450 0.171180 0.332050 -0.541507
O24   O     O_R   0.621360 0.317890 0.827340 -0.548899
O25   O     O_R   0.621360 0.682110 0.327340 -0.542658
O26   O     O_R   0.621360 0.682110 0.172660 -0.526224
O27   O     O_R   0.206850 0.711370 0.665820 -0.496939
O28   O     O_R   0.206850 0.711370 0.834180 -0.494624
O29   O     O_R   0.206850 0.288630 0.334180 -0.520033
O30   O     O_R   0.206850 0.288630 0.165820 -0.520145
O31   O     O_R   0.706850 0.211370 0.665820 -0.496939
O32   O     O_R   0.706850 0.211370 0.834180 -0.494624
O33   O     O_R   0.706850 0.788630 0.334180 -0.520033
O34   O     O_R   0.575450 0.171180 0.167950 -0.533106
O35   O     O_R   0.706850 0.788630 0.165820 -0.520146
O36   O     O_R   0.457710 0.733190 0.672630 -0.488397
O37   O     O_R   0.457710 0.733190 0.827370 -0.485101
O38   O     O_R   0.457710 0.266810 0.327370 -0.479018
O39   O     O_R   0.457710 0.266810 0.172630 -0.473420
O40   O     O_R   0.957710 0.233190 0.672630 -0.488397
O41   O     O_R   0.957710 0.233190 0.827370 -0.485101
O42   O     O_R   0.957710 0.766810 0.327370 -0.479018
O43   O     O_R   0.957710 0.766810 0.172630 -0.473420
O44   O     O_3   0.331690 0.831680 0.750000 -0.296478
O45   O     O_R   0.075450 0.328820 0.667950 -0.526512
O46   O     O_3   0.331690 0.168320 0.250000 -0.288673
O47   O     O_3   0.831690 0.331680 0.750000 -0.296478
O48   O     O_3   0.831690 0.668320 0.250000 -0.288673
O49   O     O_3   0.120313 0.867503 0.432891 -0.686487
O50   O     O_3   0.092699 0.867647 0.072965 -0.687285
O51   O     O_3   0.924071 0.156774 0.545034 -0.710979
O52   O     O_3   0.941142 0.146832 0.952989 -0.709237
O53   O     O_3   0.620313 0.367503 0.432891 -0.686488
O54   O     O_3   0.592699 0.367647 0.072965 -0.687285
O55   O     O_3   0.424071 0.656774 0.545034 -0.710979
O56   O     O_R   0.075450 0.328820 0.832050 -0.529496
O57   O     O_3   0.441142 0.646832 0.952989 -0.709237
O58   O     O_R   0.075450 0.671180 0.332050 -0.541506
O59   O     O_R   0.075450 0.671180 0.167950 -0.533106
O60   O     O_R   0.416860 0.942890 0.674680 -0.521858

loop_
_geom_bond_atom_site_label_1
_geom_bond_atom_site_label_2
_ccdc_geom_bond_type
C6    C32   S    
C71   C104  A    
C73   C82   A    
C73   C93   A    
C74   C83   A    
Cr9   O21   S    
C9    C143  S    
C61   C133  S    
C65   C89   A    
C90   O14   A    
Cr7   O59   S    
C2    C55   S    
C117  C119  A    
H76   O54   S    
C86   C88   A    
C71   C95   A    
C69   C123  S    
C54   C134  S    
C4    O53   S    
C109  H62   S    
C40   H24   S    
C37   C56   S    
C50   C52   S    
C28   C144  S    
C41   C61   S    
C4    C12   S    
C21   C48   S    
C84   H48   S    
C32   H16   S    
C100  C109  A    
C22   C130  S    
C144  O51   S    
C7    C33   S    
C88   H52   S    
C8    H1    S    
Cr3   O41   S    
C109  C118  A    
C7    O57   S    
C3    O52   S    
C11   C20   S    
C111  H69   S    
C140  O42   A    
C115  H68   S    
C141  O43   A    
C82   H46   S    
C70   C103  A    
C67   C105  A    
C24   H39   S    
C137  O39   A    
H79   O57   S    
C7    C62   S    
C34   H18   S    
C18   C44   S    
C73   H54   S    
C69   C106  A    
C47   H30   S    
C94   C96   A    
Cr8   O9    S    
C35   H40   S    
C22   C49   S    
C34   C54   S    
C82   C84   A    
C13   H38   S    
C64   C79   S    
C36   C44   S    
C52   H42   S    
C37   C45   S    
C39   H22   S    
Cr10  O24   S    
C16   C25   S    
C127  O29   A    
C1    O60   A    
C46   C60   S    
C139  O41   A    
Cr2   O38   S    
C137  O34   A    
C130  O24   A    
C95   C97   A    
C106  C115  A    
C8    C17   S    
Cr4   O43   S    
C74   H55   S    
C52   C61   S    
C2    H37   S    
C11   H34   S    
C80   C88   A    
C36   C55   S    
C1    O9    A    
C76   C96   A    
C13   C45   S    
C45   H29   S    
C49   H32   S    
C78   C94   A    
C138  O45   A    
C43   H27   S    
Cr5   O3    S    
C116  C118  A    
Cr6   O47   S    
C101  O6    A    
C20   C47   S    
C3    C11   S    
Cr7   O7    S    
Cr11  O25   S    
C67   C112  S    
C143  O50   S    
C135  O37   A    
C76   C85   A    
C78   C87   A    
C40   C60   S    
Cr6   O56   S    
C57   C66   S    
C81   H44   S    
C85   H49   S    
C64   C102  A    
C99   C108  A    
C10   H23   S    
C6    C61   S    
C103  C111  A    
Cr5   O34   S    
H71   O49   S    
C75   C84   A    
C40   C49   S    
C59   C136  S    
C3    C29   S    
C50   H33   S    
Cr12  O28   S    
Cr6   O5    S    
Cr5   O23   S    
C2    C44   S    
C29   C38   S    
C1    C65   S    
C32   C41   S    
C77   C97   A    
C42   C62   S    
Cr10  O22   S    
C75   C91   A    
C13   C56   S    
C38   H21   S    
C133  O1    A    
C79   O4    A    
C81   C83   A    
C55   C143  S    
C8    C134  S    
C53   H43   S    
C80   H61   S    
Cr10  O14   S    
C75   H57   S    
C51   C53   S    
Cr6   O45   S    
C62   C135  S    
Cr2   O29   S    
C19   C28   S    
C27   C143  S    
C72   H53   S    
Cr1   O2    S    
C23   C131  S    
C103  C105  A    
C10   C144  S    
C12   C35   S    
C110  H63   S    
C21   C129  S    
C36   H19   S    
C51   H35   S    
C132  O26   A    
C63   C68   S    
C5    C60   S    
Cr9   O46   S    
Cr4   O33   S    
C9    H12   S    
C34   C43   S    
C57   O10   A    
C110  C119  A    
C19   C45   S    
C80   C95   A    
C29   H13   S    
C128  O21   A    
C14   C22   S    
Cr7   O48   S    
C18   C126  S    
C108  H65   S    
C31   H15   S    
C28   C37   S    
Cr4   O42   S    
C30   C39   S    
C125  O18   A    
C107  C116  A    
C142  O49   S    
C104  C113  A    
C76   H58   S    
C9    C18   S    
C113  C121  A    
C128  O30   A    
C25   C132  S    
C68   O3    A    
C25   C33   S    
C131  O25   A    
C69   C97   A    
C117  H2    S    
C26   H9    S    
C55   C141  S    
C5    O54   S    
C104  C106  A    
C118  H3    S    
C14   C46   S    
C42   H26   S    
C46   C49   S    
C70   C94   A    
C65   C98   A    
Cr12  O44   S    
C72   C92   A    
C31   C40   S    
C35   C59   S    
C30   H14   S    
C38   C58   S    
H77   O55   S    
Cr8   O10   S    
C72   C81   A    
Cr2   O46   S    
C130  O32   A    
C71   C101  S    
Cr4   O35   S    
C41   H25   S    
Cr10  O47   S    
C101  O15   A    
C35   C48   S    
C108  C117  A    
C139  O56   A    
C48   H31   S    
C83   H47   S    
Cr2   O39   S    
Cr3   O32   S    
C133  O36   A    
C98   C107  A    
C43   C134  S    
C91   C93   A    
Cr3   O47   S    
C16   H78   S    
C10   C19   S    
C39   C59   S    
C125  O27   A    
C136  O23   A    
C126  O28   A    
C15   C52   S    
C114  H66   S    
C5    C14   S    
C7    C16   S    
C54   C142  S    
C98   C100  A    
C102  C110  A    
C33   C42   S    
C41   C50   S    
C46   H41   S    
C6    O55   S    
C77   H59   S    
C115  C124  A    
C136  O38   A    
C23   C50   S    
Cr1   O60   S    
Cr8   O19   S    
Cr11  O16   S    
Cr12  O36   S    
C27   C36   S    
C21   C30   S    
C14   H56   S    
C23   C32   S    
C37   H20   S    
C113  H70   S    
C121  H6    S    
Cr9   O11   S    
C15   H67   S    
C123  O17   A    
C27   H10   S    
C107  H64   S    
C56   C144  S    
C3    C58   S    
Cr6   O6    S    
C99   C102  A    
C24   C58   S    
H74   O52   S    
C8    C142  S    
C39   C48   S    
C124  H8    S    
C58   C139  S    
Cr7   O58   S    
Cr11  O17   S    
C86   H50   S    
C132  O35   A    
C17   C43   S    
C17   C26   S    
C74   C89   A    
C64   C93   A    
C20   C128  S    
C140  O58   A    
C141  O59   A    
Cr10  O15   S    
C11   C24   S    
Cr5   O4    S    
C134  H36   S    
Cr11  O48   S    
Cr2   O30   S    
C16   C53   S    
C121  C124  A    
Cr8   O44   S    
C28   H11   S    
C6    C15   S    
Cr11  O26   S    
C26   C34   S    
C112  O7    A    
C54   C140  S    
C119  H4    S    
Cr1   O1    S    
C63   C92   A    
Cr5   O46   S    
C126  O19   A    
C33   H17   S    
C44   H28   S    
Cr3   O40   S    
C129  O31   A    
C60   C137  S    
C15   C23   S    
Cr7   O8    S    
C79   O13   A    
C116  H80   S    
C70   C90   S    
C123  O8    A    
C120  C122  A    
C112  O16   A    
C20   C29   S    
C85   C87   A    
C68   O11   A    
C22   C31   S    
C127  O20   A    
C105  C114  A    
Cr3   O31   S    
C129  O22   A    
C78   H60   S    
Cr9   O13   S    
C12   C21   S    
C122  H7    S    
C138  O40   A    
C111  C120  A    
C66   C99   A    
C25   C51   S    
C63   C100  A    
Cr12  O27   S    
C56   C138  S    
C53   C62   S    
C131  O33   A    
Cr12  O37   S    
C12   H45   S    
C89   C92   A    
C87   H51   S    
C38   C47   S    
C120  H5    S    
Cr9   O20   S    
C77   C86   A    
C67   C96   A    
Cr1   O44   S    
Cr4   O48   S    
Cr1   O12   S    
C24   C47   S    
C135  O12   A    
C18   C27   S    
C57   O2    A    
C10   C13   S    
C66   C91   A    
C42   C51   S    
Cr8   O18   S    
C2    C9    S    
C17   C125  S    
C4    C59   S    
C19   C127  S    
C114  C122  A    
H72   O50   S    
H73   O51   S    
C90   O5    A    
C26   C142  S    
C4    C30   S    
H75   O53   S    
C5    C31   S    
