data_mof_unit_411.cif
_audit_creation_date              2013-03-05T16:12:13-0500
_audit_creation_method            fapswitch 2.2
_symmetry_space_group_name_H-M    P1
_symmetry_Int_Tables_number       1
_space_group_crystal_system       triclinic
_cell_length_a                    10.72712
_cell_length_b                    9.404639
_cell_length_c                    27.801157
_cell_angle_alpha                 90.140658
_cell_angle_beta                  90.10836
_cell_angle_gamma                 90.066232
_cell_volume                      2804.69577988

loop_
_atom_site_label
_atom_site_type_symbol
_atom_site_description
_atom_site_fract_x
_atom_site_fract_y
_atom_site_fract_z
_atom_type_partial_charge
O1    O     O_R   0.317570 0.620260 0.500030 -0.597944
O2    O     O_R   0.317570 0.379740 0.500030 -0.598697
C1    C     C_R   0.259667 0.500138 0.500388 0.814058
O3    O     O_R   0.499900 0.620250 0.430280 -0.611197
O4    O     O_R   0.499900 0.379750 0.430280 -0.538347
C2    C     C_R   0.499120 0.499922 0.407348 0.850075
Cu1   Cu    Cu3+1 0.499860 0.642410 0.500020 0.910249
Cu2   Cu    Cu3+1 0.499860 0.357590 0.500020 0.926799
O5    O     O_R   0.682190 0.620260 0.500010 -0.575399
O6    O     O_R   0.682190 0.379740 0.500010 -0.608071
O7    O     O_R   0.499860 0.620280 0.569750 -0.599556
O8    O     O_R   0.499860 0.379720 0.569750 -0.581067
C3    C     C_R   0.740107 0.500268 0.500471 0.850824
C4    C     C_R   0.503607 0.500207 0.592455 0.824110
C5    C     C_R   0.375234 0.514244 0.178086 0.616514
O9    O     O_2   0.269126 0.525722 0.203780 -0.446437
N1    N     N_R   0.487055 0.507101 0.201622 -0.470311
C6    C     C_R   0.596825 0.494008 0.177237 0.539414
C7    C     C_R   0.498346 0.637354 0.279000 0.194922
C8    C     C_R   0.501750 0.631784 0.329612 -0.294228
C9    C     C_R   0.487198 0.374225 0.327494 0.573005
C10   C     C_R   0.483677 0.378561 0.277521 -0.185522
C11   C     C_R   0.489187 0.508294 0.253208 0.209934
C12   C     C_R   0.483372 0.497537 0.101554 -0.127546
C13   C     C_R   0.370898 0.509753 0.127434 -0.256785
C14   C     C_R   0.257554 0.512987 0.102178 0.608249
C15   C     C_R   0.597140 0.488654 0.126849 0.016822
C16   C     C_R   0.496401 0.501142 0.354166 -0.204995
H1    H     H_    0.476695 0.280263 0.257319 0.161998
C17   C     C_R   0.504322 0.500146 0.645337 -0.060045
C18   C     C_R   0.370496 0.521765 0.974154 0.092698
C19   C     C_R   0.593459 0.458345 0.974327 0.042815
C20   C     C_R   0.481921 0.489270 0.948967 0.071034
C21   C     C_R   0.266925 0.570385 0.947302 -0.127187
C22   C     C_R   0.268795 0.572971 0.897289 -0.177044
C23   C     C_R   0.375068 0.530363 0.872116 -0.020991
C24   C     C_R   0.482310 0.489532 0.897873 -0.052756
C25   C     C_R   0.590368 0.450244 0.872473 -0.021978
C26   C     C_R   0.588937 0.451427 0.822025 0.538717
N2    N     N_R   0.484121 0.492861 0.797669 -0.464209
C27   C     C_R   0.378075 0.531734 0.821587 0.547034
C28   C     C_R   0.416612 0.402873 0.718796 -0.095762
C29   C     C_R   0.424469 0.404384 0.668828 -0.260381
C30   C     C_R   0.579924 0.594282 0.672932 0.094849
C31   C     C_R   0.566178 0.595271 0.723148 -0.109415
C32   C     C_R   0.487205 0.498457 0.746095 0.312260
O10   O     O_2   0.276479 0.573093 0.796585 -0.535540
C33   C     C_R   0.368044 0.509845 0.025179 -0.175000
C34   C     C_R   0.482338 0.493406 0.050462 0.003061
C35   C     C_R   0.595759 0.471880 0.025151 0.086025
C36   C     C_R   0.255711 0.510646 0.052093 0.492324
H2    H     H_    0.366968 0.331192 0.648334 0.150726
H3    H     H_    0.355885 0.327082 0.736353 0.154557
H4    H     H_    0.186674 0.610321 0.878430 0.194439
H5    H     H_    0.184925 0.614048 0.964032 0.217021
O11   O     O_2   0.705265 0.485860 0.201793 -0.513567
C37   C     C_R   0.708717 0.474742 0.101473 -0.106228
H6    H     H_    0.508712 0.728758 0.350325 0.184395
H7    H     H_    0.797476 0.469979 0.120077 0.222311
C38   C     C_R   0.699270 0.415120 0.947788 -0.201699
C39   C     C_R   0.697390 0.410822 0.897845 -0.134423
O12   O     O_2   0.691507 0.411301 0.797432 -0.535418
C40   C     C_R   0.708271 0.466177 0.051638 -0.186219
H8    H     H_    0.784484 0.380513 0.964687 0.160350
H9    H     H_    0.781031 0.377527 0.879171 0.192624
H10   H     H_    0.619811 0.668673 0.745001 0.146408
H11   H     H_    0.798427 0.459211 0.034741 0.177942
C41   C     C_3   0.071889 0.655298 0.505423 -0.405989
C42   C     C_3   0.072383 0.413219 0.543937 -0.417289
H12   H     H_    0.104699 0.720689 0.474574 0.129463
H13   H     H_    0.109103 0.302636 0.542468 0.129412
H14   H     H_    0.108526 0.705539 0.538912 0.202834
H15   H     H_    0.105643 0.461367 0.578266 0.200745
C43   C     C_3   0.929145 0.655718 0.506204 0.500317
C44   C     C_3   0.928468 0.408544 0.542991 0.515500
H16   H     H_    0.895024 0.722051 0.475782 0.057521
H17   H     H_    0.897902 0.296323 0.537909 0.069442
H18   H     H_    0.107423 0.495788 0.421948 0.188375
H19   H     H_    0.103946 0.323538 0.449585 0.192967
H20   H     H_    0.894015 0.503447 0.422214 0.196306
H21   H     H_    0.891250 0.328384 0.447640 0.202039
C45   C     C_3   0.071295 0.435327 0.453356 -0.401263
C46   C     C_3   0.121794 0.500839 0.500768 0.004229
C47   C     C_3   0.878092 0.501131 0.500976 -0.031113
C48   C     C_3   0.927415 0.438298 0.453024 -0.607581
C49   C     C_3   0.615925 0.084162 0.522802 -0.198220
C50   C     C_3   0.615882 0.916579 0.522808 -0.159154
H22   H     H_    0.627130 0.124451 0.560217 0.163571
H23   H     H_    0.626924 0.877237 0.560227 0.159238
H24   H     H_    0.698888 0.121061 0.502441 0.142734
H25   H     H_    0.698797 0.879563 0.502468 0.171623
H26   H     H_    0.397544 0.123663 0.566699 0.148248
H27   H     H_    0.397412 0.876893 0.566660 0.149932
C51   C     C_3   0.394097 0.083928 0.529013 -0.200487
C52   C     C_3   0.394070 0.916226 0.528990 -0.191108
C53   C     C_3   0.490692 0.083223 0.451705 -0.144902
C54   C     C_3   0.490723 0.916025 0.451683 -0.205904
N3    N     N_3   0.500250 0.143650 0.501060 -0.138577
N4    N     N_3   0.500250 0.856350 0.501060 -0.130725
H28   H     H_    0.403988 0.122039 0.434090 0.186142
H29   H     H_    0.404141 0.876634 0.433987 0.152419
H30   H     H_    0.570245 0.121332 0.429580 0.190158
H31   H     H_    0.570210 0.877817 0.429503 0.145722
H32   H     H_    0.304228 0.121235 0.513661 0.144104
H33   H     H_    0.304239 0.878667 0.513577 0.146104
F1    F     F_    0.480859 0.245652 0.349345 -0.699627
C55   C     C_3   0.504418 0.776610 0.251258 -0.383096
C56   C     C_3   0.514289 0.911983 0.281700 -0.763634
H34   H     H_    0.431426 0.923337 0.305304 0.262116
H35   H     H_    0.600798 0.910771 0.303722 0.253276
H36   H     H_    0.518147 0.005877 0.257612 0.253554
H37   H     H_    0.586399 0.773270 0.226900 0.224188
H38   H     H_    0.419483 0.785575 0.228524 0.223142
C57   C     C_3   0.678161 0.690615 0.650837 -0.409676
C58   C     C_3   0.807561 0.665345 0.672464 -0.623608
H39   H     H_    0.812742 0.706389 0.709868 0.215845
H40   H     H_    0.830071 0.550118 0.672435 0.296904
H41   H     H_    0.878772 0.722302 0.650862 0.276657
H42   H     H_    0.687588 0.673342 0.611672 0.270710
H43   H     H_    0.651156 0.803387 0.656612 0.187323
F2    F     F_    0.887911 0.717726 0.548618 -0.666368
F3    F     F_    0.881405 0.454924 0.586640 -0.658272
F4    F     F_    0.146620 0.515080 0.125681 -0.570840
F5    F     F_    0.142267 0.496184 0.030992 -0.650026

loop_
_geom_bond_atom_site_label_1
_geom_bond_atom_site_label_2
_geom_bond_distance
_ccdc_geom_bond_type
C35   C40   1.413771 A    
C10   H1    1.082961 S    
C53   H30   1.112400 S    
C44   F3    1.384902 S    
C55   H37   1.111359 S    
C7    C8    1.408564 A    
C12   C15   1.410036 A    
H20   C48   1.113270 S    
C57   C58   1.530714 S    
Cu1   Cu2   2.678628 S    
C31   C32   1.398837 A    
N2    C32   1.435370 S    
C3    C47   1.480239 S    
N1    C11   1.434297 S    
C43   H16   1.113738 S    
C23   C24   1.408161 A    
C29   H2    1.083821 S    
C50   H25   1.110722 S    
C28   H3    1.082837 S    
O4    C2    1.298985 A    
O7    C4    1.295664 A    
C49   H22   1.112426 S    
C44   C47   1.555070 S    
C37   H7    1.083701 S    
C51   N3    1.490001 S    
C41   C43   1.531434 S    
C58   H39   1.109584 S    
C56   H34   1.110961 S    
Cu1   O5    1.967178 S    
C21   C22   1.390868 A    
C28   C32   1.396566 A    
C42   H13   1.113194 S    
Cu2   N3    2.012316 S    
C55   H38   1.111283 S    
O5    C3    1.288911 A    
C52   H33   1.110791 S    
C33   C36   1.419631 A    
C2    C16   1.478804 S    
C22   C23   1.397373 A    
C58   H40   1.110512 S    
C53   N3    1.487171 S    
C55   C56   1.530494 S    
C18   C20   1.419617 A    
C42   H15   1.113281 S    
C9    F1    1.356224 S    
C6    O11   1.350010 S    
C25   C39   1.397205 A    
C51   H32   1.111119 S    
C21   H5    1.077089 S    
H27   C52   1.112059 S    
C9    C10   1.390437 A    
C22   H4    1.083594 S    
C36   F5    1.356490 S    
C17   C30   1.422207 A    
C23   C27   1.405287 A    
C4    C17   1.470196 S    
O3    Cu1   1.949513 S    
C54   N4    1.487684 S    
C37   C40   1.387631 A    
C50   N4    1.489583 S    
C40   H11   1.077940 S    
C12   C13   1.410597 A    
O3    C2    1.297526 A    
C15   C37   1.396585 A    
C26   N2    1.368936 A    
C49   C50   1.576062 S    
C8    C16   1.408182 A    
C13   C14   1.403270 A    
C20   C24   1.420497 A    
C41   H14   1.113805 S    
O1    C1    1.288638 A    
C7    C11   1.411458 A    
C24   C25   1.407699 A    
C42   C46   1.551335 S    
H19   C45   1.113288 S    
H18   C45   1.113196 S    
Cu1   O7    1.950223 S    
Cu2   O8    1.949207 S    
C58   H41   1.110627 S    
C53   C54   1.572432 S    
H26   C51   1.112031 S    
N1    C6    1.365373 A    
C27   O10   1.349668 S    
C18   C21   1.414368 A    
C57   H43   1.111115 S    
C47   C48   1.551093 S    
C44   H17   1.113390 S    
C19   C35   1.418564 A    
C54   H31   1.112656 S    
Cu1   N4    2.012165 S    
Cu2   O6    1.966699 S    
N2    C27   1.368381 A    
C9    C16   1.406910 A    
O8    C4    1.296283 A    
C34   C35   1.421099 A    
C18   C33   1.423563 A    
C50   H23   1.111162 S    
C49   H24   1.111308 S    
C17   C29   1.405192 A    
C14   F4    1.358808 S    
C19   C38   1.414467 A    
C8    H6    1.079834 S    
C30   C31   1.404137 A    
C12   C34   1.420877 A    
C5    N1    1.367093 A    
C26   O12   1.350191 S    
C33   C34   1.420860 A    
O1    Cu1   1.966273 S    
C41   C46   1.553908 S    
O2    Cu2   1.966752 S    
C6    C15   1.401636 A    
C57   H42   1.105323 S    
C43   C47   1.559333 S    
O6    C3    1.292009 A    
O4    Cu2   1.950531 S    
C45   C48   1.543718 S    
C56   H36   1.110334 S    
C38   H8    1.077982 S    
C19   C20   1.418382 A    
O2    C1    1.292131 A    
C14   C36   1.392655 A    
C1    C46   1.479057 S    
C25   C26   1.402642 A    
C53   H28   1.112693 S    
C56   H35   1.110874 S    
C42   C44   1.544543 S    
C52   N4    1.489986 S    
C51   C52   1.577178 S    
C49   N3    1.489467 S    
H21   C48   1.113334 S    
C5    C13   1.409392 A    
C30   C57   1.520391 S    
C39   H9    1.083613 S    
C43   F2    1.387564 S    
C41   H12   1.113933 S    
C45   C46   1.550144 S    
C28   C29   1.391988 A    
C31   H10   1.082741 S    
C10   C11   1.397526 A    
C38   C39   1.389067 A    
C54   H29   1.112865 S    
C5    O9    1.349244 S    
C7    C55   1.522909 S    
