data_mof_unit_543.cif
_audit_creation_date              2012-12-11T14:40:26-0500
_audit_creation_method            fapswitch 2.2
_symmetry_space_group_name_H-M    P1
_symmetry_Int_Tables_number       1
_space_group_crystal_system       triclinic
_cell_length_a                    19.737685
_cell_length_b                    10.978025
_cell_length_c                    19.455443
_cell_angle_alpha                 89.55449
_cell_angle_beta                  97.261191
_cell_angle_gamma                 90.067117
_cell_volume                      4181.68635693

loop_
_atom_site_label
_atom_site_type_symbol
_atom_type_description
_atom_site_fract_x
_atom_site_fract_y
_atom_site_fract_z
_atom_type_partial_charge
C1    C     C_R   0.726334 0.947714 0.358445 0.540293
C2    C     C_3   0.257677 0.385136 0.563345 0.043769
C3    C     C_3   0.378067 0.353752 0.444119 -0.276521
C4    C     C_3   0.387092 0.447076 0.386503 -0.292155
C5    C     C_3   0.458801 0.463324 0.367795 -0.421882
C6    C     C_3   0.136315 0.026798 0.549134 -0.218050
C7    C     C_3   0.066372 0.014168 0.507694 -0.309125
C8    C     C_3   0.012814 0.087766 0.539905 -0.437435
C9    C     C_3   0.878065 0.853747 0.444119 -0.276523
C10   C     C_3   0.887092 0.947073 0.386504 -0.292156
C11   C     C_3   0.958802 0.963323 0.367799 -0.421884
C12   C     C_2   0.742692 0.188154 0.605920 0.547708
C13   C     C_3   0.231017 0.842375 0.441957 0.005745
C14   C     C_2   0.141381 0.255032 0.432323 0.569838
C15   C     C_2   0.242690 0.688155 0.605920 0.547710
C16   C     C_2   0.641379 0.755034 0.432325 0.569839
C17   C     C_2   0.574392 0.387342 0.937287 0.607287
C18   C     C_2   0.456919 0.374366 0.047727 0.615833
C19   C     C_2   0.074392 0.887342 0.937288 0.607287
C20   C     C_2   0.956920 0.874367 0.047727 0.615833
C21   C     C_3   0.757676 0.885136 0.563345 0.043771
C22   C     C_3   0.740355 0.475652 0.464886 -0.092468
C23   C     C_3   0.299874 0.474065 0.524943 -0.109057
C24   C     C_3   0.240356 0.975653 0.464886 -0.092463
C25   C     C_3   0.799874 0.974063 0.524943 -0.109058
C26   C     C_3   0.802279 0.434145 0.516089 -0.148003
C27   C     C_3   0.232518 0.511820 0.480744 -0.128073
C28   C     C_3   0.302280 0.934144 0.516089 -0.148005
C29   C     C_R   0.274902 0.953342 0.639469 0.564070
C30   C     C_3   0.732519 0.011820 0.480744 -0.128077
C31   C     C_3   0.792663 0.300508 0.493819 -0.126387
C32   C     C_3   0.190925 0.423441 0.520172 -0.092944
C33   C     C_3   0.292663 0.800506 0.493819 -0.126388
C34   C     C_3   0.690925 0.923443 0.520173 -0.092944
C35   C     C_3   0.743450 0.280133 0.548643 0.042140
C36   C     C_3   0.201481 0.322927 0.468487 0.042125
C37   C     C_3   0.243449 0.780134 0.548642 0.042140
C38   C     C_3   0.701480 0.822928 0.468488 0.042130
C39   C     C_3   0.753765 0.411149 0.570301 0.033937
C40   C     C_R   0.226334 0.447714 0.358445 0.540292
C41   C     C_3   0.242968 0.410874 0.429385 0.046630
C42   C     C_3   0.253765 0.911150 0.570301 0.033936
C43   C     C_3   0.742967 0.910874 0.429385 0.046629
C44   C     C_3   0.544974 0.275129 0.966861 0.048174
C45   C     C_3   0.494625 0.269905 0.020594 0.057464
C46   C     C_3   0.044974 0.775129 0.966861 0.048173
C47   C     C_3   0.994626 0.769905 0.020594 0.057464
C48   C     C_3   0.591694 0.180464 0.008573 -0.182276
C49   C     C_3   0.455480 0.165012 0.981891 -0.140654
C50   C     C_3   0.091694 0.680464 0.008573 -0.182276
C51   C     C_R   0.774902 0.453342 0.639469 0.564068
C52   C     C_3   0.955480 0.665012 0.981891 -0.140654
C53   C     C_3   0.540645 0.175833 0.062176 0.011400
C54   C     C_3   0.506030 0.170817 0.927626 0.013186
C55   C     C_3   0.040645 0.675833 0.062176 0.011400
C56   C     C_3   0.006030 0.670817 0.927626 0.013185
C57   C     C_R   0.535966 0.179223 0.338395 0.543187
C58   C     C_R   0.465054 0.180126 0.662365 0.550787
C59   C     C_R   0.035966 0.679223 0.338395 0.543188
C60   C     C_R   0.965054 0.680126 0.662365 0.550786
C61   C     C_3   0.501880 0.070098 0.023560 -0.111184
C62   C     C_3   0.681291 0.318112 0.496372 -0.142316
C63   C     C_3   0.551962 0.075091 0.968256 -0.140082
C64   C     C_3   0.001880 0.570098 0.023560 -0.111184
C65   C     C_3   0.051961 0.575091 0.968256 -0.140083
C66   C     C_1   0.763455 0.425476 0.904372 0.016893
C67   C     C_1   0.236645 0.427214 0.095494 0.013207
C68   C     C_1   0.263455 0.925476 0.904372 0.016892
C69   C     C_1   0.736645 0.927214 0.095494 0.013207
C70   C     C_1   0.748559 0.408618 0.034987 -0.000929
C71   C     C_1   0.251616 0.408917 0.964876 -0.018455
C72   C     C_1   0.248559 0.908618 0.034987 -0.000927
C73   C     C_3   0.268611 0.281374 0.512317 -0.155014
C74   C     C_1   0.751616 0.908918 0.964876 -0.018455
C75   C     C_1   0.755304 0.415611 0.964197 -0.007543
C76   C     C_1   0.244897 0.417093 0.035700 -0.015316
C77   C     C_1   0.255304 0.915611 0.964198 -0.007543
C78   C     C_1   0.744897 0.917093 0.035700 -0.015316
C79   C     C_1   0.743200 0.395426 0.095295 0.022537
C80   C     C_1   0.256744 0.394838 0.904607 0.013451
C81   C     C_1   0.243200 0.895426 0.095295 0.022539
C82   C     C_1   0.756744 0.894838 0.904607 0.013451
C83   C     C_R   0.724722 0.310354 0.368030 0.555180
C84   C     C_3   0.181291 0.818115 0.496372 -0.142316
C85   C     C_R   0.262005 0.359174 0.636629 0.577573
C86   C     C_R   0.224722 0.810354 0.368030 0.555180
C87   C     C_R   0.762005 0.859174 0.636629 0.577575
C88   C     C_R   0.721699 0.953538 0.163619 0.538974
C89   C     C_R   0.278237 0.952722 0.836232 0.553521
C90   C     C_R   0.221699 0.453538 0.163619 0.538974
C91   C     C_R   0.778237 0.452722 0.836232 0.553521
C92   C     C_R   0.562080 0.182958 0.136568 0.564303
C93   C     C_R   0.473019 0.178484 0.856715 0.573921
C94   C     C_R   0.062080 0.682957 0.136568 0.564303
C95   C     C_3   0.768610 0.781374 0.512317 -0.155013
C96   C     C_R   0.973019 0.678484 0.856715 0.573920
C97   C     C_R   0.735952 0.360356 0.164518 0.552607
C98   C     C_R   0.264092 0.359746 0.835539 0.548980
C99   C     C_R   0.235952 0.860356 0.164518 0.552607
C100  C     C_R   0.764092 0.859746 0.835539 0.548980
C101  C     C_1   0.488141 0.171093 0.596015 0.014510
C102  C     C_1   0.516543 0.167796 0.406337 -0.019506
C103  C     C_1   0.988141 0.671093 0.596015 0.014512
C104  C     C_1   0.016543 0.667795 0.406337 -0.019504
C105  C     C_1   0.507631 0.162497 0.466247 -0.067564
C106  C     C_3   0.731017 0.342375 0.441957 0.005743
C107  C     C_1   0.499323 0.164507 0.536900 -0.046117
C108  C     C_1   0.007631 0.662497 0.466247 -0.067563
C109  C     C_1   0.999323 0.664506 0.536900 -0.046117
C110  C     C_3   0.691742 0.451094 0.520224 -0.005440
C111  C     C_3   0.309705 0.373162 0.472537 -0.028441
C112  C     C_3   0.191743 0.951097 0.520223 -0.005436
C113  C     C_3   0.809704 0.873159 0.472537 -0.028442
C114  C     C_3   0.636313 0.526792 0.549134 -0.218053
C115  C     C_3   0.566372 0.514167 0.507690 -0.309121
C116  C     C_3   0.512812 0.587771 0.539895 -0.437429
Cr1   Cr    Cr6+3 0.765830 0.160660 0.268180 0.996899
Cr2   Cr    Cr6+3 0.384070 0.324050 0.751550 1.064337
Cr3   Cr    Cr6+3 0.115930 0.824050 0.248450 1.063218
Cr4   Cr    Cr6+3 0.884070 0.824050 0.751550 1.064338
Cr5   Cr    Cr6+3 0.234170 0.160660 0.731820 1.022552
Cr6   Cr    Cr6+3 0.265830 0.660660 0.268180 0.996898
Cr7   Cr    Cr6+3 0.734170 0.660660 0.731820 1.022554
Cr8   Cr    Cr6+3 0.612110 0.009150 0.248770 1.066269
Cr9   Cr    Cr6+3 0.387890 0.009150 0.751230 1.061640
Cr10  Cr    Cr6+3 0.112110 0.509150 0.248770 1.066269
Cr11  Cr    Cr6+3 0.887890 0.509150 0.751230 1.061639
Cr12  Cr    Cr6+3 0.615930 0.324050 0.248450 1.063216
H1    H     H_    0.632789 0.267338 0.486108 0.122053
H2    H     H_    0.713822 0.101212 0.461309 0.108094
H3    H     H_    0.851930 0.482721 0.525974 0.127989
H4    H     H_    0.213821 0.601212 0.461309 0.108094
H5    H     H_    0.833801 0.237913 0.482205 0.124769
H6    H     H_    0.142651 0.445500 0.541143 0.186141
H7    H     H_    0.333800 0.737910 0.482205 0.124765
H8    H     H_    0.642651 0.945504 0.541144 0.186143
H9    H     H_    0.648056 0.186533 0.021159 0.112625
H10   H     H_    0.399011 0.158185 0.970145 0.129801
H11   H     H_    0.148056 0.686533 0.021159 0.112625
H12   H     H_    0.284812 0.188365 0.529407 0.101510
H13   H     H_    0.899011 0.658186 0.970145 0.129801
H14   H     H_    0.483725 0.986388 0.047886 0.157885
H15   H     H_    0.575623 0.995874 0.945380 0.145396
H16   H     H_    0.983725 0.486388 0.047886 0.157884
H17   H     H_    0.075623 0.495874 0.945380 0.145396
H18   H     H_    0.529288 0.683820 0.548009 0.203408
H19   H     H_    0.463621 0.586672 0.505365 0.142290
H20   H     H_    0.504444 0.547251 0.590642 0.166264
H21   H     H_    0.569707 0.545048 0.454162 0.210182
H22   H     H_    0.550811 0.417072 0.507431 0.157556
H23   H     H_    0.132788 0.767342 0.486106 0.122051
H24   H     H_    0.630437 0.492372 0.601878 0.174469
H25   H     H_    0.652353 0.623566 0.552999 0.176948
H26   H     H_    0.475032 0.559618 0.375063 0.130127
H27   H     H_    0.494943 0.403814 0.399664 0.176220
H28   H     H_    0.459676 0.443161 0.312078 0.190857
H29   H     H_    0.355892 0.415240 0.338580 0.191723
H30   H     H_    0.370202 0.537997 0.402530 0.190432
H31   H     H_    0.419688 0.363888 0.487644 0.155321
H32   H     H_    0.379016 0.260251 0.422974 0.153388
H33   H     H_    0.029268 0.183838 0.547977 0.203416
H34   H     H_    0.784810 0.688365 0.529407 0.101510
H35   H     H_    0.963606 0.086586 0.505402 0.142288
H36   H     H_    0.004485 0.047293 0.590677 0.166270
H37   H     H_    0.069702 0.045051 0.454166 0.210176
H38   H     H_    0.050814 0.917072 0.507436 0.157562
H39   H     H_    0.130441 0.992381 0.601879 0.174467
H40   H     H_    0.152354 0.123573 0.552996 0.176949
H41   H     H_    0.975031 0.059617 0.375069 0.130130
H42   H     H_    0.994943 0.903812 0.399667 0.176218
H43   H     H_    0.959678 0.943165 0.312081 0.190857
H44   H     H_    0.855893 0.915239 0.338580 0.191723
H45   H     H_    0.743662 0.552887 0.428765 0.176668
H46   H     H_    0.870201 0.037994 0.402531 0.190434
H47   H     H_    0.919686 0.863879 0.487643 0.155318
H48   H     H_    0.879013 0.760247 0.422972 0.153389
H49   H     H_    0.794701 0.108576 0.690184 0.346831
H50   H     H_    0.038664 0.246680 0.411898 0.329766
H51   H     H_    0.294699 0.608576 0.690183 0.346832
H52   H     H_    0.538662 0.746679 0.411905 0.329768
H53   H     H_    0.601904 0.474106 0.853395 0.340208
H54   H     H_    0.389779 0.428752 0.111101 0.335952
H55   H     H_    0.101901 0.974110 0.853396 0.340207
H56   H     H_    0.340750 0.535311 0.548965 0.149644
H57   H     H_    0.889779 0.928753 0.111101 0.335952
H58   H     H_    0.243666 0.052887 0.428764 0.176668
H59   H     H_    0.840750 0.035308 0.548966 0.149644
H60   H     H_    0.351931 0.982717 0.525975 0.127991
O1    O     O_R   0.783230 0.287800 0.346510 -0.511820
O2    O     O_R   0.454570 0.285140 0.836900 -0.467097
O3    O     O_R   0.045430 0.785140 0.163100 -0.470613
O4    O     O_R   0.954570 0.785140 0.836900 -0.467095
O5    O     O_R   0.677850 0.374730 0.185500 -0.490573
O6    O     O_R   0.322150 0.374730 0.814500 -0.492390
O7    O     O_R   0.177850 0.874730 0.185500 -0.490573
O8    O     O_R   0.822150 0.874730 0.814500 -0.492391
O9    O     O_3   0.664630 0.164620 0.255130 -0.315262
O10   O     O_3   0.335370 0.164620 0.744870 -0.278533
O11   O     O_3   0.164630 0.664620 0.255130 -0.315262
O12   O     O_R   0.216770 0.287800 0.653490 -0.525271
O13   O     O_3   0.835370 0.664620 0.744870 -0.278533
O14   O     O_R   0.760130 0.037060 0.338610 -0.554670
O15   O     O_R   0.239870 0.037060 0.661390 -0.537111
O16   O     O_R   0.260130 0.537060 0.338610 -0.554670
O17   O     O_R   0.739870 0.537060 0.661390 -0.537108
O18   O     O_R   0.666620 0.921370 0.332440 -0.467775
O19   O     O_R   0.333380 0.921370 0.667560 -0.471721
O20   O     O_R   0.166620 0.421370 0.332440 -0.467774
O21   O     O_R   0.833380 0.421370 0.667560 -0.471722
O22   O     O_R   0.557170 0.082420 0.312350 -0.474865
O23   O     O_R   0.283230 0.787800 0.346510 -0.511821
O24   O     O_R   0.442830 0.082420 0.687650 -0.499994
O25   O     O_R   0.057170 0.582420 0.312350 -0.474864
O26   O     O_R   0.942830 0.582420 0.687650 -0.499995
O27   O     O_R   0.548310 0.285980 0.316250 -0.537218
O28   O     O_R   0.451690 0.285980 0.683750 -0.506568
O29   O     O_R   0.048310 0.785980 0.316250 -0.537216
O30   O     O_R   0.951690 0.785980 0.683750 -0.506566
O31   O     O_R   0.680520 0.375500 0.327470 -0.467095
O32   O     O_R   0.319480 0.375500 0.672530 -0.503966
O33   O     O_R   0.180520 0.875500 0.327470 -0.467093
O34   O     O_R   0.716770 0.787800 0.653490 -0.525272
O35   O     O_R   0.819480 0.875500 0.672530 -0.503964
O36   O     O_R   0.780350 0.286970 0.193350 -0.502521
O37   O     O_R   0.219650 0.286970 0.806650 -0.502988
O38   O     O_R   0.280350 0.786970 0.193350 -0.502521
O39   O     O_R   0.719650 0.786970 0.806650 -0.502987
O40   O     O_R   0.757460 0.036290 0.196640 -0.508703
O41   O     O_R   0.242540 0.036290 0.803360 -0.498124
O42   O     O_R   0.257460 0.536290 0.196640 -0.508703
O43   O     O_R   0.742540 0.536290 0.803360 -0.498124
O44   O     O_R   0.663740 0.920540 0.179290 -0.498283
O45   O     O_R   0.554500 0.081650 0.170370 -0.493999
O46   O     O_R   0.336260 0.920540 0.820710 -0.495636
O47   O     O_R   0.163740 0.420540 0.179290 -0.498283
O48   O     O_R   0.836260 0.420540 0.820710 -0.495636
O49   O     O_2   0.688864 0.140748 0.616393 -0.547073
O50   O     O_R   0.802656 0.164172 0.650177 -0.688941
O51   O     O_2   0.149323 0.179989 0.388059 -0.533101
O52   O     O_R   0.075623 0.288995 0.443992 -0.717491
O53   O     O_2   0.188863 0.640749 0.616392 -0.547073
O54   O     O_R   0.302654 0.664174 0.650177 -0.688942
O55   O     O_2   0.649320 0.679995 0.388059 -0.533103
O56   O     O_R   0.445500 0.081650 0.829630 -0.505269
O57   O     O_R   0.575622 0.788992 0.443999 -0.717487
O58   O     O_2   0.594908 0.470575 0.975779 -0.482225
O59   O     O_R   0.580526 0.394668 0.866627 -0.682037
O60   O     O_2   0.465770 0.478264 0.027758 -0.472013
O61   O     O_R   0.411132 0.351440 0.095485 -0.684790
O62   O     O_2   0.094910 0.970573 0.975781 -0.482228
O63   O     O_R   0.080524 0.894672 0.866626 -0.682035
O64   O     O_2   0.965770 0.978265 0.027758 -0.472014
O65   O     O_R   0.911132 0.851441 0.095485 -0.684789
O66   O     O_R   0.054500 0.581650 0.170370 -0.493999
O67   O     O_R   0.945500 0.581650 0.829630 -0.505269
O68   O     O_R   0.545430 0.285140 0.163100 -0.470613

loop_
_geom_bond_atom_site_label_1
_geom_bond_atom_site_label_2
_ccdc_geom_bond_type
Cr10  O11   S    
C101  C107  T    
C39   C51   S    
C40   O20   A    
Cr1   O40   S    
C11   H43   S    
C27   H4    S    
C52   C64   S    
C29   C42   S    
Cr2   O2    S    
C89   O41   A    
C24   C112  S    
C114  H24   S    
C31   H5    S    
C21   C87   S    
C114  C115  S    
C69   C78   T    
C19   C46   S    
C7    C8    S    
C83   O1    A    
C16   O57   S    
C57   C102  S    
C105  C107  S    
C13   C84   S    
Cr7   O17   S    
Cr11  O48   S    
Cr4   O8    S    
C15   O53   D    
C48   H9    S    
Cr9   O56   S    
C68   C77   T    
Cr11  O67   S    
C59   C104  S    
C32   C36   S    
C93   O56   A    
C24   H58   S    
H54   O61   S    
Cr3   O3    S    
C25   C113  S    
C8    H33   S    
Cr4   O4    S    
C83   C106  S    
C14   C36   S    
C14   O51   D    
C26   C39   S    
C20   O64   D    
Cr7   O39   S    
C54   C63   S    
C17   O59   S    
C18   O61   S    
C10   H44   S    
C5    H26   S    
Cr6   O38   S    
C99   O7    A    
C92   O45   A    
Cr3   O33   S    
Cr5   O37   S    
C108  C109  S    
C98   O6    A    
C9    H48   S    
C2    C32   S    
C97   O5    A    
C37   C42   S    
C61   C63   S    
C42   C112  S    
C94   O3    A    
C15   C37   S    
C54   C93   S    
C85   O32   A    
Cr9   O46   S    
C25   H59   S    
Cr12  O9    S    
C53   C61   S    
Cr11  O21   S    
C39   C110  S    
C4    H30   S    
C57   O27   A    
H57   O65   S    
C3    C111  S    
C27   C41   S    
C22   C110  S    
C13   C86   S    
C37   C84   S    
C86   O33   A    
C23   C27   S    
Cr6   O11   S    
C35   C62   S    
C60   C103  S    
C49   C54   S    
C110  C114  S    
C114  H25   S    
C72   C81   T    
C98   O37   A    
Cr8   O18   S    
H52   O57   S    
C104  C108  T    
C12   O50   S    
C7    H37   S    
C15   O54   S    
C45   C53   S    
C26   C31   S    
C49   H10   S    
Cr3   O11   S    
C3    H31   S    
Cr4   O13   S    
C62   H1    S    
C36   C41   S    
C82   C100  S    
C74   C82   T    
C55   C94   S    
C1    O14   A    
H50   O52   S    
C71   C80   T    
Cr9   O24   S    
C1    C43   S    
C73   C111  S    
C6    C7    S    
Cr6   O16   S    
C29   O15   A    
C100  O8    A    
C2    C73   S    
C48   C53   S    
Cr6   O42   S    
Cr7   O34   S    
C6    H40   S    
Cr5   O41   S    
C30   C34   S    
C52   C56   S    
C99   O38   A    
C87   O34   A    
C40   O16   A    
C20   O65   S    
C49   C61   S    
C86   O23   A    
Cr5   O15   S    
C59   O29   A    
C95   H34   S    
Cr10  O20   S    
C23   C111  S    
C116  H20   S    
Cr7   O13   S    
C50   H11   S    
C48   C63   S    
C2    C85   S    
C81   C99   S    
C14   O52   S    
C30   H2    S    
C41   C111  S    
Cr8   O9    S    
Cr9   O19   S    
C67   C90   S    
C33   C37   S    
C13   C24   S    
C91   O43   A    
C87   O35   A    
C89   O46   A    
C38   C95   S    
C100  O39   A    
C35   C39   S    
C84   H23   S    
Cr5   O12   S    
C13   C33   S    
C72   C77   S    
Cr10  O47   S    
Cr10  O25   S    
C60   O30   A    
C83   O31   A    
C56   C65   S    
C51   O21   A    
C85   O12   A    
C4    H29   S    
C62   C110  S    
C34   H8    S    
C50   C55   S    
C55   C64   S    
C115  H21   S    
C53   C92   S    
C51   O17   A    
C45   C49   S    
Cr7   O43   S    
Cr10  O66   S    
C58   C101  S    
C84   C112  S    
Cr12  O5    S    
C12   C35   S    
C1    O18   A    
Cr11  O13   S    
Cr12  O31   S    
C47   C52   S    
C69   C88   S    
Cr1   O1    S    
Cr8   O45   S    
C92   O68   A    
C12   O49   D    
C88   O44   A    
C7    H38   S    
C28   C33   S    
C11   H41   S    
Cr4   O35   S    
C6    H39   S    
C21   C95   S    
C8    H36   S    
C3    H32   S    
C31   C106  S    
C31   C35   S    
C30   C43   S    
C65   H17   S    
C3    C4    S    
Cr2   O10   S    
C18   C45   S    
C2    C23   S    
C22   H45   S    
Cr1   O9    S    
C44   C45   S    
C47   C55   S    
C9    C10   S    
C25   C30   S    
C56   C96   S    
C21   C25   S    
C46   C47   S    
C40   C41   S    
C80   C98   S    
C70   C79   T    
C34   C38   S    
Cr2   O32   S    
C6    C112  S    
C79   C97   S    
Cr11  O26   S    
C24   C28   S    
C96   O67   A    
Cr1   O14   S    
C4    C5    S    
C8    H35   S    
Cr9   O10   S    
C116  H19   S    
Cr2   O28   S    
C59   O25   A    
C19   O62   D    
C66   C91   S    
C62   C106  S    
C73   H12   S    
C58   O24   A    
Cr8   O44   S    
C5    H28   S    
C64   H16   S    
C46   C50   S    
C52   H13   S    
C29   O19   A    
C97   O36   A    
C103  C109  T    
C9    C113  S    
C64   C65   S    
C96   O4    A    
C94   O66   A    
C88   O40   A    
C17   C44   S    
C38   C43   S    
Cr6   O23   S    
C22   C106  S    
C43   C113  S    
C32   H6    S    
C116  H18   S    
C19   O63   S    
C115  C116  S    
C71   C76   S    
Cr8   O22   S    
C17   O58   D    
C95   C113  S    
C66   C75   T    
C91   O48   A    
C115  H22   S    
C28   C42   S    
Cr12  O68   S    
C28   H60   S    
C90   O47   A    
C9    H47   S    
C21   C34   S    
Cr3   O7    S    
C5    H27   S    
Cr2   O6    S    
C50   C65   S    
H55   O63   S    
Cr5   O10   S    
C20   C47   S    
C10   C11   S    
C27   C32   S    
Cr12  O27   S    
C22   C26   S    
C16   O55   D    
C44   C54   S    
C61   H14   S    
C23   H56   S    
C102  C105  T    
C70   C75   S    
C11   H42   S    
Cr4   O30   S    
C74   C78   S    
C46   C56   S    
C10   H46   S    
Cr3   O29   S    
C18   O60   D    
C63   H15   S    
H51   O54   S    
C90   O42   A    
Cr1   O36   S    
C60   O26   A    
C67   C76   T    
H53   O59   S    
C68   C89   S    
C33   H7    S    
C36   C73   S    
C57   O22   A    
C93   O2    A    
C26   H3    S    
C44   C48   S    
C16   C38   S    
H49   O50   S    
C58   O28   A    
