data_mof_unit_1448.cif
_audit_creation_date              2012-12-10T19:23:58-0500
_audit_creation_method            fapswitch 2.2
_symmetry_space_group_name_H-M    P1
_symmetry_Int_Tables_number       1
_space_group_crystal_system       triclinic
_cell_length_a                    17.652701
_cell_length_b                    16.550372
_cell_length_c                    10.839544
_cell_angle_alpha                 89.558222
_cell_angle_beta                  91.340965
_cell_angle_gamma                 89.03144
_cell_volume                      3165.44408194

loop_
_atom_site_label
_atom_site_type_symbol
_atom_type_description
_atom_site_fract_x
_atom_site_fract_y
_atom_site_fract_z
_atom_type_partial_charge
C1    C     C_R   0.355692 0.500438 0.499336 0.763464
C2    C     C_R   0.644604 0.499329 0.496975 0.810005
C3    C     C_R   0.727464 0.497439 0.488770 -0.004309
C4    C     C_R   0.273325 0.500624 0.494203 0.023429
C5    C     C_R   0.769173 0.428036 0.525382 -0.196325
C6    C     C_R   0.235277 0.485206 0.382199 -0.202903
C7    C     C_R   0.848035 0.427040 0.520812 -0.192534
C8    C     C_R   0.156287 0.484088 0.377073 -0.161027
C9    C     C_R   0.885586 0.494921 0.477487 0.151170
C10   C     C_R   0.115409 0.497365 0.484295 0.139092
C11   C     C_1   0.966524 0.495245 0.477577 -0.075472
C12   C     C_1   0.034479 0.496046 0.479664 -0.079459
C13   C     C_R   0.560990 0.829551 0.558002 -0.045871
C14   C     C_R   0.452506 0.832288 0.417968 -0.041789
C15   C     C_R   0.554962 0.743020 0.566626 0.107639
C16   C     C_R   0.443736 0.747308 0.440004 0.121581
C17   C     C_R   0.510021 0.874371 0.481109 0.060453
C18   C     C_1   0.510342 0.964412 0.479911 -0.042330
C19   C     C_1   0.508920 0.038639 0.482362 -0.060275
C20   C     C_R   0.499432 0.500066 0.262410 0.807335
C21   C     C_R   0.501042 0.499550 0.737589 0.820959
C22   C     C_R   0.565469 0.171277 0.542394 -0.294611
C23   C     C_R   0.443694 0.172222 0.438711 -0.281314
C24   C     C_R   0.561441 0.256509 0.547146 0.072063
C25   C     C_R   0.441878 0.257514 0.445249 0.071417
C26   C     C_R   0.506110 0.127784 0.487573 0.150765
C27   C     C_R   0.372344 0.567035 0.120558 -0.182647
C28   C     C_R   0.377796 0.576353 0.864548 -0.191046
C29   C     C_R   0.312220 0.602136 0.052546 -0.148520
C30   C     C_R   0.315557 0.608135 0.925108 -0.155042
C31   C     C_R   0.438700 0.538299 0.931246 0.083182
C32   C     C_R   0.436936 0.535996 0.061289 0.082045
C33   C     C_R   0.497882 0.499201 0.128569 -0.171278
C34   C     C_R   0.498723 0.498389 0.871105 -0.159168
C35   C     C_R   0.555849 0.456989 0.067950 -0.071137
C36   C     C_R   0.554772 0.454110 0.938936 -0.068515
C37   C     C_R   0.844333 0.563046 0.435997 -0.184749
C38   C     C_R   0.153377 0.511640 0.596586 -0.164971
C39   C     C_R   0.765490 0.564023 0.440568 -0.218480
C40   C     C_R   0.232322 0.513027 0.601589 -0.191114
Cu1   Cu    Cu3+1 0.500000 0.580420 0.500000 0.939192
Cu2   Cu    Cu3+1 0.500000 0.419580 0.500000 0.944797
H1    H     H_    0.614944 0.139680 0.580756 0.130744
H2    H     H_    0.396729 0.141280 0.395061 0.136009
H3    H     H_    0.608432 0.288819 0.587207 0.138872
H4    H     H_    0.393985 0.290464 0.404704 0.123980
H5    H     H_    0.366818 0.562494 0.219402 0.132922
H6    H     H_    0.375984 0.579952 0.765130 0.145144
H7    H     H_    0.262526 0.624319 0.098493 0.124397
H8    H     H_    0.268901 0.635749 0.872633 0.122791
H9    H     H_    0.873069 0.615307 0.400304 0.128564
H10   H     H_    0.122009 0.521636 0.680008 0.127468
H11   H     H_    0.734258 0.616195 0.404601 0.136471
H12   H     H_    0.261196 0.523413 0.688885 0.120399
H13   H     H_    0.740834 0.374728 0.557813 0.152080
H14   H     H_    0.266636 0.474272 0.299115 0.120051
H15   H     H_    0.879644 0.373636 0.551591 0.128591
H16   H     H_    0.127181 0.472697 0.289975 0.128563
N1    N     N_R   0.500000 0.701220 0.500000 -0.220065
N2    N     N_R   0.500000 0.298780 0.500000 -0.167914
O1    O     O_R   0.391260 0.567930 0.500000 -0.575797
O2    O     O_R   0.608740 0.567930 0.500000 -0.583305
O3    O     O_R   0.391280 0.432120 0.500000 -0.588983
O4    O     O_R   0.608720 0.432120 0.500000 -0.585341
O5    O     O_R   0.500000 0.567920 0.319650 -0.581346
O6    O     O_R   0.500000 0.567920 0.680350 -0.588108
O7    O     O_R   0.500030 0.432100 0.319660 -0.581297
O8    O     O_R   0.499970 0.432100 0.680340 -0.573734
C41   C     C_R   0.618427 0.415263 0.138618 0.133144
C42   C     C_R   0.609758 0.335669 0.181222 -0.071509
C43   C     C_R   0.670225 0.294852 0.241087 -0.140494
C44   C     C_R   0.740029 0.332567 0.256220 -0.111888
C45   C     C_R   0.749192 0.411478 0.212779 -0.111548
C46   C     C_R   0.688391 0.453127 0.155211 -0.171716
H17   H     H_    0.556356 0.305349 0.167494 0.119069
H18   H     H_    0.663179 0.233745 0.274676 0.125221
H19   H     H_    0.787009 0.300724 0.301764 0.122881
H20   H     H_    0.803350 0.440495 0.224249 0.141429
H21   H     H_    0.696105 0.514142 0.121494 0.114694
C47   C     C_R   0.611205 0.401260 0.877902 0.145249
C48   C     C_R   0.683058 0.430359 0.850581 -0.148806
C49   C     C_R   0.740417 0.377136 0.814089 -0.143321
C50   C     C_R   0.726051 0.294726 0.802667 -0.138694
C51   C     C_R   0.654415 0.265349 0.828924 -0.170463
C52   C     C_R   0.597070 0.318388 0.866325 -0.106533
H22   H     H_    0.695560 0.493351 0.862578 0.133551
H23   H     H_    0.796213 0.399725 0.795479 0.135529
H24   H     H_    0.770505 0.253630 0.774065 0.122164
H25   H     H_    0.643436 0.201438 0.820982 0.126179
H26   H     H_    0.542412 0.294691 0.889931 0.121243
C53   C     C_3   0.620385 0.875623 0.633274 -0.399941
C54   C     C_3   0.687018 0.899242 0.552896 -0.326199
C55   C     C_3   0.745524 0.946981 0.626595 -0.869507
H27   H     H_    0.719434 0.003557 0.661904 0.248481
H28   H     H_    0.768514 0.910162 0.705459 0.256027
H29   H     H_    0.793010 0.963091 0.566202 0.239216
H30   H     H_    0.714782 0.843916 0.516455 0.208710
H31   H     H_    0.666504 0.936790 0.473140 0.223986
H32   H     H_    0.594091 0.930608 0.673514 0.201587
H33   H     H_    0.642559 0.841131 0.714625 0.204873
C56   C     C_3   0.397518 0.879862 0.333187 -0.392555
C57   C     C_3   0.332366 0.919391 0.403928 -0.325107
C58   C     C_3   0.282015 0.971782 0.318282 -0.865722
H34   H     H_    0.315391 0.021080 0.277187 0.249162
H35   H     H_    0.257047 0.934550 0.243328 0.255373
H36   H     H_    0.235286 0.999219 0.371489 0.241233
H37   H     H_    0.296876 0.872439 0.445995 0.231270
H38   H     H_    0.355096 0.957732 0.479316 0.222572
H39   H     H_    0.428886 0.927262 0.283314 0.202794
H40   H     H_    0.374611 0.841144 0.258914 0.186920
C59   C     C_R   0.600269 0.702256 0.666215 0.186512
C60   C     C_R   0.678039 0.686979 0.652008 -0.131543
C61   C     C_R   0.723536 0.661299 0.752550 -0.158110
C62   C     C_R   0.692338 0.653705 0.869281 -0.159806
C63   C     C_R   0.615580 0.671277 0.885440 -0.151933
C64   C     C_R   0.570084 0.697103 0.784984 -0.137307
H41   H     H_    0.703687 0.698003 0.564212 0.114547
H42   H     H_    0.783311 0.649035 0.740477 0.139097
H43   H     H_    0.727733 0.634533 0.947348 0.122094
H44   H     H_    0.591573 0.666050 0.976087 0.141104
H45   H     H_    0.511330 0.713605 0.799620 0.125755
C65   C     C_R   0.364291 0.721407 0.446484 0.192830
C66   C     C_R   0.329488 0.722978 0.562038 -0.144651
C67   C     C_R   0.251757 0.710316 0.570652 -0.171239
C68   C     C_R   0.207996 0.696499 0.464196 -0.076930
C69   C     C_R   0.242092 0.694271 0.349280 -0.142989
C70   C     C_R   0.320062 0.706389 0.340233 -0.183517
H46   H     H_    0.362404 0.735827 0.645002 0.112611
H47   H     H_    0.225334 0.711911 0.659703 0.122089
H48   H     H_    0.147672 0.687270 0.470766 0.126671
H49   H     H_    0.207577 0.684387 0.267314 0.118750
H50   H     H_    0.345487 0.707229 0.250602 0.122559

loop_
_geom_bond_atom_site_label_1
_geom_bond_atom_site_label_2
_ccdc_geom_bond_type
C55   H27   S    
C21   O6    A    
C27   C29   A    
Cu1   Cu2   S    
C20   O7    A    
C59   C60   A    
Cu1   O1    S    
C48   C49   A    
C54   H31   S    
C66   C67   A    
C29   H7    S    
C47   C52   A    
C50   C51   A    
C24   H3    S    
C60   H41   S    
C37   H9    S    
C38   H10   S    
Cu2   O7    S    
C56   H39   S    
C49   H23   S    
C18   C19   T    
C45   C46   A    
C23   C26   A    
C65   C70   A    
C19   C26   S    
C16   C65   S    
C70   H50   S    
C44   H19   S    
C8    H16   S    
C68   H48   S    
C4    C40   A    
C45   H20   S    
C57   H38   S    
C59   C64   A    
C25   N2    A    
C53   H33   S    
C48   H22   S    
C50   H24   S    
C30   H8    S    
C3    C39   A    
C55   H28   S    
C13   C53   S    
Cu2   O8    S    
C14   C17   A    
C41   C42   A    
Cu1   O2    S    
C1    O3    A    
C60   C61   A    
C2    O4    A    
C54   H30   S    
C62   C63   A    
C14   C16   A    
C64   H45   S    
C56   C57   S    
C15   C59   S    
C20   O5    A    
C41   C46   A    
C51   C52   A    
Cu1   N1    S    
C4    C6    A    
C36   C47   S    
Cu2   N2    S    
C53   C54   S    
C5    C7    A    
C47   C48   A    
C14   C56   S    
Cu1   O5    S    
C21   C34   S    
C56   H40   S    
C23   H2    S    
C35   C36   A    
C29   C30   A    
C31   C32   A    
C63   C64   A    
C24   N2    A    
C9    C37   A    
C17   C18   S    
C31   C34   A    
C57   H37   S    
C58   H35   S    
C9    C11   S    
C42   C43   A    
C10   C12   S    
C20   C33   S    
C49   C50   A    
C55   H29   S    
C40   H12   S    
C46   H21   S    
C13   C15   A    
C21   O8    A    
C68   C69   A    
C22   C24   A    
C51   H25   S    
Cu2   O4    S    
C43   H18   S    
C58   H34   S    
C61   C62   A    
C27   H5    S    
C7    C9    A    
C28   H6    S    
C27   C32   A    
C15   N1    A    
C5    H13   S    
C28   C31   A    
C62   H43   S    
C6    H14   S    
C44   C45   A    
C3    C5    A    
C1    O1    A    
C6    C8    A    
C52   H26   S    
Cu1   O6    S    
C13   C17   A    
C10   C38   A    
C1    C4    S    
C32   C33   A    
C28   C30   A    
C2    C3    S    
C43   C44   A    
C37   C39   A    
C38   C40   A    
C66   H46   S    
C39   H11   S    
C69   H49   S    
C69   C70   A    
Cu2   O3    S    
C54   C55   S    
C33   C35   A    
C7    H15   S    
C67   H47   S    
C58   H36   S    
C34   C36   A    
C23   C25   A    
C57   C58   S    
C61   H42   S    
C35   C41   S    
C8    C10   A    
C63   H44   S    
C22   C26   A    
C42   H17   S    
C53   H32   S    
C65   C66   A    
C25   H4    S    
C16   N1    A    
C22   H1    S    
C2    O2    A    
C11   C12   T    
C67   C68   A    
