data_mof_unit_468.cif
_audit_creation_date              2012-12-10T19:01:22-0500
_audit_creation_method            fapswitch 2.2
_symmetry_space_group_name_H-M    P1
_symmetry_Int_Tables_number       1
_space_group_crystal_system       triclinic
_cell_length_a                    9.544786
_cell_length_b                    10.810208
_cell_length_c                    15.481267
_cell_angle_alpha                 89.856937
_cell_angle_beta                  74.375218
_cell_angle_gamma                 90.084098
_cell_volume                      1538.33678482

loop_
_atom_site_label
_atom_site_type_symbol
_atom_type_description
_atom_site_fract_x
_atom_site_fract_y
_atom_site_fract_z
_atom_type_partial_charge
C1    C     C_R   0.001159 0.262524 0.496750 0.874920
C2    C     C_R   0.676581 0.516492 0.908885 0.097694
C3    C     C_R   0.777757 0.485650 0.957825 0.156145
C4    C     C_R   0.527919 0.537738 0.955190 0.067867
C5    C     C_R   0.480346 0.516076 0.049343 0.071915
C6    C     C_R   0.585562 0.487482 0.095670 -0.164317
C7    C     C_R   0.731237 0.473354 0.050604 -0.210137
C8    C     C_R   0.425846 0.581791 0.910844 -0.194151
C9    C     C_R   0.280728 0.598726 0.956376 -0.212043
C10   C     C_R   0.231036 0.570785 0.047255 0.155728
C11   C     C_R   0.329541 0.526866 0.094372 0.103471
C12   C     C_R   0.918228 0.499996 0.672145 0.859143
C13   C     C_R   0.083503 0.587642 0.091877 -0.196915
C14   C     C_R   0.032020 0.561123 0.183023 -0.177019
C15   C     C_R   0.273195 0.495069 0.185159 -0.180966
C16   C     C_R   0.107301 0.063893 0.520895 -0.022918
C17   C     C_R   0.005254 0.129300 0.489142 -0.105414
C18   C     C_R   0.914903 0.062786 0.446326 0.256621
C19   C     C_R   0.915604 0.933450 0.448464 -0.213161
C20   C     C_R   0.005822 0.870307 0.491827 -0.072449
C21   C     C_R   0.108322 0.937240 0.521753 0.008343
C22   C     C_3   0.156832 0.931207 0.606007 0.092372
C23   C     C_R   0.000820 0.737439 0.498768 0.867029
C24   C     C_3   0.155740 0.073232 0.605015 0.088176
C25   C     C_R   0.602005 0.563207 0.435489 0.214781
C26   C     C_R   0.548804 0.428260 0.558289 -0.027024
C27   C     C_R   0.399850 0.428382 0.558382 -0.073424
C28   C     C_R   0.454675 0.562911 0.435237 0.241054
C29   C     C_3   0.457249 0.698550 0.416892 0.058597
C30   C     C_3   0.615943 0.698793 0.417567 -0.527966
C31   C     C_R   0.081763 0.501955 0.327931 0.815774
C32   C     C_R   0.873274 0.499380 0.770549 -0.017710
C33   C     C_R   0.127388 0.515943 0.230156 -0.034868
C34   C     C_R   0.924797 0.466141 0.913286 -0.181627
C35   C     C_R   0.972637 0.474250 0.820234 -0.120146
C36   C     C_R   0.727059 0.520608 0.814865 -0.212647
Cu1   Cu    Cu3+1 0.140670 0.499980 0.500000 0.991585
Cu2   Cu    Cu3+1 0.859330 0.500020 0.500000 0.991861
H1    H     H_    0.807760 0.450752 0.088776 0.156420
H2    H     H_    0.008515 0.623783 0.056578 0.153483
H3    H     H_    0.844320 0.882802 0.417449 0.174025
H4    H     H_    0.268495 0.893018 0.593392 0.100992
H5    H     H_    0.266721 0.113696 0.591505 0.114892
H6    H     H_    0.583374 0.371950 0.606593 0.151910
H7    H     H_    0.322657 0.372361 0.606803 0.153970
H8    H     H_    0.340467 0.453674 0.223001 0.156581
H9    H     H_    0.386567 0.752467 0.472727 0.149467
H10   H     H_    0.693480 0.719900 0.351542 0.225737
H11   H     H_    0.634335 0.751540 0.475052 0.200985
H12   H     H_    0.918905 0.578815 0.216928 0.161567
H13   H     H_    0.206629 0.633619 0.919906 0.163730
H14   H     H_    0.002469 0.442524 0.950366 0.144964
H15   H     H_    0.086227 0.457302 0.787149 0.159962
H16   H     H_    0.653675 0.536248 0.774076 0.146539
H17   H     H_    0.560000 0.478517 0.167517 0.165162
H18   H     H_    0.455083 0.608216 0.841169 0.151122
N1    N     N_R   0.648210 0.500930 0.499430 -0.182018
N2    N     N_R   0.352300 0.500890 0.499430 -0.209542
O1    O     O_R   0.118810 0.319640 0.500000 -0.581757
O2    O     O_R   0.881230 0.319680 0.499990 -0.542541
O3    O     O_R   0.055580 0.499970 0.629840 -0.575656
O4    O     O_R   0.818000 0.500010 0.629830 -0.594733
O5    O     O_R   0.118770 0.680320 0.500010 -0.573954
O6    O     O_R   0.881190 0.680360 0.500000 -0.593912
O7    O     O_R   0.182000 0.499990 0.370170 -0.566296
O8    O     O_R   0.944420 0.500030 0.370160 -0.577510
Br1   Br    Br    0.788687 0.140345 0.384323 -0.488824
Br2   Br    Br    0.016965 0.848522 0.705043 -0.449793
Br3   Br    Br    0.014418 0.155052 0.703177 -0.462901
Br4   Br    Br    0.429800 0.734619 0.299687 -0.500247

loop_
_geom_bond_atom_site_label_1
_geom_bond_atom_site_label_2
_ccdc_geom_bond_type
C8    C9    A    
C31   O8    A    
Cu1   O3    S    
C31   C33   S    
C16   C21   A    
Cu1   Cu2   S    
C15   H8    S    
C28   N2    A    
C35   H15   S    
C29   C30   S    
C12   O4    A    
C9    C10   A    
C2    C4    A    
Cu1   N2    S    
C9    H13   S    
C20   C23   S    
C6    H17   S    
C4    C8    A    
C8    H18   S    
C14   C33   A    
C23   O5    A    
C17   C18   A    
C26   H6    S    
C16   C24   S    
C19   H3    S    
Cu1   O1    S    
C21   C22   S    
C12   C32   S    
C25   C28   A    
C12   O3    A    
C22   Br2   S    
C26   C27   A    
C22   H4    S    
C27   N2    A    
C25   N1    A    
C24   H5    S    
C29   H9    S    
Cu2   O2    S    
C32   C36   A    
C30   H10   S    
C23   O6    A    
Cu1   O5    S    
C30   H11   S    
C24   Br3   S    
C5    C11   A    
C6    C7    A    
C3    C7    A    
C1    C17   S    
C1    O1    A    
C5    C6    A    
C34   C35   A    
C26   N1    A    
C22   C24   S    
C36   H16   S    
C27   H7    S    
C14   H12   S    
C13   C14   A    
Cu2   N1    S    
C32   C35   A    
Cu2   O8    S    
C20   C21   A    
C18   C19   A    
C10   C11   A    
C1    O2    A    
C2    C36   A    
C25   C30   S    
C31   O7    A    
Cu2   O6    S    
C7    H1    S    
C28   C29   S    
C13   H2    S    
C2    C3    A    
C34   H14   S    
C3    C34   A    
C18   Br1   S    
C29   Br4   S    
C11   C15   A    
C15   C33   A    
C19   C20   A    
C16   C17   A    
C4    C5    A    
Cu2   O4    S    
C10   C13   A    
Cu1   O7    S    
