data_mof_unit_34.cif
_audit_creation_date              2012-10-26T21:19:40-0400
_audit_creation_method            fapswitch 2.2
_symmetry_space_group_name_H-M    P1
_symmetry_Int_Tables_number       1
_space_group_crystal_system       triclinic
_cell_length_a                    10.931037
_cell_length_b                    15.068454
_cell_length_c                    13.992208
_cell_angle_alpha                 92.013489
_cell_angle_beta                  91.865368
_cell_angle_gamma                 92.053313
_cell_volume                      2300.4889767

loop_
_atom_site_label
_atom_site_type_symbol
_atom_type_description
_atom_site_fract_x
_atom_site_fract_y
_atom_site_fract_z
_atom_type_partial_charge
C1    C     C_R   0.500443 0.330157 0.498786 0.539856
C2    C     C_R   0.563199 0.811218 0.429249 -0.111584
C3    C     C_R   0.505224 0.233858 0.497563 0.006278
C4    C     C_R   0.505912 0.766914 0.503127 0.000906
C5    C     C_R   0.429661 0.181527 0.433999 -0.150583
C6    C     C_R   0.451887 0.815433 0.576540 -0.151079
C7    C     C_R   0.431363 0.089499 0.436695 -0.136612
C8    C     C_R   0.453347 0.907676 0.575262 -0.139403
C9    C     C_R   0.509602 0.049203 0.502121 0.045019
C10   C     C_R   0.510292 0.952119 0.501447 0.045462
C11   C     C_R   0.552269 0.572507 0.113398 -0.156437
C12   C     C_R   0.501268 0.670040 0.501317 0.540560
C13   C     C_R   0.445732 0.428673 0.886598 -0.156284
C14   C     C_R   0.552503 0.569981 0.214006 0.032000
C15   C     C_R   0.445374 0.430987 0.786054 0.029534
C16   C     C_R   0.262237 0.499779 0.498274 0.544644
C17   C     C_R   0.737734 0.499855 0.501753 0.542035
C18   C     C_R   0.447320 0.430213 0.203299 0.153977
C19   C     C_R   0.555264 0.569050 0.796349 0.151597
C20   C     C_R   0.450684 0.429429 0.103040 -0.110545
C21   C     C_R   0.553327 0.569636 0.896693 -0.110633
C22   C     C_R   0.501043 0.500913 0.054651 0.006198
C23   C     C_R   0.871673 0.498696 0.504356 -0.007850
C24   C     C_R   0.500147 0.499234 0.945210 0.006171
C25   C     C_R   0.172087 0.541826 0.168251 -0.087894
C26   C     C_R   0.825890 0.449039 0.829472 -0.087437
C27   C     C_R   0.150378 0.549258 0.265885 -0.096363
C28   C     C_R   0.848215 0.444717 0.731807 -0.096057
C29   C     C_R   0.101990 0.476622 0.313470 0.022904
C30   C     C_R   0.897679 0.518757 0.687189 0.024165
C31   C     C_R   0.076110 0.396165 0.262409 -0.137641
C32   C     C_R   0.923838 0.597526 0.741293 -0.137314
C33   C     C_R   0.095958 0.387765 0.164048 0.018652
C34   C     C_R   0.128244 0.500354 0.495834 -0.007252
C35   C     C_R   0.903012 0.602889 0.839688 0.017292
C36   C     C_R   0.143339 0.461741 0.115301 0.201492
C37   C     C_R   0.854816 0.527368 0.885458 0.201028
C38   C     C_R   0.928358 0.488349 0.416587 -0.152778
C39   C     C_R   0.071549 0.510593 0.583655 -0.152954
C40   C     C_3   0.177400 0.533844 0.960552 -0.297895
C41   C     C_3   0.818174 0.450195 0.037024 -0.296293
C42   C     C_3   0.386432 0.350532 0.245366 -0.336819
C43   C     C_3   0.617749 0.648054 0.753750 -0.328791
C44   C     C_3   0.061280 0.299641 0.114207 -0.423553
C45   C     C_R   0.944883 0.509368 0.589589 -0.027164
C46   C     C_3   0.937748 0.689489 0.892768 -0.424856
C47   C     C_3   0.674149 0.059921 0.635489 -0.407537
C48   C     C_3   0.632196 0.950091 0.349427 -0.407122
C49   C     C_R   0.054976 0.488912 0.410747 -0.027396
C50   C     C_R   0.586773 0.101509 0.566170 0.006652
C51   C     C_R   0.566785 0.903891 0.427954 0.007395
C52   C     C_R   0.582898 0.193989 0.563723 -0.110818
Cu1   Cu    Cu3+1 0.500000 0.499990 0.596430 0.918142
Cu2   Cu    Cu3+1 0.500000 0.500010 0.403570 0.921263
H1    H     H_    0.371486 0.049388 0.387860 0.108219
H2    H     H_    0.787219 0.390210 0.860730 0.098699
H3    H     H_    0.167975 0.612530 0.303905 0.116922
H4    H     H_    0.830263 0.382692 0.691422 0.109360
H5    H     H_    0.035861 0.340524 0.298937 0.110642
H6    H     H_    0.964783 0.654264 0.707064 0.110586
H7    H     H_    0.873681 0.479792 0.350571 0.142258
H8    H     H_    0.126243 0.518962 0.649674 0.140943
H9    H     H_    0.641250 0.235248 0.612697 0.111413
H10   H     H_    0.606164 0.773422 0.373048 0.110022
H11   H     H_    0.366913 0.211642 0.384454 0.100846
H12   H     H_    0.409600 0.944673 0.631618 0.107635
H13   H     H_    0.406133 0.782034 0.633415 0.115017
H14   H     H_    0.210211 0.401463 0.991702 0.236842
H15   H     H_    0.169241 0.516380 0.882785 0.150986
H16   H     H_    0.269298 0.565221 0.976965 0.141552
H17   H     H_    0.106201 0.581637 0.978157 0.173156
H18   H     H_    0.788404 0.584027 0.011222 0.238638
H19   H     H_    0.825369 0.465126 0.115334 0.151615
H20   H     H_    0.888993 0.402314 0.018392 0.170852
H21   H     H_    0.725869 0.420164 0.018843 0.140356
H22   H     H_    0.329041 0.369954 0.305607 0.183506
H23   H     H_    0.593556 0.631126 0.084323 0.074087
H24   H     H_    0.324218 0.313815 0.192383 0.074805
H25   H     H_    0.457131 0.303142 0.265718 0.133247
H26   H     H_    0.674131 0.628071 0.693193 0.187503
H27   H     H_    0.548689 0.696599 0.733432 0.128431
H28   H     H_    0.681004 0.684078 0.806443 0.075654
H29   H     H_    0.070723 0.299871 0.035687 0.135733
H30   H     H_    0.119568 0.247355 0.143115 0.116520
H31   H     H_    0.964118 0.281606 0.127718 0.118233
H32   H     H_    0.927763 0.686819 0.971095 0.135187
H33   H     H_    0.035080 0.707833 0.880235 0.116827
H34   H     H_    0.401623 0.371147 0.915673 0.075932
H35   H     H_    0.880070 0.742904 0.865669 0.117985
H36   H     H_    0.622238 0.019815 0.686609 0.129119
H37   H     H_    0.736367 0.016382 0.595750 0.137077
H38   H     H_    0.731233 0.110929 0.677388 0.113801
H39   H     H_    0.566282 0.987795 0.306313 0.130290
H40   H     H_    0.704831 0.996593 0.381095 0.137431
H41   H     H_    0.676044 0.902083 0.300458 0.112363
H42   H     H_    0.594955 0.624920 0.256110 0.118597
H43   H     H_    0.400931 0.376795 0.743968 0.127003
H44   H     H_    0.412886 0.371350 0.064283 0.082071
H45   H     H_    0.594837 0.626487 0.935431 0.081672
H46   H     H_    0.210136 0.599607 0.134608 0.100729
N1    N     N_R   0.500000 0.500020 0.258690 -0.212042
N2    N     N_R   0.500000 0.499980 0.741310 -0.213766
N3    N     N_2   0.160280 0.454406 0.014397 -0.516941
N4    N     N_2   0.837424 0.531370 0.986459 -0.515753
O1    O     O_R   0.500010 0.371450 0.581430 -0.511952
O2    O     O_R   0.499990 0.628550 0.418570 -0.512094
O3    O     O_R   0.500010 0.371460 0.418560 -0.515665
O4    O     O_R   0.499990 0.628540 0.581440 -0.518243
O5    O     O_R   0.319640 0.500000 0.581430 -0.509010
O6    O     O_R   0.680360 0.500000 0.418570 -0.509044
O7    O     O_R   0.319640 0.500010 0.418560 -0.500591
O8    O     O_R   0.680360 0.499990 0.581440 -0.503540

loop_
_geom_bond_atom_site_label_1
_geom_bond_atom_site_label_2
_ccdc_geom_bond_type
C12   O2    A    
C8    H12   S    
C23   C45   A    
C40   H17   S    
C27   C29   A    
C47   H38   S    
C30   C45   S    
H14   N3    S    
C7    H1    S    
C44   H29   S    
C17   O6    A    
C46   H35   S    
C29   C49   S    
Cu1   Cu2   S    
C17   C23   S    
C40   H16   S    
Cu2   O3    S    
C36   N3    S    
C19   C21   A    
C18   C42   S    
C21   H45   S    
C19   N2    A    
C33   C36   A    
Cu2   O6    S    
C31   H5    S    
C40   H15   S    
C11   H23   S    
C16   C34   S    
C41   H20   S    
C48   C51   S    
C2    H10   S    
C50   C52   A    
C31   C33   A    
C4    C12   S    
C9    C10   S    
C39   C45   A    
C38   H7    S    
C42   H25   S    
C15   H43   S    
C10   C51   A    
C14   H42   S    
C19   C43   S    
C16   O5    A    
C47   C50   S    
C48   H39   S    
Cu2   O2    S    
C34   C39   A    
C32   C35   A    
C5    H11   S    
C27   H3    S    
C48   H41   S    
C5    C7    A    
C14   N1    A    
C6    C8    A    
H18   N4    S    
C44   H30   S    
C43   H26   S    
C13   C24   A    
C1    C3    S    
C18   N1    A    
C2    C4    A    
C41   H21   S    
C25   H46   S    
Cu1   N2    S    
Cu2   N1    S    
C48   H40   S    
C1    O3    A    
Cu1   O8    S    
C4    C6    A    
C6    H13   S    
C20   C22   A    
C42   H24   S    
C13   C15   A    
C43   H27   S    
C47   H36   S    
C22   C24   S    
C32   H6    S    
C44   H31   S    
C17   O8    A    
C38   C49   A    
C12   O4    A    
C46   H33   S    
Cu1   O5    S    
C7    C9    A    
C39   H8    S    
C34   C49   A    
C35   C37   A    
C33   C44   S    
C47   H37   S    
C9    C50   A    
C3    C5    A    
C52   H9    S    
C26   H2    S    
C37   N4    S    
C3    C52   A    
C26   C37   A    
C28   H4    S    
C25   C27   A    
C23   C38   A    
C11   C22   A    
C26   C28   A    
C41   N4    S    
C28   C30   A    
C29   C31   A    
C40   N3    S    
C30   C32   A    
Cu1   O4    S    
C13   H34   S    
C11   C14   A    
C42   H22   S    
Cu2   O7    S    
C18   C20   A    
C15   N2    A    
C2    C51   A    
C25   C36   A    
C41   H19   S    
Cu1   O1    S    
C20   H44   S    
C8    C10   A    
C21   C24   A    
C43   H28   S    
C35   C46   S    
C16   O7    A    
C1    O1    A    
C46   H32   S    
