data_mof_unit_3238.cif
_audit_creation_date              2012-12-11T15:38:57-0500
_audit_creation_method            fapswitch 2.2
_symmetry_space_group_name_H-M    P1
_symmetry_Int_Tables_number       1
_space_group_crystal_system       triclinic
_cell_length_a                    14.364952
_cell_length_b                    14.835033
_cell_length_c                    33.196486
_cell_angle_alpha                 97.971882
_cell_angle_beta                  89.967564
_cell_angle_gamma                 119.148652
_cell_volume                      6100.33780635

loop_
_atom_site_label
_atom_site_type_symbol
_atom_type_description
_atom_site_fract_x
_atom_site_fract_y
_atom_site_fract_z
_atom_type_partial_charge
C1    C     C_R   0.618074 0.909035 0.437130 0.590556
C2    C     C_R   0.711201 0.434712 0.949739 0.596413
C3    C     C_R   0.647195 0.898177 0.787269 0.152715
C4    C     C_R   0.663921 0.909449 0.746007 0.166055
C5    C     C_R   0.624144 0.819236 0.715573 0.061100
C6    C     C_R   0.562080 0.718043 0.726652 0.193919
C7    C     C_R   0.541412 0.708770 0.767724 0.149598
C8    C     C_R   0.590534 0.797549 0.797915 0.029822
C9    C     C_R   0.529377 0.792400 0.649113 0.097112
C10   C     C_R   0.526494 0.800533 0.607765 0.081950
C11   C     C_R   0.721112 0.902442 0.612434 0.200408
C12   C     C_3   0.953543 0.396468 0.188314 -0.263384
C13   C     C_R   0.709444 0.741246 0.951470 0.576215
C14   C     C_3   0.199514 0.654768 0.178860 -0.217696
C15   C     C_3   0.788362 0.279306 0.057598 -0.259396
C16   C     C_3   0.503976 0.611363 0.285765 -0.194632
C17   C     C_3   0.871281 0.248474 0.345887 -0.215067
C18   C     C_3   0.882391 0.338739 0.719909 -0.285656
C19   C     C_3   0.855510 0.246104 0.604193 -0.226477
C20   C     C_3   0.418157 0.306038 0.615555 -0.286497
C21   C     C_3   0.423156 0.287220 0.809281 -0.257935
C22   C     C_3   0.662263 0.507209 0.703395 -0.227076
C23   C     C_3   0.137655 0.611267 0.659820 -0.286845
C24   C     C_R   0.792080 0.378065 0.156591 0.192209
C25   C     C_3   0.169546 0.076449 0.685309 -0.235058
C26   C     C_3   0.134128 0.011257 0.552201 -0.235135
C27   C     C_3   0.827236 0.081221 0.752123 -0.213726
C28   C     C_3   0.627418 0.042283 0.821671 -0.221443
C29   C     C_3   0.411772 0.549644 0.691697 -0.258898
C30   C     C_3   0.511162 0.544337 0.788186 -0.283782
C31   C     C_3   0.402021 0.820047 0.688251 -0.258366
C32   C     C_3   0.401148 0.641965 0.564249 -0.233790
C33   C     C_3   0.924570 0.632665 0.235008 -0.293801
C34   C     C_R   0.792257 0.398245 0.116253 0.123361
C35   C     C_R   0.691215 0.294613 0.239147 0.261941
C36   C     C_R   0.684585 0.283546 0.280083 -0.057625
C37   C     C_R   0.721638 0.371294 0.310337 -0.014140
C38   C     C_R   0.767993 0.471365 0.299985 -0.082122
C39   C     C_R   0.777074 0.484695 0.258981 0.101139
C40   C     C_R   0.737569 0.395280 0.228211 0.067144
C41   C     C_R   0.734533 0.407018 0.185082 0.073315
C42   C     C_R   0.609032 0.345090 0.368659 0.237110
C43   C     C_R   0.594496 0.205684 0.456751 0.542053
C44   C     C_R   0.576658 0.302605 0.404372 -0.080162
C45   C     C_R   0.737898 0.290026 0.410620 -0.090877
C46   C     C_R   0.770773 0.330905 0.374506 0.106566
C47   C     C_R   0.704005 0.355436 0.352738 0.029001
C48   C     C_R   0.638385 0.270408 0.424509 -0.058739
C49   C     C_R   0.242090 0.874353 0.393414 -0.061596
C50   C     C_R   0.212513 0.944951 0.380654 0.237169
C51   C     C_R   0.190862 0.940358 0.338775 0.248131
C52   C     C_R   0.723243 0.880606 0.652420 0.240635
C53   C     C_R   0.196270 0.864456 0.309902 -0.004014
C54   C     C_R   0.214327 0.788051 0.322978 0.184813
C55   C     C_R   0.294467 0.891974 0.434575 0.569639
C56   C     C_R   0.236730 0.793161 0.364283 -0.120025
C57   C     C_R   0.208262 0.810203 0.160401 0.109412
C58   C     C_R   0.182210 0.795014 0.118265 0.225946
C59   C     C_R   0.101727 0.906805 0.130360 0.200731
C60   C     C_R   0.127820 0.922016 0.172452 0.246927
C61   C     C_R   0.175335 0.869087 0.187565 -0.051593
C62   C     C_1   0.183974 0.869794 0.230891 0.072876
C63   C     C_R   0.627170 0.830804 0.671601 -0.009152
C64   C     C_1   0.188854 0.867737 0.266916 0.111996
C65   C     C_R   0.118776 0.834098 0.103376 -0.033949
C66   C     C_R   0.642121 0.874845 0.395763 -0.028099
C67   C     C_R   0.612632 0.904877 0.552124 0.595438
C68   C     C_R   0.560107 0.790942 0.368385 0.185632
C69   C     C_R   0.572798 0.782152 0.326156 0.106095
C70   C     C_R   0.667127 0.855622 0.311492 -0.026245
C71   C     C_R   0.754531 0.927703 0.338616 0.214899
C72   C     C_R   0.743352 0.936072 0.380758 0.201386
C73   C     C_R   0.764429 0.933069 0.171850 0.243467
C74   C     C_R   0.622074 0.866156 0.590297 -0.017019
C75   C     C_R   0.779129 0.916803 0.130341 -0.072747
C76   C     C_R   0.619540 0.746891 0.122136 -0.088973
C77   C     C_R   0.603923 0.762593 0.163351 0.210584
C78   C     C_R   0.679504 0.853470 0.188790 0.048360
C79   C     C_R   0.589628 0.198205 0.571320 0.552848
C80   C     C_1   0.676057 0.858520 0.232229 0.139919
C81   C     C_1   0.672806 0.857993 0.268360 0.121959
C82   C     C_R   0.710629 0.820921 0.105805 -0.064382
C83   C     C_R   0.625097 0.246365 0.614987 0.001069
C84   C     C_R   0.581159 0.304386 0.636325 0.116291
C85   C     C_R   0.053840 0.782592 0.063518 0.585193
C86   C     C_R   0.595693 0.326954 0.679373 0.141190
C87   C     C_R   0.650673 0.289606 0.700598 0.049033
C88   C     C_R   0.711782 0.251016 0.679779 0.124086
C89   C     C_R   0.696806 0.225928 0.636823 0.095770
C90   C     C_R   0.752809 0.337722 0.844385 -0.113821
C91   C     C_R   0.286611 0.886303 0.548370 0.566487
C92   C     C_R   0.767625 0.363365 0.886703 0.199911
C93   C     C_R   0.579679 0.313574 0.889626 0.203479
C94   C     C_R   0.564261 0.281712 0.846806 0.156151
C95   C     C_R   0.653703 0.303667 0.824270 -0.023025
C96   C     C_R   0.743248 0.485875 0.065894 0.532722
C97   C     C_1   0.647370 0.295288 0.780570 0.044475
C98   C     C_1   0.647220 0.293102 0.744196 0.076022
C99   C     C_R   0.684530 0.364743 0.909421 0.016591
C100  C     C_R   0.072820 0.761484 0.908259 0.010596
C101  C     C_R   0.075448 0.848473 0.894534 -0.112626
C102  C     C_R   0.092083 0.863828 0.854351 -0.084818
C103  C     C_R   0.734831 0.447557 0.105059 0.006832
C104  C     C_R   0.108531 0.794024 0.826849 0.088426
C105  C     C_R   0.119240 0.713801 0.840746 0.337187
C106  C     C_R   0.103525 0.698548 0.881832 0.290279
C107  C     C_R   0.742020 0.789425 0.066237 0.546708
C108  C     C_R   0.205664 0.873262 0.767840 0.244304
C109  C     C_R   0.205809 0.887936 0.727024 0.174368
C110  C     C_R   0.110535 0.830890 0.701085 -0.012059
C111  C     C_R   0.013355 0.770130 0.717656 0.237666
C112  C     C_R   0.013184 0.755710 0.758578 0.232390
C113  C     C_R   0.109904 0.804990 0.783364 -0.006831
C114  C     C_R   0.135568 0.917823 0.639525 0.208849
C115  C     C_R   0.673444 0.469572 0.133478 -0.140665
C116  C     C_R   0.183784 0.934333 0.602294 0.094492
C117  C     C_R   0.163186 0.759832 0.593580 0.212306
C118  C     C_R   0.022816 0.733135 0.947263 0.604049
C119  C     C_R   0.118733 0.745002 0.631518 0.140915
C120  C     C_R   0.116480 0.829272 0.656419 0.080322
C121  C     C_R   0.210377 0.859829 0.581449 -0.017602
C122  C     C_R   0.665852 0.742582 0.912361 -0.000073
C123  C     C_R   0.582569 0.765715 0.909466 -0.127820
C124  C     C_R   0.553880 0.782535 0.872019 0.242023
C125  C     C_R   0.613012 0.780971 0.838402 -0.023293
C126  C     C_R   0.695306 0.757167 0.841756 -0.129460
C127  C     C_R   0.673452 0.449672 0.172909 -0.101537
C128  C     C_R   0.718385 0.733207 0.877810 0.225935
Cl1   Cl    Cl    0.233081 0.729421 0.084374 -0.489740
Cl2   Cl    Cl    0.442390 0.693286 0.385849 -0.543309
Cl3   Cl    Cl    0.493079 0.662869 0.182720 -0.601740
Cl4   Cl    Cl    0.891967 0.391927 0.909133 -0.477230
Cl5   Cl    Cl    0.466945 0.288934 0.917558 -0.547411
Cl6   Cl    Cl    0.125649 0.603227 0.899426 -0.366859
Cl7   Cl    Cl    0.324846 0.983632 0.709594 -0.664700
Cl8   Cl    Cl    0.325909 0.940654 0.799671 -0.532832
Cl9   Cl    Cl    0.891541 0.716355 0.687609 -0.551975
Cl10  Cl    Cl    0.891471 0.675525 0.778826 -0.566730
Cl11  Cl    Cl    0.149032 0.630984 0.806324 -0.506525
Cl12  Cl    Cl    0.215392 0.687631 0.288137 -0.656594
Cl13  Cl    Cl    0.147944 0.648842 0.560174 -0.580518
Cl14  Cl    Cl    0.631157 0.179865 0.202625 -0.524027
Cl15  Cl    Cl    0.811454 0.688451 0.878449 -0.565943
Cl16  Cl    Cl    0.846002 0.916333 0.678479 -0.521672
Cl17  Cl    Cl    0.445031 0.804967 0.868060 -0.508525
Cl18  Cl    Cl    0.842644 0.971984 0.590070 -0.578165
Cl19  Cl    Cl    0.523631 0.375291 0.342448 -0.527786
Cl20  Cl    Cl    0.202102 0.039632 0.416167 -0.441603
Cl21  Cl    Cl    0.095496 0.003494 0.206704 -0.359024
Cl22  Cl    Cl    0.047475 0.979841 0.112790 -0.482178
Cl23  Cl    Cl    0.160663 0.032246 0.322318 -0.326888
Cl24  Cl    Cl    0.857694 0.050843 0.202338 -0.436688
Cl25  Cl    Cl    0.877964 0.009502 0.319524 -0.413106
Cl26  Cl    Cl    0.858702 0.022714 0.413849 -0.440305
Cr1   Cr    Cr6+3 0.424820 0.846020 0.489780 1.128155
Cr2   Cr    Cr6+3 0.657880 0.078580 0.505700 1.089214
Cr3   Cr    Cr6+3 0.417280 0.075360 0.504550 1.057268
Cr4   Cr    Cr6+3 0.903360 0.812540 0.006510 1.113915
Cr5   Cr    Cr6+3 0.914630 0.587050 0.006280 1.144168
Cr6   Cr    Cr6+3 0.673560 0.582680 0.008540 1.107871
H1    H     H_    0.628656 0.507017 0.125827 0.168730
H2    H     H_    0.086769 0.927571 0.844122 0.149575
H3    H     H_    0.541478 0.772038 0.936172 0.165817
H4    H     H_    0.739358 0.753787 0.815584 0.194051
H5    H     H_    0.627483 0.470150 0.194472 0.169772
H6    H     H_    0.795124 0.538660 0.323768 0.146436
H7    H     H_    0.847090 0.271476 0.145773 0.306583
H8    H     H_    0.990120 0.349677 0.196228 0.209647
H9    H     H_    0.949163 0.441902 0.217024 0.155969
H10   H     H_    0.005013 0.450314 0.167653 0.132794
H11   H     H_    0.316407 0.806871 0.200888 0.293942
H12   H     H_    0.500301 0.289307 0.414961 0.202601
H13   H     H_    0.138327 0.645285 0.200882 0.139525
H14   H     H_    0.250223 0.624424 0.189888 0.229466
H15   H     H_    0.158907 0.607936 0.148811 0.184343
H16   H     H_    0.913510 0.431296 0.076821 0.287523
H17   H     H_    0.841954 0.258114 0.039579 0.171811
H18   H     H_    0.740706 0.296013 0.036524 0.161188
H19   H     H_    0.733850 0.211732 0.072498 0.180094
H20   H     H_    0.413344 0.680994 0.305463 0.340747
H21   H     H_    0.500976 0.572710 0.312498 0.215411
H22   H     H_    0.581700 0.635133 0.272159 0.161384
H23   H     H_    0.788114 0.268773 0.426702 0.173699
H24   H     H_    0.438986 0.554394 0.262519 0.212408
H25   H     H_    0.902987 0.398487 0.340393 0.273580
H26   H     H_    0.952188 0.267234 0.336544 0.224104
H27   H     H_    0.812367 0.202838 0.319228 0.165406
H28   H     H_    0.852838 0.200243 0.370589 0.203232
H29   H     H_    0.812173 0.188630 0.688155 0.256232
H30   H     H_    0.924959 0.384596 0.695627 0.146437
H31   H     H_    0.938234 0.322908 0.736785 0.153527
H32   H     H_    0.858762 0.386321 0.741739 0.187957
H33   H     H_    0.743994 0.112409 0.626898 0.260802
H34   H     H_    0.256176 0.736398 0.373169 0.228955
H35   H     H_    0.882853 0.200915 0.582806 0.198219
H36   H     H_    0.913285 0.283967 0.631456 0.128544
H37   H     H_    0.853859 0.307014 0.588607 0.165321
H38   H     H_    0.562384 0.370868 0.587204 0.268423
H39   H     H_    0.378655 0.267107 0.584531 0.160100
H40   H     H_    0.400045 0.370040 0.625347 0.135705
H41   H     H_    0.384391 0.248331 0.636917 0.145897
H42   H     H_    0.402787 0.171564 0.842642 0.324136
H43   H     H_    0.417482 0.343106 0.833782 0.175433
H44   H     H_    0.342944 0.235496 0.792989 0.161240
H45   H     H_    0.847621 0.976393 0.118005 0.217080
H46   H     H_    0.478526 0.330365 0.786950 0.156604
H47   H     H_    0.501717 0.396419 0.691810 0.264461
H48   H     H_    0.646729 0.563456 0.723294 0.196417
H49   H     H_    0.675319 0.530161 0.672532 0.205754
H50   H     H_    0.736016 0.511840 0.716366 0.220528
H51   H     H_    0.000114 0.622699 0.657694 0.293035
H52   H     H_    0.175523 0.660468 0.689753 0.145809
H53   H     H_    0.198617 0.616278 0.638535 0.175968
H54   H     H_    0.090190 0.528636 0.664610 0.144774
H55   H     H_    0.055382 0.000511 0.636658 0.319634
H56   H     H_    0.563884 0.673321 0.103587 0.184969
H57   H     H_    0.137127 0.131100 0.690856 0.135348
H58   H     H_    0.248230 0.117170 0.672383 0.164699
H59   H     H_    0.178961 0.055537 0.715199 0.201921
H60   H     H_    0.283316 0.080671 0.585965 0.279769
H61   H     H_    0.151138 0.088425 0.544937 0.165094
H62   H     H_    0.049270 0.968209 0.559360 0.210918
H63   H     H_    0.146515 0.966635 0.525036 0.183522
H64   H     H_    0.699019 0.021695 0.706940 0.249223
H65   H     H_    0.880927 0.107044 0.727106 0.165374
H66   H     H_    0.856534 0.042403 0.770969 0.194378
H67   H     H_    0.819700 0.345898 0.826992 0.173366
H68   H     H_    0.832307 0.151238 0.771269 0.167319
H69   H     H_    0.712423 0.980093 0.845903 0.266340
H70   H     H_    0.668449 0.113453 0.845051 0.149674
H71   H     H_    0.546850 0.990859 0.831246 0.244720
H72   H     H_    0.619027 0.066468 0.792315 0.201552
H73   H     H_    0.564895 0.632347 0.670556 0.264992
H74   H     H_    0.383156 0.529722 0.658931 0.107757
H75   H     H_    0.363366 0.579425 0.708957 0.196286
H76   H     H_    0.398088 0.476943 0.702298 0.145660
H77   H     H_    0.414961 0.612875 0.799181 0.307646
H78   H     H_    0.056969 0.901499 0.914102 0.170039
H79   H     H_    0.470554 0.469437 0.766930 0.152556
H80   H     H_    0.496371 0.528314 0.819962 0.155436
H81   H     H_    0.598427 0.581009 0.785416 0.180615
H82   H     H_    0.371057 0.680199 0.652823 0.243781
H83   H     H_    0.348408 0.785824 0.712462 0.194681
H84   H     H_    0.359668 0.836977 0.665017 0.175773
H85   H     H_    0.472607 0.893939 0.702901 0.208272
H86   H     H_    0.363325 0.747939 0.597811 0.276274
H87   H     H_    0.327276 0.607845 0.543676 0.207535
H88   H     H_    0.388288 0.590086 0.587255 0.115650
H89   H     H_    0.646572 0.205961 0.288412 0.157571
H90   H     H_    0.466982 0.646251 0.545553 0.165690
H91   H     H_    0.809356 0.638515 0.270908 0.270068
H92   H     H_    0.949592 0.712899 0.229068 0.173778
H93   H     H_    0.926367 0.586575 0.206043 0.142326
H94   H     H_    0.982168 0.637118 0.258590 0.182971
N1    N     N_2   0.848040 0.327309 0.168317 -0.453611
N2    N     N_2   0.573009 0.402467 0.701129 -0.544002
N3    N     N_2   0.068096 0.642802 0.642515 -0.458598
N4    N     N_2   0.095443 0.983860 0.657626 -0.419975
N5    N     N_2   0.204074 0.026577 0.586887 -0.544199
N6    N     N_2   0.717675 0.012078 0.735405 -0.496433
N7    N     N_2   0.689315 0.988818 0.817981 -0.513528
N8    N     N_2   0.525072 0.625746 0.696779 -0.496401
N9    N     N_2   0.468354 0.610125 0.778919 -0.502397
N10   N     N_2   0.433086 0.746775 0.668959 -0.538843
N11   N     N_2   0.426411 0.745234 0.584137 -0.462983
N12   N     N_2   0.265446 0.763868 0.175219 -0.426743
N13   N     N_2   0.818019 0.587165 0.248955 -0.522716
N14   N     N_2   0.851860 0.369931 0.088050 -0.529478
N15   N     N_2   0.489899 0.701188 0.297952 -0.462551
N16   N     N_2   0.869489 0.344397 0.359917 -0.513190
N17   N     N_2   0.790091 0.240692 0.702248 -0.533227
N18   N     N_2   0.750061 0.176199 0.615628 -0.476208
N19   N     N_2   0.532813 0.349710 0.614739 -0.507418
N20   N     N_2   0.459611 0.224683 0.826544 -0.445335
O1    O     O_R   0.318160 0.824460 0.443680 -0.480910
O2    O     O_R   0.668160 0.499860 0.053480 -0.504311
O3    O     O_R   0.689170 0.693840 0.050110 -0.511706
O4    O     O_R   0.525040 0.857250 0.449830 -0.446707
O5    O     O_R   0.803860 0.812940 0.962540 -0.485100
O6    O     O_R   0.982950 0.787950 0.964120 -0.497273
O7    O     O_R   0.007050 0.649970 0.960540 -0.407803
O8    O     O_R   0.807910 0.482370 0.965590 -0.447124
O9    O     O_R   0.643310 0.460980 0.963840 -0.440309
O10   O     O_R   0.666140 0.657800 0.967020 -0.472121
O11   O     O_3   0.830520 0.660760 0.007110 -0.283071
O12   O     O_R   0.645130 0.163230 0.552140 -0.469439
O13   O     O_R   0.684760 0.998800 0.456360 -0.458624
O14   O     O_R   0.647540 0.166310 0.470260 -0.505103
O15   O     O_R   0.500960 0.181750 0.467450 -0.487520
O16   O     O_R   0.331100 0.981120 0.457080 -0.449630
O17   O     O_R   0.315560 0.821140 0.532010 -0.441120
O18   O     O_R   0.522630 0.854180 0.531710 -0.471858
O19   O     O_R   0.682160 0.995480 0.544690 -0.452923
O20   O     O_R   0.498360 0.178430 0.555780 -0.522413
O21   O     O_R   0.328690 0.978040 0.538950 -0.515106
O22   O     O_3   0.499990 0.999990 0.500010 -0.284878
O23   O     O_R   0.828710 0.851830 0.052170 -0.473513
O24   O     O_R   0.005980 0.823990 0.047210 -0.452547
O25   O     O_R   0.031900 0.688850 0.050170 -0.469411
O26   O     O_R   0.830940 0.518420 0.048680 -0.515467

loop_
_geom_bond_atom_site_label_1
_geom_bond_atom_site_label_2
_ccdc_geom_bond_type
Cr3   O20   S    
Cr4   O11   S    
C66   C68   A    
C87   C88   A    
C9    N10   S    
C19   H35   S    
C93   C94   A    
C10   N11   S    
C15   H19   S    
Cr1   O18   S    
C109  Cl7   S    
C89   N18   S    
C10   C74   A    
Cr6   O9    S    
C41   C127  A    
C93   C99   A    
C25   H57   S    
C35   C36   A    
C75   C82   A    
C1    O13   A    
C30   H79   S    
Cr6   O11   S    
C6    C7    A    
C21   N20   S    
Cr2   O12   S    
C97   C98   T    
C57   C58   A    
C7    C8    A    
C2    O8    A    
H38   N19   S    
C85   O25   A    
C77   C78   A    
C27   N6    S    
C18   H32   S    
C101  C102  A    
Cr5   O25   S    
Cr2   O19   S    
C33   N13   S    
Cr3   O22   S    
C31   H83   S    
C33   H94   S    
C92   Cl4   S    
C84   C86   A    
C20   H41   S    
C108  Cl8   S    
Cr1   O4    S    
C93   Cl5   S    
C69   C70   A    
C117  C119  A    
C79   O20   A    
C77   Cl3   S    
C5    C6    A    
C53   C64   S    
C78   C80   S    
C27   H68   S    
C45   C48   A    
H77   N9    S    
C23   H52   S    
C17   H28   S    
C86   N2    S    
C28   N7    S    
C71   Cl25  S    
C22   H49   S    
C32   H90   S    
Cr5   O8    S    
C115  C127  A    
C108  C109  A    
C5    C63   S    
H11   N12   S    
C30   N9    S    
C96   O26   A    
C70   C81   S    
C117  C121  A    
C20   N19   S    
Cr4   O24   S    
C62   C64   T    
C11   C52   A    
C58   C65   A    
C68   Cl2   S    
C110  C111  A    
Cr4   O6    S    
C95   C97   S    
H42   N20   S    
C54   Cl12  S    
C26   N5    S    
C111  C112  A    
C53   C54   A    
C68   C69   A    
C3    N7    S    
C30   H81   S    
C26   H62   S    
C18   N17   S    
C73   C78   A    
C7    N9    S    
C70   C71   A    
Cr6   O2    S    
C37   C47   S    
H86   N11   S    
C9    C10   A    
C28   H72   S    
C22   N2    S    
H20   N15   S    
C127  H5    S    
H64   N6    S    
C87   C98   S    
H91   N13   S    
C79   O12   A    
C51   Cl23  S    
C59   C60   A    
C4    N6    S    
C12   N1    S    
C9    C63   A    
C84   N19   S    
C24   C41   A    
C73   C75   A    
C21   H44   S    
C25   H58   S    
C94   C95   A    
C42   C44   A    
C126  H4    S    
C42   Cl19  S    
C112  C113  A    
C16   N15   S    
Cr4   O23   S    
C54   C56   A    
H55   N4    S    
C117  Cl13  S    
C83   C89   A    
C66   C72   A    
C18   H31   S    
C19   H37   S    
H7    N1    S    
C116  C121  A    
Cr2   O22   S    
C32   H87   S    
C112  Cl10  S    
C90   H67   S    
C123  C124  A    
H60   N5    S    
C72   Cl26  S    
C76   C77   A    
C118  O7    A    
C6    N8    S    
C15   N14   S    
C107  O23   A    
C124  Cl17  S    
C76   C82   A    
C39   C40   A    
C86   C87   A    
C80   C81   T    
C12   H10   S    
C124  C125  A    
C50   C51   A    
C49   C55   S    
C67   O18   A    
C11   C74   A    
C24   C34   A    
C3    C4    A    
C60   C61   A    
C51   C53   A    
C14   H15   S    
C1    C66   S    
C108  C113  A    
C115  H1    S    
C24   N1    S    
C103  C115  A    
H47   N2    S    
C44   H12   S    
C20   H39   S    
C12   H8    S    
C37   C38   A    
Cr3   O15   S    
C105  Cl11  S    
C55   O16   A    
C123  H3    S    
C76   H56   S    
C88   N17   S    
C90   C92   A    
C83   C84   A    
C43   O15   A    
C17   H26   S    
C102  H2    S    
C43   C48   S    
C91   O17   A    
C67   O19   A    
C26   H61   S    
C29   N8    S    
C36   H89   S    
C34   N14   S    
C22   H48   S    
C32   N11   S    
C11   Cl18  S    
C67   C74   S    
C52   Cl16  S    
C82   C107  S    
C31   H84   S    
C102  C104  A    
C44   C48   A    
C114  N4    S    
C28   H71   S    
C19   N18   S    
C116  N5    S    
H25   N16   S    
C56   H34   S    
C25   N4    S    
Cr1   O1    S    
C40   C41   S    
C119  N3    S    
C32   H88   S    
C57   N12   S    
H51   N3    S    
C15   H17   S    
C73   Cl24  S    
C125  C126  A    
C96   O2    A    
C25   H59   S    
C100  C118  S    
Cr5   O26   S    
C110  C120  S    
C21   H43   S    
C107  O3    A    
C28   H70   S    
Cr2   O14   S    
C33   H92   S    
C45   H23   S    
Cr5   O11   S    
C18   H30   S    
C43   O14   A    
C23   H53   S    
C59   Cl22  S    
C50   Cl20  S    
C38   H6    S    
C29   H75   S    
C46   C47   A    
C36   C37   A    
C126  C128  A    
C16   H22   S    
Cr1   O17   S    
C101  H78   S    
Cr6   O10   S    
C55   O1    A    
Cr3   O16   S    
H29   N17   S    
C31   H85   S    
Cr6   O3    S    
C30   H80   S    
C17   N16   S    
C52   C63   A    
C90   C95   A    
C104  C105  A    
C94   N20   S    
C20   H40   S    
C114  C116  A    
C119  C120  A    
C16   H24   S    
C13   O10   A    
C57   C61   A    
C12   H9    S    
H69   N7    S    
C14   H13   S    
C49   C56   A    
C105  C106  A    
C100  C106  A    
C34   C103  A    
C21   H46   S    
Cr1   O22   S    
C16   H21   S    
C33   H93   S    
C2    C99   S    
C1    O4    A    
C14   H14   S    
C13   O5    A    
C109  C110  A    
C59   C65   A    
C118  O6    A    
C13   C122  S    
C75   H45   S    
Cr3   O21   S    
Cr4   O5    S    
C38   C39   A    
C2    O9    A    
C17   H27   S    
C111  Cl9   S    
C4    C5    A    
C22   H50   S    
C91   O21   A    
C100  C101  A    
Cr5   O7    S    
C35   C40   A    
C39   N13   S    
C60   Cl21  S    
Cr2   O13   S    
C3    C8    A    
C122  C128  A    
C61   C62   S    
C65   C85   S    
C128  Cl15  S    
C29   H74   S    
C106  Cl6   S    
H16   N14   S    
C35   Cl14  S    
C69   N15   S    
C104  C113  S    
C79   C83   S    
C85   O24   A    
C45   C46   A    
C8    C125  S    
C19   H36   S    
C42   C47   A    
C71   C72   A    
C88   C89   A    
C23   N3    S    
C46   N16   S    
C49   C50   A    
C91   C121  S    
C15   H18   S    
C26   H63   S    
H33   N18   S    
H82   N10   S    
C31   N10   S    
C58   Cl1   S    
C122  C123  A    
C96   C103  S    
C29   H76   S    
C27   H66   S    
C114  C120  A    
C27   H65   S    
C14   N12   S    
C92   C99   A    
H73   N8    S    
C23   H54   S    
