data_mof_unit_2716.cif
_audit_creation_date              2012-12-10T17:10:30-0500
_audit_creation_method            fapswitch 2.2
_symmetry_space_group_name_H-M    P1
_symmetry_Int_Tables_number       1
_space_group_crystal_system       triclinic
_cell_length_a                    10.721774
_cell_length_b                    13.017824
_cell_length_c                    11.743736
_cell_angle_alpha                 100.177185
_cell_angle_beta                  97.701646
_cell_angle_gamma                 89.997001
_cell_volume                      1598.30986292

loop_
_atom_site_label
_atom_site_type_symbol
_atom_type_description
_atom_site_fract_x
_atom_site_fract_y
_atom_site_fract_z
_atom_type_partial_charge
C1    C     C_R   0.495694 0.299763 0.478360 0.872270
C2    C     C_R   0.504469 0.700428 0.521435 0.842197
C3    C     C_R   0.514527 0.813352 0.532484 -0.149086
C4    C     C_R   0.484847 0.187201 0.465884 -0.207758
C5    C     C_R   0.353262 0.031225 0.402835 0.140595
C6    C     C_R   0.644178 0.970950 0.595981 0.157437
C7    C     C_R   0.374296 0.137285 0.404990 0.097491
C8    C     C_R   0.623753 0.864507 0.595367 0.024047
C9    C     C_R   0.577165 0.132782 0.526429 0.348782
C10   C     C_R   0.424144 0.866546 0.467347 0.321777
C11   C     C_R   0.555418 0.026321 0.530244 -0.010438
C12   C     C_R   0.443349 0.973869 0.465955 -0.053561
C13   C     C_R   0.377930 0.403444 0.015872 0.226361
C14   C     C_R   0.613925 0.603266 0.985499 0.252343
C15   C     C_R   0.397109 0.407545 0.138917 0.485243
C16   C     C_R   0.598921 0.595283 0.861217 0.385568
C17   C     C_R   0.544292 0.548084 0.162207 0.547146
C18   C     C_R   0.455116 0.452430 0.838044 0.521048
C19   C     C_R   0.538276 0.539890 0.037360 -0.193296
C20   C     C_R   0.455934 0.464647 0.962872 -0.305899
C21   C     C_R   0.260961 0.510822 0.497353 0.789950
C22   C     C_R   0.738485 0.487848 0.502769 0.851798
C23   C     C_R   0.137101 0.633779 0.690988 0.130887
C24   C     C_R   0.864315 0.355417 0.317393 0.171104
C25   C     C_R   0.103562 0.640576 0.803451 0.122858
C26   C     C_R   0.907212 0.333303 0.208238 0.062231
C27   C     C_R   0.007149 0.575767 0.822328 0.103669
C28   C     C_R   0.004625 0.395422 0.184497 0.146119
C29   C     C_R   0.934064 0.512677 0.726870 0.192243
C30   C     C_R   0.067182 0.471780 0.273761 0.247689
C31   C     C_R   0.957954 0.515676 0.611545 -0.012453
C32   C     C_R   0.041036 0.477599 0.390248 -0.056826
C33   C     C_R   0.073225 0.560148 0.596882 -0.013704
C34   C     C_R   0.925780 0.434203 0.406005 0.002072
C35   C     C_R   0.875896 0.469386 0.510572 -0.106918
C36   C     C_R   0.122726 0.526820 0.490745 -0.180152
Cu1   Cu    Cu3+1 0.509250 0.507730 0.615930 1.032012
Cu2   Cu    Cu3+1 0.490750 0.492270 0.384070 1.021755
N1    N     N_R   0.523180 0.519350 0.790130 -0.218898
N2    N     N_R   0.476820 0.480650 0.209870 -0.259231
O1    O     O_R   0.506570 0.354460 0.582000 -0.532862
O2    O     O_R   0.493430 0.645540 0.418000 -0.559825
O3    O     O_R   0.490940 0.341410 0.386200 -0.534389
O4    O     O_R   0.509060 0.658590 0.613800 -0.544196
O5    O     O_R   0.327470 0.506520 0.597900 -0.543103
O6    O     O_R   0.672530 0.493480 0.402100 -0.534164
O7    O     O_R   0.311840 0.493460 0.402100 -0.562797
O8    O     O_R   0.688160 0.506540 0.597900 -0.532363
N3    N     N_3   0.039426 0.382872 0.069428 -0.565731
H1    H     H_    0.959587 0.393251 0.011476 0.229869
H2    H     H_    0.068570 0.306348 0.046271 0.240102
N4    N     N_3   0.983152 0.573683 0.938869 -0.582833
H3    H     H_    0.963786 0.649592 0.977150 0.252151
H4    H     H_    0.066667 0.553354 0.985542 0.268855
O9    O     O_3   0.277417 0.344102 0.951987 -0.750534
H5    H     H_    0.235018 0.385517 0.895487 0.361528
O10   O     O_3   0.704142 0.669585 0.056903 -0.711654
H6    H     H_    0.766417 0.691406 0.010691 0.332950
N5    N     N_3   0.226552 0.709585 0.673178 -0.595510
H7    H     H_    0.315632 0.691588 0.711120 0.247819
H8    H     H_    0.227782 0.709507 0.584717 0.192335
N6    N     N_3   0.764587 0.292480 0.341529 -0.607334
H9    H     H_    0.794072 0.215290 0.333649 0.237738
H10   H     H_    0.686927 0.294751 0.277943 0.262871
N7    N     N_3   0.170227 0.710621 0.900636 -0.596753
H11   H     H_    0.265258 0.691208 0.908555 0.220333
H12   H     H_    0.162747 0.786590 0.883267 0.246518
N8    N     N_3   0.846315 0.251130 0.120710 -0.605176
H13   H     H_    0.805975 0.282973 0.049088 0.227265
H14   H     H_    0.913965 0.197749 0.093873 0.223496
N9    N     N_3   0.851232 0.433363 0.747516 -0.538461
H15   H     H_    0.905812 0.381001 0.789602 0.222751
H16   H     H_    0.790227 0.467889 0.804503 0.256230
N10   N     N_3   0.133438 0.555386 0.240184 -0.546295
H17   H     H_    0.215295 0.527355 0.208443 0.258973
H18   H     H_    0.157308 0.616332 0.310593 0.220193
O11   O     O_3   0.319246 0.814160 0.401011 -0.758504
H19   H     H_    0.301149 0.749364 0.428923 0.301124
O12   O     O_3   0.688269 0.182620 0.583458 -0.683263
H20   H     H_    0.706146 0.244567 0.549624 0.323542
N11   N     N_3   0.718389 0.805402 0.652102 -0.530977
H21   H     H_    0.799763 0.806287 0.612202 0.219590
H22   H     H_    0.739529 0.840418 0.739741 0.220990
N12   N     N_3   0.279324 0.196755 0.349236 -0.521540
H23   H     H_    0.197384 0.193090 0.387808 0.232926
H24   H     H_    0.259528 0.162305 0.261186 0.243961
N13   N     N_3   0.236837 0.986443 0.338271 -0.584615
H25   H     H_    0.254935 0.928511 0.269084 0.279466
H26   H     H_    0.182516 0.958114 0.394084 0.273126
N14   N     N_3   0.755802 0.022367 0.663388 -0.490098
H27   H     H_    0.835224 0.985673 0.634093 0.219076
H28   H     H_    0.755498 0.017721 0.751288 0.212038
O13   O     O_3   0.388943 0.371882 0.762766 -0.680192
H29   H     H_    0.404621 0.307754 0.796588 0.343250
O14   O     O_3   0.618218 0.623541 0.237727 -0.628175
H30   H     H_    0.589294 0.691488 0.218226 0.346135
O15   O     O_3   0.663095 0.661684 0.809534 -0.685920
H31   H     H_    0.664038 0.732118 0.858256 0.302665
O16   O     O_3   0.329203 0.343413 0.190882 -0.682679
H32   H     H_    0.287750 0.286279 0.130818 0.341610

loop_
_geom_bond_atom_site_label_1
_geom_bond_atom_site_label_2
_ccdc_geom_bond_type
C22   O8    A    
N13   H25   S    
O13   H29   S    
C27   C29   A    
O14   H30   S    
O9    H5    S    
N3    H2    S    
O15   H31   S    
O10   H6    S    
C21   C36   S    
O11   H19   S    
C27   N4    S    
C23   N5    S    
C22   C35   S    
N6    H9    S    
N10   H18   S    
C32   C36   A    
Cu2   N2    S    
C24   C26   A    
Cu2   O2    S    
C30   N10   S    
C16   O15   S    
C33   C36   A    
C34   C35   A    
C9    O12   S    
N6    H10   S    
C1    O3    A    
C19   C20   A    
C2    O4    A    
N8    H13   S    
C23   C33   A    
C31   C33   A    
C17   O14   S    
C18   C20   A    
C7    N12   S    
N5    H7    S    
C4    C7    A    
N11   H22   S    
C10   O11   S    
N4    H4    S    
N11   H21   S    
C21   O5    A    
N5    H8    S    
N10   H17   S    
C8    N11   S    
C25   N7    S    
N12   H23   S    
C5    C12   A    
C3    C8    A    
C6    C11   A    
N9    H16   S    
C6    C8    A    
N7    H12   S    
C6    N14   S    
C24   C34   A    
C17   N2    A    
C32   C34   A    
C18   N1    A    
Cu1   Cu2   S    
C28   N3    S    
N14   H28   S    
O16   H32   S    
Cu1   O8    S    
C9    C11   A    
Cu2   O7    S    
C10   C12   A    
C1    O1    A    
C22   O6    A    
N7    H11   S    
C13   C15   A    
C14   C16   A    
Cu1   O5    S    
N4    H3    S    
C5    C7    A    
C18   O13   S    
C14   O10   S    
C24   N6    S    
C13   C20   A    
C14   C19   A    
C15   O16   S    
C11   C12   A    
C25   C27   A    
C26   C28   A    
C1    C4    S    
C26   N8    S    
Cu1   O4    S    
N13   H26   S    
C2    C3    S    
Cu2   O3    S    
Cu1   N1    S    
C3    C10   A    
C30   C32   A    
N14   H27   S    
C2    O2    A    
C28   C30   A    
C17   C19   A    
C31   C35   A    
C23   C25   A    
Cu1   O1    S    
C21   O7    A    
C15   N2    A    
Cu2   O6    S    
C16   N1    A    
O12   H20   S    
C5    N13   S    
N9    H15   S    
C29   C31   A    
N3    H1    S    
N8    H14   S    
N12   H24   S    
C13   O9    S    
C4    C9    A    
C29   N9    S    
