data_mof_unit_3965.cif
_audit_creation_date              2012-12-10T18:09:53-0500
_audit_creation_method            fapswitch 2.2
_symmetry_space_group_name_H-M    P1
_symmetry_Int_Tables_number       1
_space_group_crystal_system       triclinic
_cell_length_a                    10.636067
_cell_length_b                    12.644353
_cell_length_c                    13.118254
_cell_angle_alpha                 82.174119
_cell_angle_beta                  90.989966
_cell_angle_gamma                 102.111199
_cell_volume                      1708.77468605

loop_
_atom_site_label
_atom_site_type_symbol
_atom_type_description
_atom_site_fract_x
_atom_site_fract_y
_atom_site_fract_z
_atom_type_partial_charge
C1    C     C_R   0.480874 0.438953 0.691034 0.844441
C2    C     C_R   0.469280 0.447580 0.973428 0.081109
C3    C     C_R   0.435796 0.467066 0.869331 0.086296
C4    C     C_R   0.741841 0.500540 0.499609 0.821781
C5    C     C_R   0.466632 0.529534 0.036072 0.077188
C6    C     C_R   0.411265 0.620309 0.999611 0.176646
C7    C     C_R   0.361605 0.629653 0.900675 -0.255804
C8    C     C_R   0.373694 0.554016 0.836101 -0.205814
C9    C     C_R   0.519628 0.524389 0.133757 -0.258579
C10   C     C_R   0.447159 0.686283 0.164669 -0.209422
C11   C     C_R   0.467392 0.399848 0.800725 -0.111388
C12   C     C_3   0.121975 0.500347 0.500394 0.163763
C13   C     C_R   0.310988 0.086363 0.353810 -0.304987
C14   C     C_R   0.644885 0.795642 0.635673 0.026298
C15   C     C_R   0.662367 0.894386 0.673918 -0.288243
C16   C     C_R   0.512769 0.560927 0.308899 0.855094
C17   C     C_R   0.602039 0.975001 0.626085 -0.129591
C18   C     C_R   0.528762 0.959284 0.535985 0.040120
C19   C     C_R   0.506437 0.854266 0.505068 0.221124
C20   C     C_R   0.470782 0.040543 0.479276 -0.042957
C21   C     C_R   0.377585 0.010260 0.403868 0.128871
C22   C     C_R   0.352972 0.904659 0.378308 -0.278375
C23   C     C_3   0.071152 0.493755 0.389730 -0.431136
C24   C     C_R   0.419397 0.828832 0.426246 -0.223889
C25   C     C_R   0.502439 0.151298 0.493006 0.502831
C26   C     C_R   0.338600 0.192342 0.377401 -0.067608
C27   C     C_R   0.258361 0.499597 0.500840 0.819033
C28   C     C_3   0.905185 0.402083 0.574368 -0.393308
C29   C     C_3   0.049154 0.401452 0.574485 -0.405505
C30   C     C_3   0.926360 0.495069 0.387426 -0.152654
C31   C     C_3   0.955820 0.607093 0.535401 -0.421696
C32   C     C_3   0.878955 0.500587 0.498650 0.129032
C33   C     C_1   0.854491 0.400024 0.341380 0.201261
C34   C     C_3   0.098686 0.607156 0.536125 -0.388610
C35   C     C_R   0.404378 0.699327 0.063632 -0.204649
C36   C     C_R   0.501358 0.596475 0.200070 -0.051453
C37   C     C_R   0.504181 0.301715 0.838432 -0.202605
C38   C     C_R   0.518041 0.273952 0.943391 -0.145388
C39   C     C_R   0.504000 0.346979 0.010525 -0.189634
H1    H     H_    0.850740 0.323649 0.552073 0.228445
H2    H     H_    0.517687 0.321417 0.091073 0.142455
H3    H     H_    0.545239 0.197687 0.972477 0.144041
H4    H     H_    0.872973 0.407208 0.653532 0.157230
H5    H     H_    0.332565 0.563609 0.760226 0.164012
H6    H     H_    0.286729 0.251886 0.340581 0.153814
H7    H     H_    0.283587 0.880978 0.319703 0.148158
H8    H     H_    0.238058 0.063942 0.297404 0.156435
H9    H     H_    0.688925 0.731325 0.673606 0.140442
H10   H     H_    0.609057 0.045565 0.665019 0.186606
H11   H     H_    0.719263 0.907296 0.742085 0.153277
H12   H     H_    0.149720 0.679969 0.484015 0.185981
H13   H     H_    0.398430 0.749818 0.401987 0.206899
H14   H     H_    0.086977 0.404988 0.653910 0.157705
H15   H     H_    0.063132 0.323576 0.550370 0.191920
H16   H     H_    0.090521 0.418948 0.362284 0.178334
H17   H     H_    0.939188 0.680068 0.483364 0.185391
H18   H     H_    0.924091 0.613994 0.614293 0.180749
H19   H     H_    0.136253 0.614475 0.615232 0.175634
H20   H     H_    0.588823 0.242923 0.587513 0.358125
H21   H     H_    0.912202 0.569395 0.336326 0.111517
H22   H     H_    0.124172 0.564707 0.336503 0.143754
H23   H     H_    0.431868 0.742644 0.216016 0.148156
H24   H     H_    0.315355 0.696455 0.872540 0.146712
H25   H     H_    0.361156 0.768326 0.036977 0.134590
H26   H     H_    0.571250 0.461677 0.162265 0.153849
H27   H     H_    0.526432 0.248227 0.786597 0.146583
N1    N     N_R   0.433240 0.222190 0.444680 -0.138819
N2    N     N_R   0.566070 0.776970 0.554790 -0.131263
N3    N     N_1   0.798235 0.325731 0.305317 -0.186833
O1    O     O_R   0.468120 0.366740 0.627160 -0.642956
O2    O     O_R   0.510770 0.544830 0.662520 -0.613540
O3    O     O_R   0.663880 0.410950 0.482330 -0.592443
O4    O     O_R   0.706530 0.589040 0.517700 -0.627327
O5    O     O_R   0.489230 0.455170 0.337480 -0.604744
O6    O     O_R   0.531880 0.633260 0.372840 -0.631965
O7    O     O_R   0.293470 0.410960 0.482300 -0.623951
O8    O     O_R   0.336120 0.589050 0.517670 -0.649393
O9    O     O_3   0.610800 0.190328 0.545681 -0.808506
Zn1   Zn    Zn3+2 0.471520 0.381090 0.476390 0.942662
Zn2   Zn    Zn3+2 0.528480 0.618910 0.523610 0.916667

loop_
_geom_bond_atom_site_label_1
_geom_bond_atom_site_label_2
_ccdc_geom_bond_type
C24   H13   S    
N2    Zn2   S    
C12   C29   S    
C16   O6    A    
C25   N1    A    
O7    Zn1   S    
C7    C8    A    
C39   H2    S    
C12   C23   S    
C34   H12   S    
C1    O2    A    
C16   O5    A    
C26   N1    A    
C28   C29   S    
C38   H3    S    
O3    Zn1   S    
C38   C39   A    
C20   C25   A    
C28   H1    S    
C6    C35   A    
C18   C19   A    
C15   H11   S    
C11   C37   A    
C26   H6    S    
C2    C39   A    
C30   H21   S    
C9    C36   A    
C10   C35   A    
C31   H17   S    
O6    Zn2   S    
C33   N3    T    
C21   C22   A    
C10   H23   S    
H20   O9    S    
O2    Zn2   S    
C12   C27   S    
C25   O9    S    
C23   C30   S    
C28   C32   S    
N1    Zn1   S    
C3    C8    A    
C17   H10   S    
C13   H8    S    
C14   H9    S    
C5    C9    A    
C37   C38   A    
C31   C32   S    
C37   H27   S    
C17   C18   A    
C31   C34   S    
C13   C21   A    
C19   N2    A    
C35   H25   S    
C7    H24   S    
C4    O4    A    
C4    C32   S    
C22   H7    S    
O5    Zn1   S    
C22   C24   A    
C13   C26   A    
C2    C5    A    
C12   C34   S    
C27   O7    A    
C4    O3    A    
O8    Zn2   S    
C15   C17   A    
C30   C33   S    
O1    Zn1   S    
C8    H5    S    
C27   O8    A    
C23   H16   S    
C6    C7    A    
C28   H4    S    
C1    O1    A    
C31   H18   S    
C2    C3    A    
C16   C36   S    
C30   C32   S    
C5    C6    A    
C29   H14   S    
O4    Zn2   S    
C19   C24   A    
C18   C20   A    
C9    H26   S    
C3    C11   A    
C23   H22   S    
C20   C21   A    
C29   H15   S    
C34   H19   S    
C14   N2    A    
C14   C15   A    
C10   C36   A    
C1    C11   S    
