data_mof_unit_592.cif
_audit_creation_date              2012-12-11T14:15:03-0500
_audit_creation_method            fapswitch 2.2
_symmetry_space_group_name_H-M    P1
_symmetry_Int_Tables_number       1
_space_group_crystal_system       triclinic
_cell_length_a                    24.461626
_cell_length_b                    17.212146
_cell_length_c                    15.669238
_cell_angle_alpha                 89.998404
_cell_angle_beta                  129.362597
_cell_angle_gamma                 90.000523
_cell_volume                      5100.71108017

loop_
_atom_site_label
_atom_site_type_symbol
_atom_type_description
_atom_site_fract_x
_atom_site_fract_y
_atom_site_fract_z
_atom_type_partial_charge
C1    C     C_R   0.349791 0.361126 0.239594 -0.125715
C2    C     C_R   0.636030 0.688791 0.502665 0.142548
C3    C     C_R   0.723773 0.965321 0.233751 -0.156698
C4    C     C_R   0.660792 0.967854 0.124739 -0.122946
C5    C     C_R   0.618883 0.901338 0.075736 -0.076489
C6    C     C_R   0.640019 0.832100 0.135580 -0.130793
C7    C     C_R   0.703005 0.829340 0.244549 -0.187273
C8    C     C_R   0.863964 0.188786 0.497329 0.142542
C9    C     C_R   0.136030 0.188790 0.502666 0.142542
C10   C     C_R   0.351969 0.624384 0.135552 0.157527
C11   C     C_R   0.648024 0.624366 0.864446 0.157575
C12   C     C_R   0.851970 0.124383 0.135553 0.157537
C13   C     C_R   0.148024 0.124366 0.864445 0.157577
C14   C     C_2   0.647486 0.804097 0.423978 -0.126556
C15   C     C_2   0.352512 0.804083 0.576026 -0.126545
C16   C     C_2   0.147486 0.304098 0.423978 -0.126554
C17   C     C_R   0.650231 0.361151 0.760466 -0.125740
C18   C     C_2   0.852513 0.304085 0.576024 -0.126544
C19   C     C_2   0.663651 0.765837 0.511333 -0.194509
C20   C     C_2   0.336339 0.765829 0.488665 -0.194510
C21   C     C_2   0.163652 0.265837 0.511333 -0.194509
C22   C     C_2   0.836339 0.265829 0.488664 -0.194508
C23   C     C_2   0.199764 0.356376 0.437201 -0.109692
C24   C     C_2   0.800238 0.356361 0.562815 -0.109689
C25   C     C_2   0.699765 0.856375 0.437201 -0.109690
C26   C     C_2   0.300236 0.856356 0.562818 -0.109681
C27   C     C_2   0.268691 0.337126 0.507486 -0.212678
C28   C     C_R   0.849790 0.861127 0.239592 -0.125718
C29   C     C_2   0.731311 0.337117 0.492532 -0.212667
C30   C     C_2   0.768692 0.837124 0.507486 -0.212679
C31   C     C_2   0.231309 0.837112 0.492532 -0.212672
C32   C     C_2   0.642654 0.246162 0.854472 -0.216843
C33   C     C_2   0.357449 0.246038 0.145792 -0.216753
C34   C     C_2   0.142685 0.746205 0.854563 -0.216811
C35   C     C_2   0.857448 0.746040 0.145788 -0.216752
C36   C     C_2   0.694265 0.205453 0.868335 -0.106427
C37   C     C_2   0.305673 0.205471 0.131666 -0.106236
C38   C     C_2   0.194253 0.705455 0.868345 -0.106433
C39   C     C_R   0.150246 0.861169 0.760509 -0.125791
C40   C     C_2   0.805673 0.705472 0.131665 -0.106237
C41   C     C_2   0.305822 0.651172 0.021078 -0.220199
C42   C     C_2   0.694150 0.651155 0.978908 -0.220248
C43   C     C_2   0.805826 0.151172 0.021080 -0.220216
C44   C     C_2   0.194150 0.151155 0.978908 -0.220250
C45   C     C_R   0.611395 0.390561 0.407613 -0.169412
C46   C     C_R   0.388609 0.390559 0.592395 -0.169345
C47   C     C_R   0.111394 0.890559 0.407612 -0.169413
C48   C     C_R   0.888610 0.890557 0.592396 -0.169328
C49   C     C_2   0.235667 0.652371 0.961365 -0.108468
C50   C     C_R   0.413772 0.644923 0.590888 -0.114075
C51   C     C_2   0.764310 0.652366 0.038658 -0.108397
C52   C     C_2   0.735671 0.152367 0.961355 -0.108459
C53   C     C_2   0.264309 0.152366 0.038659 -0.108400
C54   C     C_R   0.687071 0.392372 0.590962 0.030725
C55   C     C_R   0.312929 0.392377 0.409048 0.030750
C56   C     C_R   0.187068 0.892367 0.590961 0.030753
C57   C     C_R   0.812930 0.892376 0.409048 0.030750
C58   C     C_R   0.559134 0.360305 0.759619 -0.139728
C59   C     C_R   0.440905 0.360253 0.240490 -0.139747
C60   C     C_R   0.059145 0.860322 0.759652 -0.139718
C61   C     C_R   0.586225 0.644928 0.409109 -0.114070
C62   C     C_R   0.940905 0.860254 0.240488 -0.139746
C63   C     C_R   0.382354 0.318741 0.207795 0.138425
C64   C     C_R   0.617698 0.318808 0.792351 0.138432
C65   C     C_R   0.882352 0.818743 0.207792 0.138425
C66   C     C_R   0.117718 0.818835 0.792409 0.138429
C67   C     C_R   0.678898 0.370055 0.498351 0.084176
C68   C     C_R   0.321105 0.370059 0.501662 0.084150
C69   C     C_R   0.178895 0.870050 0.498350 0.084163
C70   C     C_R   0.821106 0.870057 0.501663 0.084146
C71   C     C_R   0.339664 0.644173 0.406801 -0.169033
C72   C     C_R   0.913771 0.144923 0.590888 -0.114074
C73   C     C_R   0.660330 0.644174 0.593195 -0.169059
C74   C     C_R   0.839664 0.144173 0.406801 -0.169031
C75   C     C_R   0.160331 0.144174 0.593196 -0.169046
C76   C     C_R   0.422850 0.606944 0.197696 -0.164801
C77   C     C_R   0.577144 0.606935 0.802298 -0.164811
C78   C     C_R   0.922851 0.106944 0.197697 -0.164800
C79   C     C_R   0.077144 0.106936 0.802297 -0.164812
C80   C     C_R   0.668080 0.604601 0.802180 -0.125474
C81   C     C_R   0.331921 0.604613 0.197828 -0.125459
C82   C     C_R   0.168080 0.104601 0.802180 -0.125476
C83   C     C_R   0.086226 0.144928 0.409109 -0.114072
C84   C     C_R   0.831920 0.104612 0.197826 -0.125464
C85   C     C_R   0.754717 0.396232 0.705189 0.089722
C86   C     C_R   0.776228 0.465359 0.766200 -0.156670
C87   C     C_R   0.839220 0.467926 0.875197 -0.122979
C88   C     C_R   0.881137 0.401420 0.924245 -0.076495
C89   C     C_R   0.859999 0.332158 0.864460 -0.130699
C90   C     C_R   0.797005 0.329366 0.755502 -0.187281
C91   C     C_R   0.245283 0.396216 0.294818 0.089724
C92   C     C_R   0.223772 0.465323 0.233752 -0.156698
C93   C     C_R   0.160791 0.467857 0.124740 -0.122944
C94   C     C_R   0.363964 0.688786 0.497330 0.142543
C95   C     C_R   0.118882 0.401342 0.075737 -0.076494
C96   C     C_R   0.140018 0.332103 0.135580 -0.130792
C97   C     C_R   0.203004 0.329342 0.244548 -0.187273
C98   C     C_R   0.254712 0.896208 0.705190 0.089715
C99   C     C_R   0.276232 0.965327 0.766224 -0.156705
C100  C     C_R   0.339219 0.967873 0.875227 -0.122970
C101  C     C_R   0.381123 0.901355 0.924256 -0.076499
C102  C     C_R   0.359977 0.832104 0.864447 -0.130717
C103  C     C_R   0.296986 0.829332 0.755484 -0.187259
C104  C     C_R   0.745283 0.896215 0.294818 0.089724
H1    H     H_    0.300868 0.346676 0.220746 0.122430
H2    H     H_    0.819308 0.402605 0.622577 0.146630
H3    H     H_    0.680699 0.902623 0.377441 0.146621
H4    H     H_    0.319305 0.902598 0.622582 0.146625
H5    H     H_    0.287765 0.290780 0.567325 0.140128
H6    H     H_    0.712233 0.290776 0.432690 0.140119
H7    H     H_    0.787765 0.790777 0.567324 0.140130
H8    H     H_    0.212231 0.790773 0.432687 0.140118
H9    H     H_    0.210532 0.626300 0.991740 0.123804
H10   H     H_    0.789476 0.626279 0.008333 0.123769
H11   H     H_    0.710530 0.126289 0.991717 0.123804
H12   H     H_    0.699140 0.346680 0.779283 0.122468
H13   H     H_    0.289476 0.126279 0.008334 0.123767
H14   H     H_    0.714139 0.221061 0.825279 0.130205
H15   H     H_    0.285630 0.221225 0.174449 0.130117
H16   H     H_    0.214081 0.721018 0.825202 0.130206
H17   H     H_    0.785632 0.721224 0.174451 0.130118
H18   H     H_    0.330226 0.678290 0.989876 0.130521
H19   H     H_    0.669716 0.678271 0.010073 0.130444
H20   H     H_    0.830235 0.178292 0.989888 0.130512
H21   H     H_    0.169716 0.178272 0.010073 0.130444
H22   H     H_    0.623473 0.230262 0.898549 0.127312
H23   H     H_    0.800867 0.846678 0.220741 0.122433
H24   H     H_    0.376825 0.229970 0.102019 0.127213
H25   H     H_    0.123548 0.730349 0.898722 0.127298
H26   H     H_    0.876821 0.729974 0.102011 0.127211
H27   H     H_    0.591336 0.391693 0.323142 0.102782
H28   H     H_    0.408674 0.391686 0.676869 0.102771
H29   H     H_    0.091335 0.891692 0.323141 0.102782
H30   H     H_    0.908675 0.891682 0.676870 0.102767
H31   H     H_    0.522500 0.345179 0.773463 0.095312
H32   H     H_    0.477560 0.345096 0.226701 0.095327
H33   H     H_    0.022514 0.845205 0.773507 0.095305
H34   H     H_    0.199171 0.846710 0.779367 0.122521
H35   H     H_    0.977559 0.845098 0.226698 0.095326
H36   H     H_    0.300656 0.660947 0.321433 0.098999
H37   H     H_    0.699334 0.660948 0.678563 0.099013
H38   H     H_    0.800656 0.160946 0.321432 0.099002
H39   H     H_    0.199335 0.160946 0.678564 0.099013
H40   H     H_    0.452248 0.604705 0.167635 0.091368
H41   H     H_    0.547743 0.604693 0.832353 0.091367
H42   H     H_    0.952249 0.104705 0.167636 0.091368
H43   H     H_    0.047743 0.104694 0.832353 0.091366
H44   H     H_    0.721286 0.601091 0.830262 0.076070
H45   H     H_    0.707150 0.785986 0.594044 0.134881
H46   H     H_    0.278718 0.601103 0.169758 0.076030
H47   H     H_    0.221286 0.101091 0.830262 0.076066
H48   H     H_    0.778717 0.101102 0.169753 0.076036
H49   H     H_    0.443418 0.662486 0.675795 0.089487
H50   H     H_    0.556578 0.662495 0.324201 0.089487
H51   H     H_    0.943418 0.162487 0.675794 0.089487
H52   H     H_    0.056578 0.162495 0.324202 0.089488
H53   H     H_    0.601926 0.788004 0.340659 0.124897
H54   H     H_    0.398079 0.787990 0.659342 0.124890
H55   H     H_    0.101925 0.288005 0.340659 0.124897
H56   H     H_    0.292836 0.785979 0.405956 0.134870
H57   H     H_    0.898080 0.287993 0.659340 0.124889
H58   H     H_    0.744752 0.517283 0.729493 0.113696
H59   H     H_    0.855515 0.521524 0.921636 0.099376
H60   H     H_    0.929900 0.403506 0.008620 0.101011
H61   H     H_    0.892251 0.280532 0.902694 0.102230
H62   H     H_    0.780737 0.274989 0.710693 0.126130
H63   H     H_    0.255246 0.517252 0.270423 0.113680
H64   H     H_    0.144497 0.521436 0.078253 0.099384
H65   H     H_    0.070127 0.403402 0.991351 0.101012
H66   H     H_    0.107774 0.280469 0.097382 0.102243
H67   H     H_    0.207150 0.285985 0.594044 0.134880
H68   H     H_    0.219275 0.274979 0.289399 0.126164
H69   H     H_    0.244764 0.017258 0.729532 0.113694
H70   H     H_    0.355521 0.021462 0.921687 0.099383
H71   H     H_    0.429882 0.903425 0.008636 0.101012
H72   H     H_    0.392218 0.780469 0.902665 0.102232
H73   H     H_    0.280710 0.774962 0.710656 0.126132
H74   H     H_    0.755246 0.017250 0.270422 0.113681
H75   H     H_    0.644498 0.021433 0.078251 0.099383
H76   H     H_    0.570129 0.903398 0.991350 0.101012
H77   H     H_    0.607775 0.780466 0.097383 0.102245
H78   H     H_    0.792835 0.285979 0.405954 0.134872
H79   H     H_    0.719276 0.774978 0.289400 0.126165
H80   H     H_    0.180698 0.402624 0.377439 0.146620
N1    N     N_R   0.389060 0.424180 0.294540 -0.044959
N2    N     N_R   0.374530 0.423490 0.443400 -0.062845
N3    N     N_R   0.125470 0.923490 0.556600 -0.062843
N4    N     N_R   0.874530 0.923490 0.443400 -0.062846
N5    N     N_R   0.555250 0.423100 0.705420 -0.039730
N6    N     N_R   0.444750 0.423100 0.294580 -0.039730
N7    N     N_R   0.055250 0.923100 0.705420 -0.039728
N8    N     N_R   0.944750 0.923100 0.294580 -0.039729
N9    N     N_R   0.375210 0.577180 0.443400 -0.047715
N10   N     N_R   0.624790 0.577180 0.556600 -0.047719
N11   N     N_R   0.875210 0.077180 0.443400 -0.047715
N12   N     N_R   0.610940 0.424180 0.705460 -0.044958
N13   N     N_R   0.124790 0.077180 0.556600 -0.047716
N14   N     N_R   0.445430 0.577570 0.294580 -0.038256
N15   N     N_R   0.554570 0.577570 0.705420 -0.038256
N16   N     N_R   0.945430 0.077570 0.294580 -0.038256
N17   N     N_R   0.054570 0.077570 0.705420 -0.038256
N18   N     N_R   0.611620 0.576500 0.705460 -0.042275
N19   N     N_R   0.388380 0.576500 0.294540 -0.042277
N20   N     N_R   0.111620 0.076500 0.705460 -0.042275
N21   N     N_R   0.888380 0.076500 0.294540 -0.042277
N22   N     N_R   0.421010 0.576890 0.556640 -0.042523
N23   N     N_R   0.889060 0.924180 0.294540 -0.044959
N24   N     N_R   0.578990 0.576890 0.443360 -0.042520
N25   N     N_R   0.921010 0.076890 0.556640 -0.042524
N26   N     N_R   0.078990 0.076890 0.443360 -0.042520
N27   N     N_R   0.110940 0.924180 0.705460 -0.044956
N28   N     N_R   0.579670 0.423790 0.443360 -0.045531
N29   N     N_R   0.420330 0.423790 0.556640 -0.045535
N30   N     N_R   0.079670 0.923790 0.443360 -0.045532
N31   N     N_R   0.920330 0.923790 0.556640 -0.045537
N32   N     N_R   0.625470 0.423490 0.556600 -0.062844
Ni1   Ni    Ni4+2 0.383200 0.500680 0.370150 0.212111
Ni2   Ni    Ni4+2 0.616800 0.500680 0.629850 0.212116
Ni3   Ni    Ni4+2 0.883200 0.000680 0.370150 0.212110
Ni4   Ni    Ni4+2 0.116800 0.000680 0.629850 0.212111
Ni5   Ni    Ni4+2 0.512440 0.500680 0.370150 0.209050
Ni6   Ni    Ni4+2 0.487560 0.500680 0.629850 0.209045
Ni7   Ni    Ni4+2 0.012440 0.000680 0.370150 0.209050
Ni8   Ni    Ni4+2 0.987560 0.000680 0.629850 0.209044

loop_
_geom_bond_atom_site_label_1
_geom_bond_atom_site_label_2
_ccdc_geom_bond_type
C3    C104  A    
C87   H59   S    
C87   C88   A    
C13   C79   A    
N16   N21   A    
C49   H9    S    
C95   C96   A    
N5    N12   A    
C56   C98   S    
C61   H50   S    
C34   C66   S    
N11   Ni3   S    
C55   C68   A    
N1    N6    A    
C81   N19   A    
C71   C94   A    
C73   H37   S    
C85   C86   A    
N5    Ni6   S    
N9    Ni1   S    
C40   H17   S    
C101  C102  A    
C97   H68   S    
N1    Ni1   S    
N20   Ni4   S    
C18   C24   S    
C32   C36   D    
C48   H30   S    
C3    H74   S    
N32   Ni2   S    
N11   N25   A    
C12   C43   S    
C17   C64   A    
C46   H28   S    
C5    C6    A    
C18   H57   S    
C53   H13   S    
C43   C52   D    
C71   N9    A    
C35   C65   S    
C50   H49   S    
C102  H72   S    
C98   C103  A    
C98   C99   A    
C47   N30   A    
C59   H32   S    
C12   C84   A    
C11   C42   S    
C59   N6    A    
C55   N2    A    
C32   H22   S    
C24   C29   D    
C47   C69   A    
C57   N4    A    
C55   C91   S    
N13   N26   A    
C11   C77   A    
C19   H45   S    
C29   C67   S    
C10   C76   A    
C44   C53   D    
C80   N18   A    
C99   H69   S    
N28   N32   A    
C93   H64   S    
C79   N17   A    
C12   C78   A    
C45   C67   A    
N15   N18   A    
C8    C22   S    
C31   H8    S    
C86   H58   S    
C23   C27   D    
C62   H35   S    
N13   Ni4   S    
C36   H14   S    
C82   H47   S    
C36   C52   S    
C2    C61   A    
C60   H33   S    
N28   Ni5   S    
C37   C53   S    
C74   H38   S    
N3    N30   A    
C60   C66   A    
C26   C31   D    
C93   C95   A    
C72   H51   S    
C96   H66   S    
C73   N10   A    
C90   H62   S    
C16   H55   S    
C78   N16   A    
C84   H48   S    
C1    C63   A    
C41   C49   D    
C30   C70   S    
N4    N31   A    
C42   H19   S    
N3    Ni4   S    
C75   N13   A    
C58   C64   A    
C15   C20   D    
N2    Ni1   S    
C44   H21   S    
C8    C72   A    
C45   N28   A    
N19   Ni1   S    
C14   H53   S    
C51   H10   S    
C29   H6    S    
N14   Ni5   S    
C32   C64   S    
C15   H54   S    
N10   Ni2   S    
C11   C80   A    
N6    Ni5   S    
C26   H4    S    
C91   C92   A    
C38   C49   S    
C86   C87   A    
C50   C94   A    
C15   C26   S    
C62   N8    A    
C54   C67   A    
C6    H77   S    
N24   Ni5   S    
C21   H67   S    
C13   C82   A    
C33   H24   S    
C33   C37   D    
C103  H73   S    
C41   H18   S    
C54   N32   A    
C5    H76   S    
C46   C68   A    
N27   Ni4   S    
C95   H65   S    
N29   Ni6   S    
C72   N25   A    
C37   H15   S    
C56   N3    A    
C80   H44   S    
C33   C63   S    
C46   N29   A    
C96   C97   A    
C58   N5    A    
C8    C74   A    
C39   N27   A    
N15   Ni6   S    
C91   C97   A    
C92   C93   A    
C77   N15   A    
C35   H26   S    
C89   H61   S    
C6    C7    A    
C2    C73   A    
C75   H39   S    
C9    C83   A    
C79   H43   S    
C50   N22   A    
C45   H27   S    
C16   C23   S    
C7    C104  A    
C100  H70   S    
C57   C70   A    
C39   C66   A    
C101  H71   S    
C24   H2    S    
C4    H75   S    
C3    C4    A    
C39   H34   S    
C77   H41   S    
C25   H3    S    
C52   H11   S    
C25   C30   D    
C62   C65   A    
C57   C104  S    
C20   C94   S    
C74   N11   A    
N21   Ni3   S    
N9    N22   A    
N31   Ni8   S    
C2    C19   S    
C34   C38   D    
N16   Ni7   S    
C59   C63   A    
C14   C19   D    
C34   H25   S    
N8    Ni7   S    
C48   C70   A    
C4    C5    A    
C76   H40   S    
C54   C85   S    
N12   Ni2   S    
C85   C90   A    
C28   H23   S    
C16   C21   D    
C71   H36   S    
C83   H52   S    
C42   C51   D    
C1    N1    A    
C58   H31   S    
C40   C51   S    
N10   N24   A    
C84   N21   A    
C10   C81   A    
N23   Ni3   S    
C99   C100  A    
C7    H79   S    
C30   H7    S    
N26   Ni7   S    
N18   Ni2   S    
C18   C22   D    
C28   C65   A    
C89   C90   A    
C38   H16   S    
C23   H80   S    
C22   H78   S    
C88   H60   S    
C82   N20   A    
C92   H63   S    
C9    C21   S    
C27   C68   S    
N22   Ni6   S    
C60   N7    A    
C43   H20   S    
C100  C101  A    
N17   N20   A    
C35   C40   D    
C14   C25   S    
C102  C103  A    
N25   Ni8   S    
N8    N23   A    
C48   N31   A    
C83   N26   A    
N30   Ni7   S    
C78   H42   S    
C61   N24   A    
C31   C69   S    
C88   C89   A    
C27   H5    S    
C56   C69   A    
C20   H56   S    
C1    H1    S    
N14   N19   A    
C28   N23   A    
N2    N29   A    
C17   N12   A    
C76   N14   A    
C9    C75   A    
N17   Ni8   S    
N4    Ni3   S    
N7    Ni8   S    
C13   C44   S    
C47   H29   S    
C81   H46   S    
C17   H12   S    
N7    N27   A    
C10   C41   S    
