data_mof_unit_4356.cif
_audit_creation_date              2012-12-10T18:22:30-0500
_audit_creation_method            fapswitch 2.2
_symmetry_space_group_name_H-M    P1
_symmetry_Int_Tables_number       1
_space_group_crystal_system       triclinic
_cell_length_a                    23.520852
_cell_length_b                    10.618288
_cell_length_c                    9.400574
_cell_angle_alpha                 90.261387
_cell_angle_beta                  90.022772
_cell_angle_gamma                 90.202535
_cell_volume                      2347.7651534

loop_
_atom_site_label
_atom_site_type_symbol
_atom_type_description
_atom_site_fract_x
_atom_site_fract_y
_atom_site_fract_z
_atom_type_partial_charge
C1    C     C_R   0.500019 0.259357 0.499604 0.772017
C2    C     C_R   0.500084 0.740667 0.500387 0.773640
C3    C     C_R   0.235973 0.499130 0.618246 -0.240498
C4    C     C_R   0.760668 0.428368 0.391481 -0.241703
C5    C     C_R   0.295296 0.507146 0.625958 0.228752
C6    C     C_R   0.701188 0.428639 0.389509 0.226024
C7    C     C_R   0.327812 0.501607 0.499053 -0.107657
C8    C     C_R   0.671322 0.490701 0.499860 -0.099410
C9    C     C_R   0.299374 0.494082 0.367430 -0.351809
C10   C     C_R   0.701600 0.547494 0.611853 -0.359069
C11   C     C_R   0.240008 0.488710 0.360437 0.307559
C12   C     C_R   0.761064 0.545150 0.614537 0.310120
C13   C     C_R   0.208301 0.490342 0.487015 0.312956
C14   C     C_R   0.790626 0.486060 0.502750 0.309408
C15   C     C_3   0.546716 0.042878 0.567882 -0.171736
C16   C     C_3   0.453669 0.957242 0.432018 -0.164726
C17   C     C_3   0.547103 0.958063 0.433711 -0.171048
C18   C     C_3   0.453284 0.042018 0.566198 -0.166765
C19   C     C_3   0.500202 0.877624 0.501121 0.025898
C20   C     C_3   0.500163 0.122450 0.498801 0.024118
C21   C     C_3   0.499828 0.960150 0.635419 -0.138736
C22   C     C_3   0.500564 0.039957 0.364496 -0.140589
C23   C     C_R   0.390814 0.501285 0.500144 0.824063
C24   C     C_R   0.608895 0.497552 0.499879 0.828991
C25   C     C_3   0.534339 0.584887 0.051151 -0.029911
C26   C     C_3   0.465664 0.415097 0.948861 -0.023045
C27   C     C_3   0.484112 0.608063 0.949989 -0.040529
C28   C     C_3   0.515894 0.391917 0.050040 -0.035852
C29   C     C_3   0.550278 0.476784 0.949589 -0.036966
C30   C     C_3   0.449739 0.523175 0.050445 -0.035986
C31   C     C_R   0.879702 0.594955 0.464058 0.573575
C32   C     C_R   0.119243 0.380110 0.520296 0.518931
C33   C     C_R   0.880218 0.377609 0.529200 0.521213
C34   C     C_R   0.118711 0.596012 0.449381 0.575901
C35   C     C_R   0.939823 0.375676 0.526609 -0.016323
C36   C     C_R   0.059091 0.597722 0.451038 -0.025419
C37   C     C_R   0.969470 0.486643 0.490977 -0.016032
C38   C     C_R   0.029446 0.487012 0.487710 -0.015897
C39   C     C_R   0.939288 0.597297 0.458830 -0.024681
C40   C     C_R   0.059639 0.376864 0.521905 -0.015268
C41   C     C_R   0.970346 0.266040 0.559217 -0.165327
C42   C     C_R   0.028561 0.707299 0.418204 -0.162752
C43   C     C_R   0.029655 0.266733 0.557315 -0.165913
C44   C     C_R   0.969269 0.707159 0.422341 -0.163265
Cu1   Cu    Cu3+1 0.500010 0.499990 0.643150 0.937424
Cu2   Cu    Cu3+1 0.499990 0.500010 0.356850 0.939584
H1    H     H_    0.948545 0.179557 0.586950 0.189782
H2    H     H_    0.050357 0.793620 0.389822 0.188142
H3    H     H_    0.470562 0.698955 0.903215 0.111352
H4    H     H_    0.529441 0.301037 0.096844 0.114524
H5    H     H_    0.563205 0.656178 0.099396 0.115322
H6    H     H_    0.436723 0.343952 0.900614 0.119520
H7    H     H_    0.592650 0.456957 0.902785 0.121082
H8    H     H_    0.407425 0.542811 0.097515 0.109851
H9    H     H_    0.051885 0.180773 0.583655 0.189349
H10   H     H_    0.947049 0.793364 0.396970 0.188408
H11   H     H_    0.210949 0.503194 0.714918 0.150649
H12   H     H_    0.783921 0.382358 0.306544 0.152470
H13   H     H_    0.323178 0.491120 0.268869 0.165903
H14   H     H_    0.679011 0.594797 0.697082 0.163734
H15   H     H_    0.585489 0.920666 0.379608 0.131458
H16   H     H_    0.414931 0.079601 0.620284 0.131797
H17   H     H_    0.584770 0.081211 0.623223 0.130457
H18   H     H_    0.415625 0.918963 0.376587 0.131833
H19   H     H_    0.499513 0.924851 0.746414 0.127909
H20   H     H_    0.500940 0.075334 0.253534 0.127853
N1    N     N_R   0.851576 0.486431 0.499525 -0.447912
N2    N     N_R   0.147370 0.488321 0.483684 -0.447530
N3    N     N_3   0.500040 0.499970 0.858290 -0.152720
N4    N     N_3   0.499960 0.500030 0.141710 -0.152701
O1    O     O_R   0.500030 0.316850 0.620870 -0.584006
O2    O     O_R   0.499970 0.683150 0.379130 -0.584763
O3    O     O_R   0.500000 0.316860 0.379090 -0.585698
O4    O     O_R   0.500000 0.683140 0.620910 -0.591897
O5    O     O_R   0.417890 0.499960 0.620920 -0.540815
O6    O     O_R   0.582110 0.500040 0.379080 -0.544191
O7    O     O_R   0.417870 0.499970 0.379140 -0.594136
O8    O     O_R   0.582130 0.500030 0.620860 -0.594429
O9    O     O_2   0.850025 0.699878 0.433164 -0.537111
O10   O     O_2   0.148950 0.276042 0.554507 -0.546153
O11   O     O_2   0.851041 0.272090 0.562332 -0.543788
O12   O     O_2   0.147887 0.701289 0.415322 -0.535079
N5    N     N_2   0.321390 0.523179 0.761466 -0.409275
H21   H     H_    0.301207 0.474546 0.841841 0.240992
C45   C     C_3   0.331387 0.653533 0.799836 -0.656779
H22   H     H_    0.290338 0.704401 0.809662 0.222103
H23   H     H_    0.358332 0.700648 0.718721 0.234222
H24   H     H_    0.353775 0.658404 0.903604 0.204205
N6    N     N_2   0.671889 0.365390 0.277256 -0.412262
H25   H     H_    0.693647 0.364776 0.181963 0.241833
C46   C     C_3   0.650813 0.241577 0.314255 -0.646388
H26   H     H_    0.686900 0.176936 0.335113 0.226407
H27   H     H_    0.625123 0.203071 0.224877 0.210687
H28   H     H_    0.623280 0.246241 0.410000 0.217075
N7    N     N_2   0.212300 0.484585 0.225927 -0.415479
H29   H     H_    0.233565 0.533783 0.147759 0.249697
C47   C     C_3   0.196699 0.359329 0.178848 -0.661370
H30   H     H_    0.173612 0.365249 0.076048 0.229207
H31   H     H_    0.168284 0.313367 0.257319 0.258843
H32   H     H_    0.235383 0.300992 0.163432 0.219435
N8    N     N_2   0.791068 0.605078 0.727645 -0.409335
H33   H     H_    0.770787 0.683763 0.767296 0.257065
C48   C     C_3   0.808471 0.520834 0.839865 -0.663857
H34   H     H_    0.833383 0.574114 0.920611 0.232881
H35   H     H_    0.835753 0.444556 0.797071 0.254317
H36   H     H_    0.770565 0.478891 0.892348 0.214047

loop_
_geom_bond_atom_site_label_1
_geom_bond_atom_site_label_2
_ccdc_geom_bond_type
N8    H33   S    
C8    C24   S    
Cu1   O1    S    
C18   C21   S    
C36   C42   A    
N7    H29   S    
Cu2   O6    S    
C47   H30   S    
Cu1   Cu2   S    
C31   N1    A    
C30   H8    S    
C1    O1    A    
C28   C29   S    
C35   C37   A    
C5    N5    S    
C46   H27   S    
C11   N7    S    
C18   C20   S    
C7    C9    A    
C22   H20   S    
C17   H15   S    
C28   H4    S    
C40   C43   A    
C14   N1    S    
Cu1   O8    S    
N6    C46   S    
Cu2   O2    S    
C27   N3    S    
C32   N2    A    
C24   O6    A    
N8    C48   S    
C27   C30   S    
C41   C43   A    
C42   C44   A    
C2    O2    A    
C30   N4    S    
C29   N3    S    
C45   H23   S    
C25   C29   S    
C15   C20   S    
Cu1   N3    S    
C4    C6    A    
C47   H31   S    
C34   N2    A    
C46   H26   S    
C5    C7    A    
C17   C19   S    
C6    C8    A    
C45   H22   S    
Cu1   O4    S    
C9    H13   S    
C10   H14   S    
C25   H5    S    
C37   C38   A    
C26   H6    S    
C32   O10   S    
C44   H10   S    
N5    H21   S    
C41   H1    S    
C48   H35   S    
C42   H2    S    
C23   O7    A    
C9    C11   A    
C2    O4    A    
C10   C12   A    
C3    H11   S    
C43   H9    S    
N5    C45   S    
C12   C14   A    
C26   C30   S    
C20   C22   S    
C47   H32   S    
C33   N1    A    
C45   H24   S    
C24   O8    A    
C15   C17   S    
C1    C20   S    
C16   C22   S    
C21   H19   S    
C2    C19   S    
C8    C10   A    
C28   N4    S    
C23   O5    A    
C3    C5    A    
C3    C13   A    
Cu2   O7    S    
N7    C47   S    
C31   O9    S    
C39   C44   A    
C25   C27   S    
C6    N6    S    
C34   O12   S    
C26   C28   S    
C17   C22   S    
Cu1   O5    S    
C1    O3    A    
C36   C38   A    
C12   N8    S    
C37   C39   A    
C46   H28   S    
C38   C40   A    
C11   C13   A    
C29   H7    S    
C16   C19   S    
C7    C23   S    
C33   C35   A    
C31   C39   A    
C48   H36   S    
C34   C36   A    
C32   C40   A    
C4    C14   A    
C35   C41   A    
Cu2   N4    S    
C15   C21   S    
C16   C18   S    
C4    H12   S    
C48   H34   S    
C26   N3    S    
C15   H17   S    
C18   H16   S    
C25   N4    S    
C16   H18   S    
N6    H25   S    
C33   O11   S    
Cu2   O3    S    
C27   H3    S    
C19   C21   S    
C13   N2    S    
