data_mof_unit_4925.cif
_audit_creation_date              2012-12-10T19:00:01-0500
_audit_creation_method            fapswitch 2.2
_symmetry_space_group_name_H-M    P1
_symmetry_Int_Tables_number       1
_space_group_crystal_system       triclinic
_cell_length_a                    11.15145
_cell_length_b                    11.036729
_cell_length_c                    10.132962
_cell_angle_alpha                 90.300316
_cell_angle_beta                  91.09104
_cell_angle_gamma                 94.665391
_cell_volume                      1242.73339951

loop_
_atom_site_label
_atom_site_type_symbol
_atom_type_description
_atom_site_fract_x
_atom_site_fract_y
_atom_site_fract_z
_atom_type_partial_charge
C1    C     C_R   0.508267 0.261649 0.499198 0.848664
C2    C     C_R   0.504943 0.067809 0.616668 -0.404143
C3    C     C_R   0.487131 0.873902 0.502854 -0.193753
C4    C     C_R   0.517190 0.129649 0.497281 -0.196675
C5    C     C_R   0.565940 0.586249 0.071509 0.415776
C6    C     C_R   0.443837 0.403182 0.928783 0.378372
C7    C     C_R   0.552928 0.595264 0.929487 0.276930
C8    C     C_R   0.433888 0.410833 0.073625 0.310656
C9    C     C_R   0.260081 0.497214 0.498829 0.805686
C10   C     C_R   0.740085 0.504676 0.502408 0.812338
C11   C     C_R   0.238884 0.630468 0.096364 -0.307400
C12   C     C_R   0.492670 0.739543 0.500927 0.853844
C13   C     C_R   0.765853 0.395309 0.923657 -0.428649
C14   C     C_R   0.188719 0.627001 0.219566 -0.078548
C15   C     C_R   0.809647 0.393517 0.797189 -0.111031
C16   C     C_R   0.110479 0.528134 0.253953 0.180645
C17   C     C_R   0.893817 0.485294 0.757717 0.107378
C18   C     C_R   0.083182 0.431261 0.165353 -0.264707
C19   C     C_R   0.937760 0.575639 0.848373 -0.389146
C20   C     C_R   0.127055 0.437522 0.035417 0.501698
C21   C     C_R   0.900861 0.572689 0.980587 0.431936
C22   C     C_R   0.200645 0.541972 0.000174 0.524446
C23   C     C_R   0.873873 0.510068 0.508563 -0.149129
C24   C     C_R   0.819657 0.475410 0.020273 0.513354
C25   C     C_R   0.936869 0.539573 0.394311 -0.190906
C26   C     C_R   0.065545 0.476413 0.615279 -0.238067
C27   C     C_3   0.251251 0.671438 0.827648 -0.272625
C28   C     C_3   0.760811 0.345012 0.194235 -0.200629
C29   C     C_3   0.697205 0.721809 0.832260 0.172531
C30   C     C_3   0.725852 0.842081 0.762566 -0.839578
C31   C     C_3   0.321779 0.224745 0.121898 0.186462
C32   C     C_3   0.258646 0.163100 0.238795 -0.846211
C33   C     C_3   0.023865 0.247417 0.973252 0.053014
C34   C     C_R   0.126771 0.496939 0.497804 -0.137205
C35   C     C_3   0.997060 0.162135 0.855478 -0.890775
C36   C     C_3   0.948366 0.775063 0.048399 0.111185
C37   C     C_3   0.042324 0.854070 0.127529 -0.896795
C38   C     C_3   0.588908 0.047543 0.160684 0.031514
C39   C     C_3   0.625462 0.111014 0.033416 -0.945685
C40   C     C_3   0.319384 0.944092 0.762607 0.094551
C41   C     C_3   0.319238 0.970446 0.909768 -0.920106
C42   C     C_3   0.620002 0.775523 0.145769 -0.267575
C43   C     C_3   0.311238 0.280145 0.794641 -0.134753
C44   C     C_R   0.941923 0.486010 0.623743 0.048620
C45   C     C_R   0.059067 0.523624 0.384884 0.006464
C46   C     C_R   0.522839 0.063442 0.378082 0.519501
C47   C     C_R   0.476332 0.942300 0.618808 0.537287
C48   C     C_R   0.496138 0.936311 0.384326 -0.440229
H1    H     H_    0.304150 0.705047 0.074902 0.118332
H2    H     H_    0.503353 0.117358 0.709000 0.236370
H3    H     H_    0.345088 0.706912 0.848137 0.264930
H4    H     H_    0.186867 0.730545 0.873087 0.137483
H5    H     H_    0.234328 0.673742 0.719838 0.202366
H6    H     H_    0.782412 0.335926 0.300413 0.185467
H7    H     H_    0.813745 0.277063 0.149419 0.093371
H8    H     H_    0.662932 0.323697 0.179630 0.232801
H9    H     H_    0.721742 0.648775 0.767568 0.183677
H10   H     H_    0.753116 0.722642 0.920772 0.114911
H11   H     H_    0.686247 0.916684 0.815291 0.266171
H12   H     H_    0.694004 0.330439 0.946948 0.177036
H13   H     H_    0.824875 0.862828 0.759650 0.180830
H14   H     H_    0.691569 0.836624 0.659426 0.249191
H15   H     H_    0.403685 0.180969 0.103172 0.202886
H16   H     H_    0.260025 0.210409 0.038245 0.164498
H17   H     H_    0.171069 0.201078 0.255376 0.226717
H18   H     H_    0.242678 0.063859 0.219343 0.205627
H19   H     H_    0.313484 0.177295 0.330262 0.271761
H20   H     H_    0.938087 0.277545 0.002065 0.170824
H21   H     H_    0.061594 0.195671 0.055236 0.134667
H22   H     H_    0.914960 0.101216 0.874251 0.217888
H23   H     H_    0.213569 0.699437 0.289965 0.123525
H24   H     H_    0.071759 0.103900 0.839683 0.225723
H25   H     H_    0.981843 0.214785 0.764496 0.272585
H26   H     H_    0.860874 0.801539 0.082625 0.176827
H27   H     H_    0.959483 0.798551 0.942730 0.111718
H28   H     H_    0.133462 0.842513 0.090716 0.252504
H29   H     H_    0.025123 0.951265 0.116289 0.208287
H30   H     H_    0.037819 0.830525 0.233840 0.262133
H31   H     H_    0.511760 0.983981 0.129068 0.162247
H32   H     H_    0.669031 0.004319 0.197995 0.154700
H33   H     H_    0.723836 0.133158 0.031130 0.230596
H34   H     H_    0.774891 0.322894 0.728657 0.166774
H35   H     H_    0.602954 0.049522 0.948224 0.248990
H36   H     H_    0.575544 0.191504 0.018541 0.276914
H37   H     H_    0.239909 0.883346 0.732887 0.119953
H38   H     H_    0.303222 0.029584 0.710091 0.118681
H39   H     H_    0.387202 0.046500 0.931767 0.275072
H40   H     H_    0.229543 0.996208 0.939456 0.208608
H41   H     H_    0.342797 0.890758 0.967654 0.252143
H42   H     H_    0.653351 0.811375 0.242970 0.186361
H43   H     H_    0.521026 0.781514 0.134784 0.136973
H44   H     H_    0.664169 0.832610 0.068709 0.160359
H45   H     H_    0.025864 0.354296 0.198582 0.113701
H46   H     H_    0.266714 0.363639 0.787236 0.251390
H47   H     H_    0.249734 0.208632 0.835726 0.147862
H48   H     H_    0.321695 0.245610 0.693938 0.149061
H49   H     H_    0.003060 0.645737 0.815644 0.167436
H50   H     H_    0.891488 0.578668 0.312664 0.268275
H51   H     H_    0.113521 0.452725 0.702583 0.244685
H52   H     H_    0.475325 0.884121 0.297715 0.161775
N1    N     N_R   0.499970 0.499970 0.857200 -0.161348
N2    N     N_R   0.500030 0.500030 0.142800 -0.171442
O1    O     O_R   0.499990 0.316750 0.614620 -0.601138
O2    O     O_3   0.792841 0.465317 0.153029 -0.592596
O3    O     O_3   0.575849 0.706259 0.867313 -0.565067
O4    O     O_3   0.344352 0.349322 0.147897 -0.583102
O5    O     O_3   0.101075 0.349091 0.936841 -0.651884
O6    O     O_3   0.957237 0.650287 0.076163 -0.610876
O7    O     O_3   0.550988 0.125651 0.260249 -0.617310
O8    O     O_3   0.426866 0.889342 0.730515 -0.578492
O9    O     O_3   0.653995 0.657362 0.137818 -0.558519
O10   O     O_3   0.421196 0.290394 0.867219 -0.662239
O11   O     O_R   0.500010 0.683250 0.385380 -0.617595
O12   O     O_R   0.499990 0.316780 0.385290 -0.552036
O13   O     O_R   0.500010 0.683220 0.614710 -0.536443
O14   O     O_R   0.316760 0.500000 0.614660 -0.613757
O15   O     O_R   0.683240 0.500000 0.385340 -0.546795
O16   O     O_R   0.316760 0.500020 0.385330 -0.576717
O17   O     O_R   0.683240 0.499980 0.614670 -0.648830
O18   O     O_3   0.236621 0.550907 0.870741 -0.660682
Zn1   Zn    Zn3+2 0.500000 0.499980 0.653120 1.008134
Zn2   Zn    Zn3+2 0.500000 0.500020 0.346880 1.046540

loop_
_geom_bond_atom_site_label_1
_geom_bond_atom_site_label_2
_ccdc_geom_bond_type
C41   H41   S    
O13   Zn1   S    
C36   O6    S    
C14   H23   S    
C33   O5    S    
O15   Zn2   S    
C28   H8    S    
C26   C44   A    
C13   H12   S    
C4    C46   A    
C27   O18   S    
C22   O18   S    
C36   C37   S    
C19   C21   A    
C39   H36   S    
C38   C39   S    
C11   C14   A    
C38   H31   S    
C3    C48   A    
C43   H46   S    
C42   H43   S    
O16   Zn2   S    
C6    N1    A    
C40   H38   S    
C10   O17   A    
C2    H2    S    
C17   C19   A    
C26   C34   A    
O11   Zn2   S    
C35   H22   S    
C43   H47   S    
C7    O3    S    
C3    C12   S    
C1    O1    A    
C42   H44   S    
C33   H21   S    
C26   H51   S    
C20   O5    S    
C9    O16   A    
C29   O3    S    
C48   H52   S    
C28   H7    S    
C27   H3    S    
C15   H34   S    
O17   Zn1   S    
C19   H49   S    
C41   H39   S    
C46   C48   A    
O14   Zn1   S    
C31   H15   S    
C39   H33   S    
C5    C7    A    
C28   H6    S    
C40   O8    S    
C5    O9    S    
C37   H29   S    
N1    Zn1   S    
C23   C44   A    
C13   C24   A    
C24   O2    S    
C40   H37   S    
C2    C4    A    
C42   O9    S    
C29   C30   S    
C11   H1    S    
C36   H27   S    
C28   O2    S    
C31   C32   S    
C30   H11   S    
C43   H48   S    
C34   C45   A    
C38   O7    S    
C36   H26   S    
C32   H19   S    
C40   C41   S    
C37   H28   S    
C29   H9    S    
C35   H24   S    
C30   H14   S    
C7    N1    A    
C9    C34   S    
C2    C47   A    
C31   O4    S    
C14   C16   A    
C46   O7    S    
C43   O10   S    
C21   C24   A    
O1    Zn1   S    
C25   C45   A    
C27   H4    S    
C32   H18   S    
C12   O11   A    
C15   C17   A    
C41   H40   S    
C5    N2    A    
C35   H25   S    
C9    O14   A    
C6    O10   S    
C31   H16   S    
C20   C22   A    
C8    O4    S    
C16   C45   S    
C6    C8    A    
C27   H5    S    
C10   C23   S    
C47   O8    S    
C37   H30   S    
C11   C22   A    
C1    C4    S    
C12   O13   A    
C13   C15   A    
C17   C44   S    
C39   H35   S    
C10   O15   A    
C38   H32   S    
C3    C47   A    
C33   C35   S    
C18   C20   A    
C23   C25   A    
C21   O6    S    
O12   Zn2   S    
C25   H50   S    
C29   H10   S    
C16   C18   A    
C1    O12   A    
C30   H13   S    
C18   H45   S    
C42   H42   S    
N2    Zn2   S    
C8    N2    A    
C33   H20   S    
C32   H17   S    
