data_mof_unit_3733.cif
_audit_creation_date              2012-12-10T17:18:21-0500
_audit_creation_method            fapswitch 2.2
_symmetry_space_group_name_H-M    P1
_symmetry_Int_Tables_number       1
_space_group_crystal_system       triclinic
_cell_length_a                    10.229283
_cell_length_b                    10.729548
_cell_length_c                    14.885605
_cell_angle_alpha                 90.389998
_cell_angle_beta                  80.536542
_cell_angle_gamma                 94.942597
_cell_volume                      1605.50610115

loop_
_atom_site_label
_atom_site_type_symbol
_atom_type_description
_atom_site_fract_x
_atom_site_fract_y
_atom_site_fract_z
_atom_type_partial_charge
C1    C     C_R   0.555675 0.733029 0.497728 0.844449
C2    C     C_2   0.079375 0.509363 0.480845 -0.073407
C3    C     C_R   0.499578 0.500440 0.672782 0.855749
C4    C     C_R   0.500394 0.499559 0.327208 0.882852
C5    C     C_R   0.449889 0.391891 0.192228 -0.279083
C6    C     C_R   0.549331 0.608388 0.807786 -0.275591
C7    C     C_R   0.501286 0.498694 0.231825 -0.035725
C8    C     C_R   0.498497 0.501386 0.768146 -0.026239
C9    C     C_R   0.552321 0.605059 0.181505 -0.226654
C10   C     C_R   0.447213 0.395106 0.818470 -0.240698
C11   C     C_R   0.550973 0.606587 0.088716 0.079256
C12   C     C_R   0.444199 0.267068 0.508813 0.839829
C13   C     C_R   0.448057 0.393754 0.911314 0.083361
C14   C     C_R   0.499597 0.498963 0.046736 0.031823
C15   C     C_R   0.499261 0.501436 0.953317 0.030626
C16   C     C_R   0.448871 0.389199 0.098540 0.065453
C17   C     C_R   0.549967 0.611206 0.901512 0.064185
C18   C     C_R   0.599782 0.714856 0.038339 -0.209849
C19   C     C_R   0.398983 0.285576 0.961713 -0.212110
C20   C     C_3   0.651162 0.838741 0.888891 -0.401178
C21   C     C_3   0.700177 0.951263 0.941867 -0.869976
C22   C     C_3   0.346906 0.161884 0.111221 -0.392810
C23   C     C_R   0.599790 0.719882 0.944257 0.147403
C24   C     C_3   0.297084 0.049621 0.058329 -0.867665
C25   C     C_3   0.099891 0.636383 0.607833 -0.213867
C26   C     C_3   0.183416 0.669227 0.681522 -0.747866
C27   C     C_3   0.897681 0.354360 0.398700 -0.242178
C28   C     C_3   0.796531 0.255934 0.370569 -0.676626
C29   C     C_R   0.398747 0.280617 0.055821 0.143033
C30   C     C_2   0.587418 0.865808 0.508723 0.206638
C31   C     C_2   0.411729 0.134269 0.523371 0.211743
C32   C     C_2   0.489330 0.933110 0.547545 -0.201432
C33   C     C_2   0.505058 0.067561 0.547676 -0.217717
C34   C     C_2   0.929723 0.526185 0.493564 -0.077026
Cl1   Cl    Cl    0.254923 0.066641 0.503985 -0.602416
Cl2   Cl    Cl    0.751036 0.931812 0.469652 -0.628089
H1    H     H_    0.411794 0.312079 0.235741 0.135496
H2    H     H_    0.890725 0.603815 0.533102 0.156625
H3    H     H_    0.618993 0.979965 0.994907 0.259411
H4    H     H_    0.786588 0.929079 0.973460 0.261344
H5    H     H_    0.732766 0.031445 0.894338 0.261659
H6    H     H_    0.735148 0.816748 0.835385 0.215802
H7    H     H_    0.569903 0.868540 0.854880 0.207284
H8    H     H_    0.210903 0.072406 0.026704 0.259866
H9    H     H_    0.378019 0.020362 0.005327 0.257120
H10   H     H_    0.263887 0.969587 0.105921 0.265800
H11   H     H_    0.428081 0.131633 0.145114 0.211947
H12   H     H_    0.587388 0.688209 0.764264 0.126304
H13   H     H_    0.263185 0.184241 0.164812 0.218798
H14   H     H_    0.187732 0.585696 0.724120 0.260897
H15   H     H_    0.283318 0.712047 0.652821 0.268482
H16   H     H_    0.134276 0.739620 0.727341 0.209607
H17   H     H_    0.082173 0.725149 0.575310 0.206150
H18   H     H_    0.004077 0.592711 0.645566 0.162134
H19   H     H_    0.752289 0.195273 0.429361 0.286977
H20   H     H_    0.720065 0.297355 0.338926 0.264805
H21   H     H_    0.848867 0.194620 0.318672 0.221755
H22   H     H_    0.952522 0.401821 0.335637 0.168395
H23   H     H_    0.591338 0.686793 0.215173 0.141715
H24   H     H_    0.966895 0.300206 0.430030 0.198230
H25   H     H_    0.408405 0.313305 0.784764 0.132097
H26   H     H_    0.637403 0.794919 0.073849 0.167162
H27   H     H_    0.361399 0.205510 0.926188 0.164331
H28   H     H_    0.599826 0.112309 0.559995 0.195672
H29   H     H_    0.390226 0.889341 0.571531 0.197848
H30   H     H_    0.124457 0.455471 0.424091 0.147336
N1    N     N_2   0.842700 0.448880 0.462930 -0.049231
N2    N     N_2   0.157300 0.551120 0.537070 -0.044667
O1    O     O_R   0.431060 0.692470 0.507460 -0.627695
O2    O     O_R   0.568940 0.307530 0.492540 -0.639355
O3    O     O_R   0.651120 0.659650 0.483670 -0.572506
O4    O     O_R   0.348880 0.340350 0.516330 -0.566379
O5    O     O_R   0.389960 0.516440 0.644050 -0.620638
O6    O     O_R   0.610040 0.483560 0.355950 -0.611379
O7    O     O_R   0.610030 0.483620 0.620260 -0.610913
O8    O     O_R   0.389970 0.516380 0.379740 -0.609599
Zn1   Zn    Zn3+2 0.353060 0.521920 0.515880 0.980155
Zn2   Zn    Zn3+2 0.646940 0.478080 0.484120 0.972963

loop_
_geom_bond_atom_site_label_1
_geom_bond_atom_site_label_2
_ccdc_geom_bond_type
C11   C18   A    
C22   C29   S    
C5    H1    S    
O2    Zn2   S    
O1    Zn1   S    
C28   H20   S    
C28   H21   S    
N1    Zn2   S    
C1    O3    A    
C6    H12   S    
C24   H9    S    
C25   H17   S    
C2    N2    D    
C27   H24   S    
C26   H14   S    
C11   C14   A    
C15   C17   A    
C5    C16   A    
C19   H27   S    
C31   C33   D    
C14   C16   A    
C3    O7    A    
C4    O6    A    
C2    C34   S    
C22   H11   S    
C12   O4    A    
C25   N2    S    
C4    C7    S    
C28   H19   S    
C13   C19   A    
C18   C23   A    
C25   H18   S    
C3    C8    S    
C5    C7    A    
C18   H26   S    
C6    C8    A    
C16   C29   A    
C10   C13   A    
C1    O1    A    
C9    H23   S    
O4    Zn1   S    
C26   H16   S    
C21   H3    S    
C20   C23   S    
C17   C23   A    
O8    Zn1   S    
C9    C11   A    
C22   H13   S    
C21   H5    S    
C13   C15   A    
C12   C31   S    
C24   H8    S    
C22   C24   S    
C10   H25   S    
C19   C29   A    
C20   H7    S    
N2    Zn1   S    
C7    C9    A    
C6    C17   A    
C12   O2    A    
C34   H2    S    
C2    H30   S    
C27   H22   S    
C34   N1    D    
C20   H6    S    
C30   Cl2   S    
C24   H10   S    
C32   C33   S    
C25   C26   S    
C26   H15   S    
C30   C32   D    
C21   H4    S    
C33   H28   S    
C1    C30   S    
C31   Cl1   S    
C3    O5    A    
O7    Zn2   S    
C4    O8    A    
C27   N1    S    
C20   C21   S    
C8    C10   A    
O6    Zn2   S    
C27   C28   S    
O5    Zn1   S    
C14   C15   A    
O3    Zn2   S    
C32   H29   S    
