data_mof_unit_4955.cif
_audit_creation_date              2012-12-10T17:50:41-0500
_audit_creation_method            fapswitch 2.2
_symmetry_space_group_name_H-M    P1
_symmetry_Int_Tables_number       1
_space_group_crystal_system       triclinic
_cell_length_a                    15.710591
_cell_length_b                    10.631716
_cell_length_c                    9.932097
_cell_angle_alpha                 89.911584
_cell_angle_beta                  89.9348
_cell_angle_gamma                 91.662571
_cell_volume                      1658.2620274

loop_
_atom_site_label
_atom_site_type_symbol
_atom_type_description
_atom_site_fract_x
_atom_site_fract_y
_atom_site_fract_z
_atom_type_partial_charge
C1    C     C_R   0.502185 0.260760 0.500116 0.844545
C2    C     C_R   0.711582 0.074210 0.684423 -0.127946
C3    C     C_R   0.711685 0.943337 0.684157 -0.135674
C4    C     C_R   0.338025 0.499541 0.500055 0.887716
C5    C     C_R   0.645033 0.874892 0.623754 -0.187053
C6    C     C_R   0.576273 0.937221 0.563681 0.094670
C7    C     C_R   0.576135 0.069107 0.563996 0.097457
C8    C     C_R   0.508011 0.128678 0.499938 -0.082128
C9    C     C_R   0.443781 0.061921 0.432408 -0.215899
C10   C     C_R   0.443926 0.933402 0.432115 -0.198198
C11   C     C_R   0.508292 0.871991 0.499352 -0.095649
C12   C     C_3   0.082618 0.497132 0.500069 0.158847
C13   C     C_R   0.388835 0.334438 0.140254 -0.143250
C14   C     C_R   0.334287 0.252554 0.070382 -0.190538
C15   C     C_R   0.334292 0.252534 0.931019 -0.183763
C16   C     C_R   0.502473 0.739408 0.499864 0.865371
C17   C     C_R   0.388871 0.334363 0.860645 -0.141564
C18   C     C_R   0.445301 0.418350 0.927978 0.165218
C19   C     C_R   0.445298 0.418399 0.072453 0.168631
C20   C     C_R   0.552370 0.578085 0.071194 -0.094239
C21   C     C_R   0.552346 0.578065 0.928209 -0.099819
C22   C     C_R   0.661959 0.500286 0.499966 0.874458
C23   C     C_3   0.973899 0.602938 0.559567 -0.192907
C24   C     C_3   0.969538 0.396093 0.567681 -0.190211
C25   C     C_3   0.026106 0.391645 0.440065 -0.192050
C26   C     C_1   0.248977 0.498420 0.500224 -0.183426
C27   C     C_1   0.750927 0.499347 0.499936 -0.165174
C28   C     C_3   0.027942 0.501463 0.627686 -0.135016
C29   C     C_3   0.917198 0.497596 0.499653 0.153832
C30   C     C_3   0.030414 0.598699 0.431964 -0.187363
C31   C     C_3   0.972208 0.493270 0.372863 0.209104
C32   C     C_1   0.173579 0.497567 0.500259 -0.055353
C33   C     C_1   0.826266 0.498422 0.499932 -0.027415
C34   C     C_R   0.644801 0.137102 0.624353 -0.168542
H1    H     H_    0.049480 0.305503 0.390899 0.151414
H2    H     H_    0.595128 0.641977 0.874405 0.148371
H3    H     H_    0.942515 0.313433 0.623177 0.149114
H4    H     H_    0.057282 0.681278 0.376167 0.153335
H5    H     H_    0.950460 0.689185 0.608448 0.148718
H6    H     H_    0.052969 0.504791 0.732153 0.156520
H7    H     H_    0.392511 0.109586 0.382331 0.137322
H8    H     H_    0.648377 0.238739 0.623994 0.153677
H9    H     H_    0.763828 0.127232 0.730089 0.142175
H10   H     H_    0.764000 0.894684 0.729639 0.139899
H11   H     H_    0.648778 0.773521 0.622841 0.142131
H12   H     H_    0.392734 0.881422 0.381916 0.153593
H13   H     H_    0.595190 0.641979 0.124546 0.154652
H14   H     H_    0.384726 0.329225 0.247020 0.195966
H15   H     H_    0.291629 0.188873 0.124909 0.146847
H16   H     H_    0.291615 0.188855 0.876899 0.150939
H17   H     H_    0.384845 0.329121 0.753869 0.201274
I1    I     I_    0.926529 0.486775 0.170438 -0.416169
N1    N     N_R   0.499210 0.498800 0.142780 -0.123592
N2    N     N_R   0.499180 0.498720 0.857170 -0.122624
O1    O     O_R   0.500000 0.316780 0.614690 -0.641718
O2    O     O_R   0.499990 0.316750 0.385360 -0.627957
O3    O     O_R   0.376780 0.500000 0.614650 -0.627055
O4    O     O_R   0.376770 0.499980 0.385310 -0.631568
O5    O     O_R   0.500010 0.683250 0.614640 -0.615592
O6    O     O_R   0.500000 0.683220 0.385310 -0.612199
O7    O     O_R   0.623230 0.500020 0.614690 -0.627237
O8    O     O_R   0.623220 0.500000 0.385350 -0.594645
Zn1   Zn    Zn3+2 0.500010 0.500020 0.653130 0.936883
Zn2   Zn    Zn3+2 0.499990 0.499980 0.346870 0.950855

loop_
_geom_bond_atom_site_label_1
_geom_bond_atom_site_label_2
_ccdc_geom_bond_type
C4    O3    A    
C10   H12   S    
C13   H14   S    
C4    C26   S    
O2    Zn2   S    
C26   C32   T    
C6    C7    A    
C17   H17   S    
C22   O8    A    
C1    C8    S    
C9    C10   A    
C31   I1    S    
C21   N2    A    
O5    Zn1   S    
C34   H8    S    
C2    H9    S    
O6    Zn2   S    
C10   C11   A    
C2    C34   A    
O7    Zn1   S    
C17   C18   A    
C1    O1    A    
C7    C8    A    
C29   C31   S    
C21   H2    S    
C13   C14   A    
C27   C33   T    
C22   O7    A    
C19   N1    A    
C30   C31   S    
C5    H11   S    
C25   H1    S    
C23   H5    S    
C23   C29   S    
N1    Zn2   S    
C1    O2    A    
C12   C28   S    
O3    Zn1   S    
C2    C3    A    
C22   C27   S    
O4    Zn2   S    
C5    C6    A    
C7    C34   A    
C3    H10   S    
C20   H13   S    
N2    Zn1   S    
C28   H6    S    
C12   C25   S    
C14   H15   S    
C23   C30   S    
C29   C33   S    
C24   C29   S    
C24   C25   S    
C30   H4    S    
C24   H3    S    
C18   C19   A    
C16   O6    A    
C15   H16   S    
C4    O4    A    
C6    C11   A    
C15   C17   A    
C18   N2    A    
C14   C15   A    
C8    C9    A    
C13   C19   A    
O8    Zn2   S    
C12   C30   S    
C20   C21   A    
C23   C28   S    
C9    H7    S    
C25   C31   S    
C11   C16   S    
C12   C32   S    
C24   C28   S    
C20   N1    A    
C3    C5    A    
C16   O5    A    
O1    Zn1   S    
