data_mof_unit_3499.cif
_audit_creation_date              2012-12-11T19:31:14-0500
_audit_creation_method            fapswitch 2.2
_symmetry_space_group_name_H-M    P1
_symmetry_Int_Tables_number       1
_space_group_crystal_system       triclinic
_cell_length_a                    8.367989
_cell_length_b                    15.203571
_cell_length_c                    17.223055
_cell_angle_alpha                 101.152848
_cell_angle_beta                  96.819464
_cell_angle_gamma                 99.618142
_cell_volume                      2093.56973227

loop_
_atom_site_label
_atom_site_type_symbol
_atom_type_description
_atom_site_fract_x
_atom_site_fract_y
_atom_site_fract_z
_atom_type_partial_charge
Ba1   Ba    Ba6+2 0.844380 0.541120 0.463220 1.440445
Ba2   Ba    Ba6+2 0.345460 0.458950 0.536790 1.482754
C1    C     C_3   0.689403 0.837259 0.207864 -0.247776
C2    C     C_3   0.348716 0.577078 0.228379 -0.032502
C3    C     C_2   0.291408 0.546449 0.139559 -0.161733
C4    C     C_3   0.148002 0.748540 0.257023 0.326645
C5    C     C_2   0.143859 0.491758 0.111396 -0.038826
C6    C     C_2   0.049749 0.450543 0.169488 -0.180809
C7    C     C_1   0.109614 0.467313 0.247466 0.024603
C8    C     C_R   0.914342 0.419481 0.847493 -0.018850
C9    C     C_R   0.831593 0.441458 0.781015 0.001093
C10   C     C_R   0.088944 0.529482 0.758056 0.031531
C11   C     C_R   0.169013 0.513756 0.829952 -0.116828
C12   C     C_3   0.597114 0.754641 0.232486 0.236959
C13   C     C_R   0.076505 0.466178 0.879060 0.038811
C14   C     C_2   0.064437 0.488108 0.027736 0.396490
C15   C     C_2   0.144699 0.467608 0.963716 -0.143768
C16   C     C_3   0.138413 0.786844 0.181691 -0.253773
C17   C     C_R   0.917743 0.506337 0.745824 0.207771
C18   C     C_R   0.861093 0.173398 0.552588 0.039880
C19   C     C_R   0.795582 0.079044 0.541990 -0.010951
C20   C     C_R   0.660222 0.888935 0.523662 -0.064688
C21   C     C_R   0.824760 0.926670 0.556166 -0.033942
C22   C     C_R   0.891073 0.018740 0.565311 -0.077258
C23   C     C_3   0.348181 0.261968 0.283688 0.149549
C24   C     C_R   0.589768 0.794429 0.517502 0.025669
C25   C     C_R   0.428357 0.761816 0.477219 -0.279095
C26   C     C_R   0.603584 0.195305 0.483225 0.024830
C27   C     C_R   0.535631 0.101548 0.474303 0.015427
C28   C     C_3   0.276061 0.742294 0.639020 0.207387
C29   C     C_R   0.631213 0.043250 0.504587 0.000093
C30   C     C_R   0.376452 0.063715 0.433536 -0.021763
C31   C     C_R   0.309333 0.972337 0.426349 -0.150703
C32   C     C_R   0.400491 0.913330 0.456773 -0.036047
C33   C     C_R   0.563913 0.948259 0.494996 0.067025
C34   C     C_3   0.259700 0.187814 0.209840 -0.313696
C35   C     C_R   0.332687 0.820284 0.448958 -0.024478
C36   C     C_R   0.763297 0.230225 0.524023 -0.202873
C37   C     C_3   0.248154 0.840201 0.652358 -0.407825
C38   C     C_3   0.811033 0.246080 0.282147 0.726875
C39   C     C_3   0.734567 0.237607 0.195065 -0.268030
C40   C     C_3   0.787614 0.831150 0.712933 0.225525
C41   C     C_3   0.669747 0.896481 0.729280 -0.296576
C42   C     C_2   0.586651 0.880514 0.799292 0.529971
C43   C     C_2   0.576192 0.901902 0.196115 0.596171
C44   C     C_2   0.434874 0.345232 0.261298 0.370042
C45   C     C_3   0.072951 0.222173 0.743406 0.729129
C46   C     C_2   0.167732 0.224693 0.147006 0.465560
C47   C     C_2   0.973942 0.134814 0.754018 0.446585
C48   C     C_3   0.188864 0.267073 0.821463 -0.180605
C49   C     C_3   0.567872 0.217754 0.694562 0.281788
C50   C     C_3   0.514513 0.122499 0.709833 -0.356942
C51   C     C_2   0.251992 0.523067 0.278573 -0.146217
H1    H     H_    0.570116 0.776721 0.294335 -0.002989
H2    H     H_    0.855223 0.829114 0.771884 0.151415
H3    H     H_    0.794442 0.872436 0.255465 0.109865
H4    H     H_    0.739503 0.967735 0.742651 0.139050
H5    H     H_    0.578170 0.888413 0.675552 0.023308
H6    H     H_    0.481256 0.729056 0.189353 -0.032487
H7    H     H_    0.254064 0.281843 0.319543 0.134316
H8    H     H_    0.171966 0.137622 0.230355 0.158316
H9    H     H_    0.347747 0.149319 0.182415 0.174893
H10   H     H_    0.736902 0.814770 0.151202 0.159234
H11   H     H_    0.203070 0.749404 0.137361 0.098646
H12   H     H_    0.299821 0.878975 0.714005 0.161011
H13   H     H_    0.990286 0.270015 0.731727 -1.059403
H14   H     H_    0.259195 0.333498 0.815972 0.135637
H15   H     H_    0.118468 0.279029 0.871994 0.055001
H16   H     H_    0.277089 0.222992 0.835214 0.150658
H17   H     H_    0.700581 0.228389 0.689899 0.002971
H18   H     H_    0.495851 0.221151 0.637082 0.075969
H19   H     H_    0.555533 0.071101 0.665567 0.052761
H20   H     H_    0.379098 0.104625 0.704168 0.184680
H21   H     H_    0.095609 0.674203 0.240712 0.067386
H22   H     H_    0.568379 0.119420 0.771094 0.168887
H23   H     H_    0.303491 0.876157 0.608981 0.075442
H24   H     H_    0.267622 0.453615 0.974340 0.096321
H25   H     H_    0.928502 0.409004 0.147215 0.112649
H26   H     H_    0.848327 0.373795 0.879009 0.127654
H27   H     H_    0.357917 0.580922 0.099972 0.106001
H28   H     H_    0.297576 0.543243 0.850133 0.147247
H29   H     H_    0.288809 0.543405 0.343010 0.092582
H30   H     H_    0.908858 0.885900 0.572480 0.112650
H31   H     H_    0.279649 0.760031 0.283083 -0.127428
H32   H     H_    0.019347 0.041361 0.590434 0.114709
H33   H     H_    0.184860 0.949252 0.395658 0.144541
H34   H     H_    0.115839 0.839400 0.643298 0.131942
H35   H     H_    0.300133 0.103857 0.406683 0.145236
H36   H     H_    0.373158 0.690802 0.471588 0.061758
H37   H     H_    0.815801 0.301550 0.529044 0.071076
H38   H     H_    0.008659 0.779457 0.154578 0.177954
H39   H     H_    0.196644 0.860469 0.196682 0.097762
H40   H     H_    0.403337 0.741359 0.629687 0.037789
H41   H     H_    0.192175 0.703695 0.583763 0.077854
H42   H     H_    0.927802 0.025565 0.244866 0.346064
H43   H     H_    0.518503 0.813156 0.798944 0.090476
H44   H     H_    0.509807 0.926031 0.243776 0.014579
H45   H     H_    0.741136 0.280571 0.324788 0.018342
H46   H     H_    0.454522 0.345249 0.200176 0.032674
H47   H     H_    0.083249 0.268971 0.163215 0.004901
H48   H     H_    0.847952 0.131810 0.763213 -0.009640
H49   H     H_    0.858917 0.568580 0.144811 0.349952
H50   H     H_    0.965050 0.699329 0.683718 0.341769
H51   H     H_    0.721271 0.305242 0.183289 0.053568
H52   H     H_    0.611944 0.193031 0.182112 0.120490
H53   H     H_    0.810576 0.206748 0.152989 0.143790
H54   H     H_    0.884479 0.858263 0.682352 -0.003237
O1    O     O_2   0.823660 0.438400 0.305670 -0.448866
O2    O     O_2   0.182741 0.179876 0.532880 -0.464012
O3    O     O_3   0.167934 0.202467 0.682458 -0.598936
O4    O     O_3   0.097530 0.445010 0.403900 -0.446223
O5    O     O_3   0.591420 0.612980 0.544250 -0.380163
O6    O     O_2   0.325830 0.273320 0.453470 -0.436373
O7    O     O_3   0.464545 0.224632 0.325865 -0.612412
O8    O     O_2   0.498696 0.451738 0.784695 -0.413754
O9    O     O_3   0.538204 0.283265 0.757947 -0.588699
O10   O     O_3   0.626680 0.608380 0.360110 -0.418435
O11   O     O_2   0.642181 0.509244 0.217290 -0.432341
O12   O     O_3   0.705136 0.741300 0.675179 -0.543486
O13   O     O_3   0.973454 0.292650 0.296355 -0.673149
O14   O     O_3   0.691827 0.686396 0.229825 -0.531997
O15   O     O_2   0.863890 0.726710 0.546580 -0.496521
O16   O     O_3   0.059540 0.657940 0.401520 -0.463459
O17   O     O_2   0.000595 0.819972 0.455731 -0.473031
O18   O     O_2   0.932944 0.141799 0.374698 -0.322793
O19   O     O_2   0.646091 0.090244 0.310738 -0.326208
O20   O     O_3   0.872194 0.069478 0.221923 -0.519355
O21   O     O_2   0.595988 0.942852 0.857188 -0.511182
O22   O     O_2   0.555732 0.926412 0.132843 -0.490663
O23   O     O_3   0.056670 0.792397 0.310119 -0.572499
O24   O     O_2   0.487809 0.413818 0.313392 -0.524927
O25   O     O_2   0.190140 0.206394 0.077444 -0.515810
O26   O     O_2   0.036745 0.068175 0.756242 -0.594738
O27   O     O_2   0.867243 0.581045 0.952199 -0.236323
O28   O     O_2   0.733924 0.453595 0.004515 -0.299819
O29   O     O_3   0.871903 0.605608 0.104055 -0.491644
O30   O     O_2   0.771141 0.546712 0.625663 -0.278637
O31   O     O_2   0.671384 0.596920 0.753179 -0.224249
O32   O     O_3   0.948601 0.685092 0.736031 -0.541623
O33   O     O_2   0.366060 0.561630 0.694380 -0.392593
O34   O     O_3   0.092190 0.555060 0.596110 -0.471245
O35   O     O_3   0.563040 0.391700 0.639900 -0.440526
O36   O     O_3   0.251459 0.707841 0.707604 -0.590883
O37   O     O_3   0.598290 0.387090 0.455760 -0.384511
O38   O     O_3   0.130180 0.342130 0.598490 -0.436877
P1    P     P_3+3 0.993930 0.412000 0.316950 0.961113
P2    P     P_3+3 0.694120 0.714590 0.569800 1.071927
P3    P     P_3+3 0.115102 0.773273 0.405377 0.969279
P4    P     P_3+3 0.195780 0.588080 0.683070 1.135653
P5    P     P_3+3 0.080441 0.224323 0.592325 1.064230
P6    P     P_3+3 0.576188 0.593265 0.256798 1.047551
P7    P     P_3+3 0.500660 0.270481 0.429741 1.022313
P8    P     P_3+3 0.609584 0.392464 0.742141 1.118534
S1    S     S_3+6 0.813819 0.134337 0.300111 -0.132290
S2    S     S_3+6 0.878845 0.531186 0.019349 -0.074651
S3    S     S_3+6 0.818027 0.584386 0.713441 -0.033346

loop_
_geom_bond_atom_site_label_1
_geom_bond_atom_site_label_2
_ccdc_geom_bond_type
C44   H46   S    
C43   O22   D    
C2    C51   S    
C32   C35   A    
Ba2   O37   S    
C37   H34   S    
C4    O23   S    
C50   H22   S    
O34   P4    S    
C5    C6    S    
C45   C47   S    
Ba2   O38   S    
O13   P1    S    
C20   C33   A    
C19   C29   A    
C9    C17   A    
C24   C25   A    
C21   H30   S    
C50   H19   S    
C16   H38   S    
C26   C27   A    
C48   H16   S    
Ba1   Ba2   S    
C27   C30   A    
C8    C13   A    
Ba1   O5    S    
C38   H45   S    
Ba2   O6    S    
C40   O12   S    
O12   P2    S    
C30   H35   S    
C11   H28   S    
C7    P1    S    
O28   S2    D    
C32   C33   A    
Ba1   O15   S    
C41   H5    S    
C14   C15   D    
C21   C22   A    
C25   H36   S    
C23   H7    S    
O7    P7    S    
C22   H32   S    
C45   H13   S    
O38   P5    S    
Ba2   P4    S    
C35   P3    S    
C12   O14   S    
O8    P8    D    
C6    H25   S    
C17   S3    S    
C37   H12   S    
O6    P7    D    
C38   S1    S    
Ba1   P1    S    
O11   P6    D    
C49   H18   S    
C34   H9    S    
O20   S1    S    
C4    H21   S    
C45   C48   S    
O1    P1    D    
C4    C16   S    
Ba2   O4    S    
C4    H31   S    
C39   H53   S    
O23   P3    S    
C49   C50   S    
C46   H47   S    
C50   H20   S    
O4    P1    S    
C44   O24   D    
C3    C5    D    
O29   S2    S    
C41   H4    S    
C6    C7    D    
C23   C34   S    
O15   P2    D    
C1    C43   S    
C28   O36   S    
O14   P6    S    
O30   S3    D    
C51   H29   S    
C31   H33   S    
Ba1   O16   S    
C42   H43   S    
H50   O32   S    
C40   H2    S    
C18   C36   A    
C1    H3    S    
O27   S2    D    
C26   C36   A    
Ba2   O5    S    
C14   S2    S    
C15   H24   S    
C31   C32   A    
O10   P6    S    
C49   H17   S    
Ba1   O10   S    
C37   H23   S    
O16   P3    S    
C3    H27   S    
O9    P8    S    
C1    C12   S    
C39   H52   S    
O19   S1    D    
C5    C14   S    
C12   H1    S    
C26   P7    S    
C11   C13   A    
C41   C42   S    
Ba2   O35   S    
C29   C33   A    
Ba1   P2    S    
C7    C51   D    
C40   C41   S    
C34   H8    S    
O18   S1    D    
C40   H54   S    
O31   S3    D    
C13   C15   S    
C2    P6    S    
C47   O26   D    
C42   O21   D    
O17   P3    D    
C38   O13   S    
C10   P4    S    
C2    C3    S    
O3    P5    S    
C8    H26   S    
C39   H51   S    
C1    H10   S    
C28   H40   S    
C45   O3    S    
C36   H37   S    
C48   H14   S    
C49   O9    S    
O5    P2    S    
Ba2   O33   S    
C30   C31   A    
O2    P5    D    
C16   H39   S    
C27   C29   A    
Ba1   O37   S    
C43   H44   S    
C23   O7    S    
Ba1   O4    S    
C47   H48   S    
C16   H11   S    
O32   S3    S    
C25   C35   A    
O33   P4    D    
C10   C17   A    
C18   P5    S    
C28   C37   S    
C34   C46   S    
O35   P8    S    
C24   P2    S    
H49   O29   S    
Ba1   O34   S    
C8    C9    A    
C9    P8    S    
Ba1   O1    S    
C10   C11   A    
H42   O20   S    
O36   P4    S    
C18   C19   A    
C28   H41   S    
C20   C24   A    
C19   C22   A    
Ba2   O34   S    
C20   C21   A    
C46   O25   D    
C38   C39   S    
C12   H6    S    
C48   H15   S    
C23   C44   S    
O37   P7    S    
