data_mof_unit_357.cif
_audit_creation_date              2013-03-05T15:45:11-0500
_audit_creation_method            fapswitch 2.2
_symmetry_space_group_name_H-M    P1
_symmetry_Int_Tables_number       1
_space_group_crystal_system       triclinic
_cell_length_a                    10.805051
_cell_length_b                    10.912769
_cell_length_c                    9.915748
_cell_angle_alpha                 110.561065
_cell_angle_beta                  100.353583
_cell_angle_gamma                 91.531334
_cell_volume                      1071.75592778

loop_
_atom_site_label
_atom_site_type_symbol
_atom_site_description
_atom_site_fract_x
_atom_site_fract_y
_atom_site_fract_z
_atom_type_partial_charge
O1    O     O_R   0.511700 0.332330 0.577400 -0.613302
O2    O     O_R   0.474680 0.295500 0.332650 -0.507171
C1    C     C_R   0.486876 0.253196 0.441051 0.790971
O3    O     O_R   0.338160 0.518420 0.622400 -0.608009
O4    O     O_R   0.301140 0.481590 0.377650 -0.509695
C2    C     C_R   0.261655 0.502131 0.499003 0.824302
Cu1   Cu    Cu3+1 0.521920 0.521810 0.644910 1.062381
Cu2   Cu    Cu3+1 0.478080 0.478190 0.355090 1.162481
O5    O     O_R   0.525320 0.704500 0.667350 -0.553263
O6    O     O_R   0.488300 0.667670 0.422600 -0.516692
O7    O     O_R   0.698860 0.518410 0.622350 -0.556043
O8    O     O_R   0.661840 0.481580 0.377600 -0.529652
C3    C     C_R   0.504167 0.746086 0.558437 0.876162
C4    C     C_R   0.736406 0.485201 0.499483 0.868888
C5    C     C_R   0.157142 0.663905 0.750104 -0.095016
H1    H     H_    0.242981 0.712021 0.742221 0.173464
C6    C     C_R   0.122717 0.701980 0.886895 -0.135849
H2    H     H_    0.182590 0.775581 0.981849 0.218877
C7    C     C_R   0.018121 0.635577 0.903553 -0.089438
H3    H     H_    0.001437 0.652214 0.012797 0.215628
C8    C     C_R   0.939294 0.542725 0.780327 0.334735
C9    C     C_R   0.961155 0.523493 0.637438 -0.029934
C10   C     C_R   0.082052 0.563878 0.626730 0.014272
C11   C     C_R   0.125546 0.497824 0.495990 -0.228595
C12   C     C_R   0.040180 0.409790 0.371078 0.273971
C13   C     C_R   0.911730 0.396769 0.374214 0.233002
C14   C     C_R   0.870516 0.463284 0.504783 -0.216025
H4    H     H_    0.450027 0.140175 0.627300 0.158042
C15   C     C_2   0.467391 0.111924 0.409352 0.188668
C16   C     C_2   0.446717 0.070232 0.516738 -0.246083
H5    H     H_    0.570559 0.953690 0.680915 0.168477
C17   C     C_2   0.502765 0.886337 0.587638 -0.336497
C18   C     C_2   0.427838 0.931306 0.495460 0.344971
H6    H     H_    0.438086 0.395186 0.839584 0.129579
N1    N     N_2   0.445130 0.445430 0.137370 -0.119644
C19   C     C_2   0.521103 0.500258 0.079737 0.463365
N2    N     N_2   0.554930 0.554500 0.862630 -0.036212
C20   C     C_2   0.498918 0.480428 0.917200 0.015685
N3    N     N_R   0.083354 0.329939 0.242731 0.172612
O9    O     O_R   0.154174 0.236672 0.249120 -0.303586
O10   O     O_R   0.036855 0.337337 0.115593 -0.223620
Br1   Br    Br    0.474248 0.993482 0.214576 -0.303968
N4    N     N_R   0.639009 0.569988 0.169036 0.154902
O11   O     O_R   0.744204 0.527029 0.133549 -0.288328
O12   O     O_R   0.642263 0.687957 0.265080 -0.289987
Br2   Br    Br    0.638267 0.723361 0.977446 -0.208025
Br3   Br    Br    0.296830 0.340503 0.017706 -0.285820
Br4   Br    Br    0.840461 0.412707 0.817290 -0.324705
Br5   Br    Br    0.797876 0.266560 0.209940 -0.281666
Br6   Br    Br    0.285340 0.824649 0.349202 -0.408613

loop_
_geom_bond_atom_site_label_1
_geom_bond_atom_site_label_2
_geom_bond_distance
_ccdc_geom_bond_type
O4    Cu2   1.964245 S    
N4    O11   1.300736 A    
C5    C6    1.394462 A    
N2    C20   1.308148 D    
C15   Br1   1.925966 S    
C3    C17   1.455379 S    
N1    C19   1.319458 D    
Cu2   O8    1.955639 S    
C10   C11   1.414841 A    
C8    Br4   1.926874 S    
C2    C11   1.464751 S    
C17   C18   1.342375 D    
C7    H3    1.082892 S    
C19   C20   1.521577 S    
O2    C1    1.298740 A    
Cu1   N2    2.022524 S    
N1    Br3   1.884375 S    
Cu1   Cu2   2.692094 S    
N3    O10   1.301621 A    
O1    Cu1   1.929991 S    
C8    C9    1.421754 A    
C12   N3    1.432746 S    
Cu1   O7    1.964245 S    
N4    O12   1.299956 A    
C13   C14   1.402078 A    
C15   C16   1.345762 D    
O3    Cu1   1.955639 S    
H4    C16   1.087393 S    
C12   C13   1.398408 A    
O8    C4    1.313802 A    
C6    H2    1.082689 S    
C9    C14   1.420054 A    
O4    C2    1.296298 A    
C4    C14   1.469600 S    
O7    C4    1.286700 A    
O3    C2    1.299180 A    
C5    C10   1.415734 A    
C5    H1    1.082092 S    
Cu1   O5    1.925375 S    
C11   C12   1.419162 A    
Cu2   O6    1.929991 S    
C13   Br5   1.935532 S    
N3    O9    1.301916 A    
C1    C15   1.462319 S    
O5    C3    1.298291 A    
C9    C10   1.401384 A    
C6    C7    1.391789 A    
C19   N4    1.433718 S    
C18   Br6   1.935090 S    
C16   C18   1.458741 S    
C7    C8    1.398320 A    
N2    Br2   1.889946 S    
H6    C20   1.082727 S    
O6    C3    1.294386 A    
O2    Cu2   1.925375 S    
H5    C17   1.087413 S    
O1    C1    1.297224 A    
Cu2   N1    2.022383 S    
