data_mof_unit_3950.cif
_audit_creation_date              2012-12-10T17:04:36-0500
_audit_creation_method            fapswitch 2.2
_symmetry_space_group_name_H-M    P1
_symmetry_Int_Tables_number       1
_space_group_crystal_system       triclinic
_cell_length_a                    14.946289
_cell_length_b                    10.741443
_cell_length_c                    10.059777
_cell_angle_alpha                 89.797538
_cell_angle_beta                  89.669533
_cell_angle_gamma                 90.124511
_cell_volume                      1615.00316274

loop_
_atom_site_label
_atom_site_type_symbol
_atom_type_description
_atom_site_fract_x
_atom_site_fract_y
_atom_site_fract_z
_atom_type_partial_charge
C1    C     C_R   0.497593 0.262796 0.500063 0.935173
C2    C     C_R   0.185492 0.424541 0.427866 -0.235348
C3    C     C_R   0.231893 0.512807 0.501086 -0.126272
C4    C     C_R   0.327262 0.503737 0.500414 0.882138
C5    C     C_R   0.188052 0.610545 0.567922 -0.066021
C6    C     C_2   0.492700 0.933207 0.388342 -0.142663
C7    C     C_2   0.509043 0.868829 0.499214 -0.294355
C8    C     C_2   0.497921 0.067167 0.387825 -0.164886
C9    C     C_2   0.488176 0.131236 0.500443 -0.303810
C10   C     C_2   0.540077 0.583445 0.926453 -0.188428
C11   C     C_2   0.527363 0.593631 0.074654 -0.156565
C12   C     C_R   0.905637 0.608527 0.571393 0.073054
C13   C     C_R   0.501643 0.737187 0.499742 0.926637
C14   C     C_R   0.672811 0.502583 0.499673 0.886054
C15   C     C_R   0.811910 0.604784 0.572373 -0.057907
C16   C     C_R   0.768272 0.511861 0.498841 -0.103510
C17   C     C_R   0.815244 0.426219 0.422476 -0.268115
C18   C     C_R   0.907570 0.428399 0.421144 0.122424
C19   C     C_R   0.953359 0.519375 0.495942 0.053089
C20   C     C_1   0.760242 0.697543 0.644192 0.161302
C21   C     C_2   0.418724 0.447531 0.896922 0.572416
C22   C     C_2   0.241111 0.713148 0.628587 0.346239
C23   C     C_R   0.954551 0.339538 0.347553 -0.200743
C24   C     C_R   0.047230 0.338917 0.349234 -0.192650
C25   C     C_R   0.093386 0.427943 0.423430 0.117046
C26   C     C_R   0.046956 0.520066 0.495884 0.038272
C27   C     C_R   0.093951 0.611609 0.569016 0.100732
C28   C     C_R   0.045554 0.698858 0.644253 -0.158815
C29   C     C_R   0.952872 0.697661 0.644993 -0.225982
H1    H     H_    0.530274 0.911514 0.591302 0.155217
H2    H     H_    0.221684 0.352312 0.374883 0.157050
H3    H     H_    0.078372 0.767020 0.706057 0.192712
H4    H     H_    0.918726 0.766361 0.705116 0.166046
H5    H     H_    0.476611 0.887485 0.295251 0.172202
H6    H     H_    0.378086 0.491350 0.973387 0.012379
H7    H     H_    0.298453 0.692985 0.690360 0.098467
H8    H     H_    0.509491 0.113007 0.292780 0.177260
H9    H     H_    0.470796 0.088302 0.594821 0.170756
H10   H     H_    0.585718 0.648955 0.879455 0.182995
H11   H     H_    0.544488 0.680927 0.122073 0.173853
H12   H     H_    0.500610 0.414599 0.104902 0.173945
H13   H     H_    0.779450 0.355949 0.366350 0.154027
H14   H     H_    0.919584 0.269655 0.290129 0.152448
H15   H     H_    0.082837 0.268445 0.293205 0.157263
N1    N     N_2   0.500970 0.501330 0.852150 -0.139071
N2    N     N_2   0.500990 0.501360 0.147810 -0.202131
N3    N     N_1   0.719050 0.771477 0.701178 -0.222350
O1    O     O_R   0.499990 0.319060 0.613040 -0.568025
O2    O     O_2   0.222955 0.821844 0.605504 -0.560939
O3    O     O_R   0.500010 0.319100 0.386900 -0.628316
O4    O     O_R   0.367830 0.499950 0.613080 -0.614870
O5    O     O_R   0.367860 0.499990 0.386940 -0.606461
O6    O     O_R   0.499990 0.680900 0.613100 -0.632615
O7    O     O_R   0.500010 0.680940 0.386960 -0.622046
O8    O     O_R   0.632140 0.500010 0.613060 -0.610382
O9    O     O_R   0.632170 0.500050 0.386920 -0.612218
O10   O     O_2   0.391274 0.352042 0.846034 -0.557255
Zn1   Zn    Zn3+2 0.499980 0.499970 0.650990 0.998218
Zn2   Zn    Zn3+2 0.500020 0.500030 0.349010 0.953338

loop_
_geom_bond_atom_site_label_1
_geom_bond_atom_site_label_2
_ccdc_geom_bond_type
C8    C9    D    
C14   O9    A    
H12   N2    S    
O9    Zn2   S    
C1    O1    A    
O1    Zn1   S    
C6    C7    D    
C21   H6    S    
O5    Zn2   S    
C12   C29   A    
C22   H7    S    
C1    O3    A    
C13   O7    A    
C13   O6    A    
C12   C15   A    
C28   H3    S    
O6    Zn1   S    
C6    H5    S    
C10   N1    D    
C14   O8    A    
C1    C9    S    
C7    H1    S    
C21   O10   D    
C26   C27   A    
C11   H11   S    
C4    O5    A    
C22   O2    D    
O3    Zn2   S    
C12   C19   A    
C28   C29   A    
C2    C3    A    
C2    C25   A    
C21   N1    S    
O7    Zn2   S    
C15   C20   S    
C24   H15   S    
C14   C16   S    
N1    Zn1   S    
C20   N3    T    
C16   C17   A    
C10   C11   S    
C23   C24   A    
C18   C23   A    
C29   H4    S    
C7    C13   S    
C23   H14   S    
C24   C25   A    
N2    Zn2   S    
C17   C18   A    
C18   C19   A    
C8    H8    S    
O8    Zn1   S    
C27   C28   A    
O4    Zn1   S    
C19   C26   A    
C17   H13   S    
C9    H9    S    
C11   N2    D    
C6    C8    S    
C4    O4    A    
C25   C26   A    
C5    C27   A    
C10   H10   S    
C15   C16   A    
C5    C22   S    
C3    C4    S    
C2    H2    S    
C3    C5    A    
