data_mof_unit_2544.cif
_audit_creation_date              2012-12-11T15:12:42-0500
_audit_creation_method            fapswitch 2.2
_symmetry_space_group_name_H-M    P1
_symmetry_Int_Tables_number       1
_space_group_crystal_system       triclinic
_cell_length_a                    22.315533
_cell_length_b                    6.942394
_cell_length_c                    19.38873
_cell_angle_alpha                 89.993891
_cell_angle_beta                  99.205433
_cell_angle_gamma                 89.989138
_cell_volume                      2965.07926545

loop_
_atom_site_label
_atom_site_type_symbol
_atom_type_description
_atom_site_fract_x
_atom_site_fract_y
_atom_site_fract_z
_atom_type_partial_charge
O1    O     O_R   0.448420 0.506120 0.415750 -0.535627
O2    O     O_R   0.551580 0.006120 0.584250 -0.537107
O3    O     O_R   0.436490 0.174470 0.555610 -0.531827
O4    O     O_R   0.563510 0.674470 0.444390 -0.529561
C1    C     C_R   0.421023 0.344685 0.575729 0.705704
C2    C     C_R   0.578971 0.844666 0.424261 0.707020
O5    O     O_R   0.441310 0.176330 0.414520 -0.536224
O6    O     O_R   0.558690 0.676330 0.585480 -0.537357
O7    O     O_R   0.556430 0.007110 0.442150 -0.536624
O8    O     O_R   0.443570 0.507110 0.557850 -0.536825
C3    C     C_R   0.426722 0.345112 0.388410 0.688538
C4    C     C_R   0.573283 0.845058 0.611592 0.683536
O9    O     O_3   0.537770 0.339560 0.509230 -0.364914
O10   O     O_3   0.462230 0.839560 0.490770 -0.364442
V1    V     V_3+5 0.492990 0.064280 0.498290 1.457509
V2    V     V_3+5 0.507010 0.564280 0.501710 1.459583
C5    C     C_R   0.867592 0.976506 0.694385 -0.179227
C6    C     C_R   0.132233 0.472864 0.305711 -0.173091
H1    H     H_    0.784921 0.972158 0.580015 0.139779
H2    H     H_    0.214826 0.466907 0.420146 0.165228
H3    H     H_    0.885264 0.003026 0.646259 0.131324
H4    H     H_    0.114472 0.497642 0.353892 0.138569
C7    C     C_R   0.885423 0.941708 0.820501 -0.091504
C8    C     C_R   0.114572 0.441319 0.179489 -0.090299
C9    C     C_R   0.590529 0.818482 0.739726 -0.168617
C10   C     C_R   0.409591 0.320756 0.260223 -0.158713
C11   C     C_R   0.627376 0.816791 0.804696 -0.102846
C12   C     C_R   0.372791 0.319989 0.195223 -0.107378
C13   C     C_R   0.689727 0.846852 0.810484 -0.146801
C14   C     C_R   0.310396 0.349194 0.189452 -0.152345
C15   C     C_R   0.717229 0.880170 0.750688 0.074019
C16   C     C_R   0.282800 0.380636 0.249301 0.079489
C17   C     C_R   0.678837 0.883471 0.683895 0.065425
C18   C     C_R   0.321135 0.382817 0.316134 0.060570
C19   C     C_R   0.781422 0.910049 0.754953 0.076810
C20   C     C_R   0.218570 0.409698 0.245049 0.077361
C21   C     C_R   0.805241 0.944119 0.692367 0.120154
C22   C     C_R   0.194642 0.441613 0.307702 0.110736
C23   C     C_R   0.766797 0.946543 0.627848 -0.172133
C24   C     C_R   0.233031 0.442933 0.372262 -0.158725
C25   C     C_R   0.704749 0.916422 0.623557 -0.184992
C26   C     C_R   0.295126 0.413778 0.376531 -0.181676
C27   C     C_R   0.822986 0.908155 0.818901 -0.219375
C28   C     C_R   0.177068 0.408972 0.181054 -0.218587
C29   C     C_R   0.907505 0.976727 0.757718 -0.049918
C30   C     C_R   0.092367 0.474001 0.242344 -0.050290
C31   C     C_R   0.615222 0.852000 0.678973 -0.083862
C32   C     C_R   0.384797 0.352328 0.321030 -0.087172
H5    H     H_    0.808365 0.883330 0.868490 0.106618
H6    H     H_    0.191770 0.385809 0.131413 0.102273
H7    H     H_    0.542265 0.793073 0.736762 0.108223
H8    H     H_    0.457899 0.296199 0.263167 0.116223
H9    H     H_    0.715076 0.842924 0.862609 0.126789
H10   H     H_    0.285090 0.346093 0.137299 0.116052
H11   H     H_    0.607415 0.791046 0.851211 0.138811
H12   H     H_    0.392825 0.295714 0.148665 0.132060
H13   H     H_    0.677115 0.919542 0.572293 0.112699
H14   H     H_    0.322717 0.416002 0.427826 0.119364
C33   C     C_3   0.789048 0.701921 0.235834 -0.362695
C34   C     C_3   0.184023 0.283246 0.727542 -0.344402
C35   C     C_3   0.807121 0.047189 0.271732 -0.438580
C36   C     C_3   0.223842 0.611831 0.764416 -0.422503
C37   C     C_3   0.759006 0.029944 0.321398 -0.390895
C38   C     C_3   0.272063 0.594598 0.714904 -0.367172
H15   H     H_    0.834564 0.660418 0.264247 0.167884
H16   H     H_    0.141405 0.346853 0.698895 0.165630
H17   H     H_    0.809056 0.198962 0.253674 0.192749
H18   H     H_    0.241488 0.707503 0.809129 0.212817
H19   H     H_    0.852780 0.010883 0.300995 0.202793
H20   H     H_    0.182067 0.680719 0.735870 0.217080
H21   H     H_    0.781795 0.987267 0.374475 0.207491
H22   H     H_    0.253522 0.657169 0.663039 0.249273
H23   H     H_    0.737821 0.173305 0.326547 0.236194
H24   H     H_    0.312832 0.680817 0.736433 0.188333
C39   C     C_1   0.624941 0.854681 0.379042 -0.156072
C40   C     C_1   0.374987 0.354793 0.620859 -0.160364
C41   C     C_3   0.791470 0.911090 0.207867 0.028412
C42   C     C_3   0.208256 0.410771 0.791804 0.004644
C43   C     C_3   0.740746 0.682923 0.285455 1.117936
C44   C     C_3   0.232028 0.264784 0.677500 1.137495
C45   C     C_3   0.709277 0.880477 0.293142 0.025431
C46   C     C_3   0.290387 0.380968 0.706416 0.004559
C47   C     C_3   0.679255 0.948347 0.219296 -0.432236
C48   C     C_3   0.315971 0.302187 0.780253 -0.447502
C49   C     C_3   0.727219 0.966051 0.169373 0.517601
C50   C     C_3   0.268026 0.319495 0.830214 0.513733
C51   C     C_1   0.663000 0.865440 0.340701 0.078810
C52   C     C_1   0.336835 0.365716 0.659078 0.074389
C53   C     C_1   0.837682 0.927965 0.160340 0.045845
C54   C     C_1   0.162187 0.427756 0.839504 0.057585
C55   C     C_1   0.875499 0.939567 0.121728 -0.146170
C56   C     C_1   0.124446 0.439477 0.878207 -0.141029
H25   H     H_    0.727827 0.117245 0.150380 0.097583
H26   H     H_    0.286820 0.411378 0.875582 0.076042
H27   H     H_    0.642934 0.845681 0.197170 0.226568
H28   H     H_    0.329916 0.149124 0.776493 0.222224
H29   H     H_    0.778296 0.599882 0.191309 0.191748
H30   H     H_    0.172090 0.137776 0.745310 0.204492
H31   H     H_    0.657027 0.090615 0.223215 0.166217
H32   H     H_    0.357439 0.384169 0.802500 0.128225
O11   O     O_R   0.056480 0.288780 0.942210 -0.528846
O12   O     O_R   0.943520 0.788780 0.057790 -0.531337
O13   O     O_R   0.058700 0.616820 0.085490 -0.538989
O14   O     O_R   0.941300 0.116820 0.914510 -0.538674
C57   C     C_R   0.073126 0.448391 0.111776 0.701746
C58   C     C_R   0.926879 0.948454 0.888215 0.704744
O15   O     O_R   0.063520 0.618570 0.944410 -0.536766
O16   O     O_R   0.936480 0.118570 0.055590 -0.538080
O17   O     O_R   0.948420 0.787670 0.915740 -0.536922
O18   O     O_R   0.051580 0.287670 0.084260 -0.537143
C59   C     C_R   0.078877 0.449785 0.923920 0.719785
C60   C     C_R   0.921119 0.949803 0.076078 0.721467
O19   O     O_3   0.962260 0.453430 0.990800 -0.368253
O20   O     O_3   0.037740 0.953430 0.009200 -0.366641
V3    V     V_3+5 0.007000 0.728750 0.001710 1.473072
V4    V     V_3+5 0.993000 0.228750 0.998290 1.472556
C61   C     C_1   0.971182 0.013448 0.757201 0.293906
N1    N     N_1   0.022186 0.042932 0.756882 -0.350442
C62   C     C_1   0.028606 0.509126 0.242897 0.293900
N2    N     N_1   0.977532 0.537313 0.243240 -0.359373
F1    F     F_    0.710897 0.848611 0.111561 -0.667891
F2    F     F_    0.256575 0.138955 0.855854 -0.684318
F3    F     F_    0.697755 0.546818 0.258640 -0.704271
F4    F     F_    0.246507 0.072138 0.670750 -0.695432
F5    F     F_    0.768794 0.618908 0.350429 -0.698132
F6    F     F_    0.207370 0.333123 0.611846 -0.682237

loop_
_geom_bond_atom_site_label_1
_geom_bond_atom_site_label_2
_ccdc_geom_bond_type
C22   C24   A    
C57   O18   A    
C7    C29   A    
C11   C13   A    
O12   C60   A    
O1    C3    A    
O2    C4    A    
C33   C41   S    
C2    O7    A    
O14   C58   A    
O20   V3    S    
C12   H12   S    
C2    C39   S    
C23   C25   A    
C42   C54   S    
O5    C3    A    
C14   H10   S    
C41   C53   S    
C13   H9    S    
C37   C45   S    
C16   C20   A    
C29   C61   S    
C19   C21   A    
C48   C50   S    
C34   H30   S    
H2    C24   S    
C11   H11   S    
C35   H19   S    
C34   C42   S    
C7    C27   A    
C36   H20   S    
C48   H28   S    
C35   C37   S    
C36   C38   S    
O12   V3    S    
C50   H26   S    
O14   V4    S    
C49   H25   S    
C35   C41   S    
C18   C26   A    
C50   F2    S    
C15   C17   A    
C49   F1    S    
C53   C55   T    
C19   C27   A    
C9    C31   A    
C46   C52   S    
C10   C32   A    
O19   V4    S    
C42   C50   S    
C24   C26   A    
C43   F5    S    
C41   C49   S    
O6    V2    S    
C47   H31   S    
C26   H14   S    
C3    C32   S    
C4    C31   S    
C6    C30   A    
C45   C47   S    
C48   H32   S    
C44   C46   S    
C33   C43   S    
C43   C45   S    
C27   H5    S    
O5    V1    S    
C37   H23   S    
C7    C58   S    
C43   F3    S    
C5    H3    S    
O16   C60   A    
C16   C18   A    
C55   C60   S    
O4    V2    S    
O13   V3    S    
C9    H7    S    
C10   H8    S    
C35   H17   S    
C54   C56   T    
O6    C4    A    
C47   H27   S    
O13   C57   A    
O1    V2    S    
C5    C21   A    
O2    V1    S    
C38   C46   S    
C45   C51   S    
H1    C23   S    
O4    C2    A    
C47   C49   S    
C37   H21   S    
C46   C48   S    
O9    V1    S    
C33   H29   S    
C15   C19   A    
C20   C28   A    
C9    C11   A    
O18   V4    S    
O3    V1    S    
C44   F4    S    
C28   H6    S    
C40   C52   T    
C34   C44   S    
C6    H4    S    
O15   C59   A    
C36   C42   S    
C5    C29   A    
O3    C1    A    
O20   V4    S    
C62   N2    T    
C56   C59   S    
O11   C59   A    
C10   C12   A    
C36   H18   S    
C17   C25   A    
O16   V4    S    
C1    C40   S    
C20   C22   A    
C6    C22   A    
C25   H13   S    
C1    O8    A    
C13   C15   A    
O8    V2    S    
C61   N1    T    
C33   H15   S    
C14   C16   A    
C44   F6    S    
C8    C28   A    
C12   C14   A    
C17   C31   A    
C30   C62   S    
O15   V3    S    
O10   V2    S    
C38   H22   S    
O7    V1    S    
O17   V3    S    
C34   H16   S    
C18   C32   A    
C21   C23   A    
O9    V2    S    
O11   V4    S    
C38   H24   S    
O10   V1    S    
C8    C57   S    
C39   C51   T    
C8    C30   A    
O19   V3    S    
C58   O17   A    
