data_mof_unit_752.cif
_audit_creation_date              2012-12-11T15:34:44-0500
_audit_creation_method            fapswitch 2.2
_symmetry_space_group_name_H-M    P1
_symmetry_Int_Tables_number       1
_space_group_crystal_system       triclinic
_cell_length_a                    17.137061
_cell_length_b                    17.137061
_cell_length_c                    17.245447
_cell_angle_alpha                 90.000012
_cell_angle_beta                  89.999979
_cell_angle_gamma                 90.0
_cell_volume                      5064.62321028

loop_
_atom_site_label
_atom_site_type_symbol
_atom_type_description
_atom_site_fract_x
_atom_site_fract_y
_atom_site_fract_z
_atom_type_partial_charge
C1    C     C_R   0.801853 0.106660 0.398060 -0.138560
C2    C     C_R   0.170202 0.077925 0.355487 -0.126217
C3    C     C_R   0.893340 0.198147 0.601940 -0.138560
C4    C     C_R   0.106660 0.801853 0.398060 -0.138559
C5    C     C_R   0.170202 0.077925 0.644513 -0.126216
C6    C     C_R   0.829798 0.922075 0.355487 -0.126216
C7    C     C_R   0.106660 0.801853 0.601940 -0.138560
C8    C     C_R   0.893340 0.198147 0.398060 -0.138560
C9    C     C_R   0.329798 0.577925 0.855487 -0.126217
C10   C     C_R   0.670202 0.422075 0.144513 -0.126216
C11   C     C_R   0.393340 0.301853 0.898060 -0.138559
C12   C     C_R   0.198147 0.893340 0.601940 -0.138560
C13   C     C_R   0.606660 0.698147 0.101940 -0.138560
C14   C     C_R   0.670202 0.422075 0.855487 -0.126217
C15   C     C_R   0.329798 0.577925 0.144513 -0.126217
C16   C     C_R   0.606660 0.698147 0.898060 -0.138560
C17   C     C_R   0.393340 0.301853 0.101940 -0.138560
C18   C     C_R   0.301853 0.393340 0.101940 -0.138560
C19   C     C_R   0.698147 0.606660 0.898060 -0.138559
C20   C     C_R   0.422075 0.670202 0.144513 -0.126217
C21   C     C_R   0.577925 0.329798 0.855487 -0.126217
C22   C     C_R   0.698147 0.606660 0.101940 -0.138560
C23   C     C_R   0.922075 0.829798 0.355487 -0.126216
C24   C     C_R   0.301853 0.393340 0.898060 -0.138560
C25   C     C_R   0.577925 0.329798 0.144513 -0.126216
C26   C     C_R   0.422075 0.670202 0.855487 -0.126217
C27   C     C_R   0.166176 0.166177 0.762981 0.143718
C28   C     C_R   0.833824 0.833824 0.237019 0.143718
C29   C     C_R   0.757395 0.242604 0.640529 0.142634
C30   C     C_R   0.242604 0.757395 0.359470 0.142634
C31   C     C_R   0.833824 0.833824 0.762981 0.143718
C32   C     C_R   0.166176 0.166176 0.237019 0.143718
C33   C     C_R   0.242604 0.757395 0.640529 0.142634
C34   C     C_R   0.077925 0.170202 0.644513 -0.126216
C35   C     C_R   0.757395 0.242605 0.359470 0.142634
C36   C     C_R   0.742605 0.742604 0.140530 0.142634
C37   C     C_R   0.257395 0.257396 0.859470 0.142634
C38   C     C_R   0.333824 0.666176 0.262981 0.143718
C39   C     C_R   0.666176 0.333824 0.737019 0.143718
C40   C     C_R   0.257395 0.257395 0.140529 0.142634
C41   C     C_R   0.742605 0.742605 0.859471 0.142634
C42   C     C_R   0.666176 0.333824 0.262981 0.143718
C43   C     C_R   0.333824 0.666176 0.737019 0.143718
C44   C     C_R   0.815350 0.184650 0.382922 0.049681
C45   C     C_R   0.198147 0.893340 0.398060 -0.138560
C46   C     C_R   0.184650 0.815350 0.617078 0.049681
C47   C     C_R   0.863179 0.863179 0.311096 0.040607
C48   C     C_R   0.136821 0.136821 0.688905 0.040607
C49   C     C_R   0.184650 0.815350 0.382922 0.049681
C50   C     C_R   0.815350 0.184650 0.617078 0.049681
C51   C     C_R   0.136821 0.136821 0.311095 0.040607
C52   C     C_R   0.863179 0.863179 0.688905 0.040607
C53   C     C_R   0.363179 0.636821 0.811095 0.040608
C54   C     C_R   0.636821 0.363179 0.188905 0.040607
C55   C     C_R   0.315350 0.315350 0.882922 0.049681
C56   C     C_R   0.801853 0.106660 0.601940 -0.138560
C57   C     C_R   0.684650 0.684650 0.117078 0.049681
C58   C     C_R   0.636821 0.363179 0.811095 0.040608
C59   C     C_R   0.363179 0.636821 0.188905 0.040608
C60   C     C_R   0.684650 0.684650 0.882922 0.049681
C61   C     C_R   0.315350 0.315350 0.117078 0.049681
C62   C     C_R   0.180982 0.280887 0.842144 -0.171325
C63   C     C_R   0.819018 0.719114 0.157855 -0.171325
C64   C     C_R   0.635198 0.264943 0.705803 -0.167630
C65   C     C_R   0.364802 0.735057 0.294197 -0.167630
C66   C     C_R   0.819018 0.719114 0.842145 -0.171325
C67   C     C_R   0.077925 0.170202 0.355487 -0.126216
C68   C     C_R   0.180982 0.280886 0.157855 -0.171324
C69   C     C_R   0.364802 0.735057 0.705803 -0.167630
C70   C     C_R   0.635199 0.264943 0.294197 -0.167630
C71   C     C_R   0.264943 0.635198 0.294197 -0.167630
C72   C     C_R   0.735057 0.364802 0.705803 -0.167630
C73   C     C_R   0.719114 0.819018 0.157855 -0.171324
C74   C     C_R   0.280885 0.180982 0.842145 -0.171324
C75   C     C_R   0.735057 0.364801 0.294196 -0.167630
C76   C     C_R   0.264943 0.635198 0.705803 -0.167630
C77   C     C_R   0.280886 0.180982 0.157855 -0.171324
C78   C     C_R   0.922075 0.829798 0.644513 -0.126216
C79   C     C_R   0.719114 0.819018 0.842145 -0.171325
C80   C     C_R   0.764943 0.864802 0.205803 -0.167631
C81   C     C_R   0.235056 0.135198 0.794197 -0.167631
C82   C     C_R   0.219114 0.680982 0.342145 -0.171325
C83   C     C_R   0.780886 0.319018 0.657855 -0.171324
C84   C     C_R   0.235057 0.135198 0.205803 -0.167630
C85   C     C_R   0.764943 0.864802 0.794197 -0.167630
C86   C     C_R   0.780886 0.319018 0.342145 -0.171325
C87   C     C_R   0.219114 0.680982 0.657855 -0.171324
C88   C     C_R   0.680982 0.219114 0.657855 -0.171324
C89   C     C_R   0.829798 0.922075 0.644513 -0.126217
C90   C     C_R   0.319018 0.780886 0.342145 -0.171324
C91   C     C_R   0.135199 0.235058 0.794196 -0.167630
C92   C     C_R   0.864801 0.764942 0.205803 -0.167630
C93   C     C_R   0.319018 0.780886 0.657855 -0.171324
C94   C     C_R   0.680982 0.219114 0.342145 -0.171324
C95   C     C_R   0.864802 0.764943 0.794196 -0.167630
C96   C     C_R   0.135198 0.235057 0.205803 -0.167630
H1    H     H_    0.745852 0.078211 0.403083 0.082523
H2    H     H_    0.217937 0.040029 0.340043 0.093163
H3    H     H_    0.921789 0.254148 0.596917 0.082523
H4    H     H_    0.078211 0.745852 0.403083 0.082522
H5    H     H_    0.217937 0.040029 0.659958 0.093163
H6    H     H_    0.782062 0.959971 0.340043 0.093162
H7    H     H_    0.078211 0.745852 0.596917 0.082523
H8    H     H_    0.921789 0.254148 0.403083 0.082523
H9    H     H_    0.282063 0.540029 0.840043 0.093163
H10   H     H_    0.717937 0.459971 0.159957 0.093162
H11   H     H_    0.421789 0.245852 0.903083 0.082522
H12   H     H_    0.254148 0.921789 0.596917 0.082523
H13   H     H_    0.578211 0.754148 0.096917 0.082523
H14   H     H_    0.717937 0.459971 0.840043 0.093163
H15   H     H_    0.282063 0.540029 0.159957 0.093163
H16   H     H_    0.578211 0.754148 0.903083 0.082523
H17   H     H_    0.421789 0.245852 0.096917 0.082523
H18   H     H_    0.245852 0.421789 0.096917 0.082523
H19   H     H_    0.754148 0.578211 0.903083 0.082523
H20   H     H_    0.459971 0.717937 0.159957 0.093163
H21   H     H_    0.540029 0.282063 0.840043 0.093163
H22   H     H_    0.754148 0.578211 0.096917 0.082523
H23   H     H_    0.959971 0.782062 0.340043 0.093162
H24   H     H_    0.245852 0.421789 0.903083 0.082523
H25   H     H_    0.540029 0.282063 0.159958 0.093163
H26   H     H_    0.459971 0.717937 0.840043 0.093163
H27   H     H_    0.158885 0.337566 0.858574 0.104857
H28   H     H_    0.841115 0.662435 0.141424 0.104857
H29   H     H_    0.579587 0.241857 0.724412 0.107374
H30   H     H_    0.420413 0.758143 0.275588 0.107374
H31   H     H_    0.841115 0.662435 0.858576 0.104857
H32   H     H_    0.158885 0.337565 0.141424 0.104857
H33   H     H_    0.420413 0.758143 0.724412 0.107374
H34   H     H_    0.040029 0.217937 0.659957 0.093163
H35   H     H_    0.579587 0.241857 0.275588 0.107374
H36   H     H_    0.241857 0.579587 0.275588 0.107374
H37   H     H_    0.758143 0.420413 0.724412 0.107374
H38   H     H_    0.662435 0.841116 0.141424 0.104857
H39   H     H_    0.337563 0.158884 0.858578 0.104857
H40   H     H_    0.758143 0.420412 0.275587 0.107374
H41   H     H_    0.241857 0.579587 0.724412 0.107374
H42   H     H_    0.337565 0.158884 0.141424 0.104856
H43   H     H_    0.662435 0.841116 0.858577 0.104857
H44   H     H_    0.741857 0.920413 0.224412 0.107374
H45   H     H_    0.254148 0.921789 0.403083 0.082523
H46   H     H_    0.258141 0.079587 0.775589 0.107374
H47   H     H_    0.162435 0.658884 0.358576 0.104857
H48   H     H_    0.837565 0.341116 0.641424 0.104856
H49   H     H_    0.258143 0.079587 0.224412 0.107374
H50   H     H_    0.741857 0.920413 0.775588 0.107374
H51   H     H_    0.837565 0.341115 0.358576 0.104857
H52   H     H_    0.162435 0.658884 0.641424 0.104856
H53   H     H_    0.658884 0.162435 0.641424 0.104856
H54   H     H_    0.341116 0.837564 0.358576 0.104857
H55   H     H_    0.079588 0.258144 0.775586 0.107374
H56   H     H_    0.745852 0.078211 0.596917 0.082523
H57   H     H_    0.920412 0.741857 0.224412 0.107374
H58   H     H_    0.341115 0.837565 0.641424 0.104857
H59   H     H_    0.658885 0.162436 0.358576 0.104856
H60   H     H_    0.920412 0.741857 0.775588 0.107374
H61   H     H_    0.079587 0.258143 0.224412 0.107374
H62   H     H_    0.040029 0.217937 0.340043 0.093163
H63   H     H_    0.959971 0.782063 0.659957 0.093163
H64   H     H_    0.782063 0.959971 0.659957 0.093163
N1    N     N_R   0.868470 0.074730 0.422590 -0.035836
N2    N     N_R   0.131530 0.074730 0.422590 -0.041661
N3    N     N_R   0.925270 0.131530 0.577410 -0.035836
N4    N     N_R   0.074730 0.868470 0.422590 -0.035837
N5    N     N_R   0.131530 0.074730 0.577410 -0.041661
N6    N     N_R   0.868470 0.925270 0.422590 -0.041661
N7    N     N_R   0.074730 0.868470 0.577410 -0.035836
N8    N     N_R   0.925270 0.131530 0.422590 -0.035836
N9    N     N_R   0.368470 0.574730 0.922590 -0.041661
N10   N     N_R   0.631530 0.425270 0.077410 -0.041661
N11   N     N_R   0.425270 0.368470 0.922590 -0.035837
N12   N     N_R   0.131530 0.925270 0.577410 -0.035836
N13   N     N_R   0.574730 0.631530 0.077410 -0.035836
N14   N     N_R   0.631530 0.425270 0.922590 -0.041661
N15   N     N_R   0.368470 0.574730 0.077410 -0.041661
N16   N     N_R   0.574730 0.631530 0.922590 -0.035836
N17   N     N_R   0.425270 0.368470 0.077410 -0.035836
N18   N     N_R   0.368470 0.425270 0.077410 -0.035836
N19   N     N_R   0.631530 0.574730 0.922590 -0.035836
N20   N     N_R   0.425270 0.631530 0.077410 -0.041661
N21   N     N_R   0.574730 0.368470 0.922590 -0.041661
N22   N     N_R   0.631530 0.574730 0.077410 -0.035836
N23   N     N_R   0.925270 0.868470 0.422590 -0.041661
N24   N     N_R   0.368470 0.425270 0.922590 -0.035836
N25   N     N_R   0.574730 0.368470 0.077410 -0.041661
N26   N     N_R   0.425270 0.631530 0.922590 -0.041661
N27   N     N_R   0.074730 0.131530 0.577410 -0.041661
N28   N     N_R   0.131530 0.925270 0.422590 -0.035836
N29   N     N_R   0.868470 0.074730 0.577410 -0.035836
N30   N     N_R   0.074730 0.131530 0.422590 -0.041661
N31   N     N_R   0.925270 0.868470 0.577410 -0.041661
N32   N     N_R   0.868470 0.925270 0.577410 -0.041661
Ni1   Ni    Ni4+2 0.869670 0.000000 0.500000 0.209984
Ni2   Ni    Ni4+2 0.130330 0.000000 0.500000 0.209984
Ni3   Ni    Ni4+2 0.000000 0.869670 0.500000 0.209984
Ni4   Ni    Ni4+2 0.000000 0.130330 0.500000 0.209984
Ni5   Ni    Ni4+2 0.369670 0.500000 0.000000 0.209984
Ni6   Ni    Ni4+2 0.630330 0.500000 0.000000 0.209984
Ni7   Ni    Ni4+2 0.500000 0.369670 0.000000 0.209984
Ni8   Ni    Ni4+2 0.500000 0.630330 0.000000 0.209984

loop_
_geom_bond_atom_site_label_1
_geom_bond_atom_site_label_2
_ccdc_geom_bond_type
C27   C48   S    
C79   H43   S    
C37   C74   A    
C6    N6    A    
C28   C47   S    
C11   N11   A    
C31   C85   A    
N27   Ni4   S    
C24   N24   A    
C18   N18   A    
C88   H53   S    
N12   Ni2   S    
N22   Ni6   S    
N6    Ni1   S    
C79   C85   A    
C31   C52   S    
C30   C90   A    
C86   H51   S    
C18   H18   S    
C22   C57   A    
C37   C62   A    
C67   N30   A    
C17   H17   S    
C20   N20   A    
C84   H49   S    
C24   C55   A    
C21   N21   A    
C39   C64   A    
C42   C75   A    
N5    N27   A    
C93   H58   S    
C70   C94   A    
N9    N26   A    
C29   C83   A    
C69   C93   A    
C23   H23   S    
C83   H48   S    
C35   C86   A    
C28   C80   A    
C13   C57   A    
C9    H9    S    
C42   C70   A    
C66   H31   S    
C22   H22   S    
C95   H60   S    
C16   C60   A    
N15   Ni5   S    
C29   C88   A    
C13   H13   S    
C8    N8    A    
C17   C61   A    
C71   H36   S    
C56   N29   A    
C9    N9    A    
C43   C53   S    
N16   N19   A    
C94   H59   S    
C63   C92   A    
C21   H21   S    
C39   C72   A    
C4    N4    A    
C27   C91   A    
C92   H57   S    
C19   H19   S    
C56   H56   S    
C36   C63   A    
C68   H32   S    
N30   Ni4   S    
C71   C82   A    
C16   N16   A    
C96   H61   S    
C1    N1    A    
C43   C69   A    
C7    H7    S    
N5    Ni2   S    
N13   Ni8   S    
C45   H45   S    
C33   C46   S    
N26   Ni8   S    
C52   C89   A    
N7    Ni3   S    
N16   Ni8   S    
C52   C78   A    
N14   N21   A    
C62   H27   S    
C3    C50   A    
C63   H28   S    
N11   Ni7   S    
C29   C50   S    
C65   C90   A    
C14   C58   A    
C5    C48   A    
C5    H5    S    
N14   Ni6   S    
C23   C47   A    
C87   H52   S    
N6    N23   A    
C24   H24   S    
C40   C68   A    
N31   N32   A    
C72   C83   A    
C7    C46   A    
C15   H15   S    
N11   N24   A    
C27   C81   A    
C77   H42   S    
C41   C60   S    
C12   N12   A    
C36   C57   S    
C6    C47   A    
C1    H1    S    
C12   H12   S    
C75   H40   S    
C77   C84   A    
C76   H41   S    
C39   C58   S    
C74   H39   S    
C50   C56   A    
C40   C61   S    
C37   C55   S    
C30   C82   A    
C13   N13   A    
C32   C51   S    
C23   N23   A    
C45   N28   A    
N20   Ni8   S    
N29   Ni1   S    
C8    H8    S    
C75   C86   A    
N23   Ni3   S    
C38   C65   A    
C45   C49   A    
C1    C44   A    
C62   C91   A    
N2    Ni2   S    
N1    Ni1   S    
N3    N29   A    
C51   C67   A    
C85   H50   S    
C20   C59   A    
C35   C44   S    
N25   Ni7   S    
C76   C87   A    
C2    H2    S    
C41   C66   A    
C25   N25   A    
C25   C54   A    
C89   N32   A    
C12   C46   A    
C81   H46   S    
C32   C96   A    
N18   Ni5   S    
N13   N22   A    
C64   H29   S    
C5    N5    A    
C4    H4    S    
C11   H11   S    
C10   H10   S    
C34   C48   A    
C74   C81   A    
N21   Ni7   S    
C26   C53   A    
C19   N19   A    
N2    N30   A    
C11   C55   A    
C16   H16   S    
C89   H64   S    
N9    Ni5   S    
C35   C94   A    
C17   N17   A    
C43   C76   A    
C14   H14   S    
C7    N7    A    
C38   C71   A    
C15   C59   A    
C30   C49   S    
C78   N31   A    
C8    C44   A    
C32   C84   A    
C20   H20   S    
C82   H47   S    
N4    N28   A    
C33   C93   A    
C41   C79   A    
N4    Ni3   S    
C90   H54   S    
C18   C61   A    
N7    N12   A    
N19   Ni6   S    
C3    N3    A    
C19   C60   A    
C10   N10   A    
C68   C96   A    
C15   N15   A    
C4    C49   A    
N32   Ni1   S    
C33   C87   A    
C21   C58   A    
C14   N14   A    
C80   H44   S    
C65   H30   S    
N10   Ni6   S    
C91   H55   S    
C26   N26   A    
C72   H37   S    
N3    Ni4   S    
N24   Ni5   S    
C69   H33   S    
C31   C95   A    
N10   N25   A    
C70   H35   S    
C73   C80   A    
C67   H62   S    
C6    H6    S    
C34   N27   A    
C10   C54   A    
N31   Ni3   S    
N1    N8    A    
C2    C51   A    
N17   Ni7   S    
N15   N20   A    
N28   Ni2   S    
C38   C59   S    
C28   C92   A    
C3    H3    S    
C78   H63   S    
C9    C53   A    
C73   H38   S    
C34   H34   S    
C22   N22   A    
N17   N18   A    
N8    Ni4   S    
C40   C77   A    
C66   C95   A    
C26   H26   S    
C25   H25   S    
C36   C73   A    
C64   C88   A    
C42   C54   S    
C2    N2    A    
