data_mof_unit_1826.cif
_audit_creation_date              2013-03-05T16:33:33-0500
_audit_creation_method            fapswitch 2.2
_symmetry_space_group_name_H-M    P1
_symmetry_Int_Tables_number       1
_space_group_crystal_system       triclinic
_cell_length_a                    10.995028
_cell_length_b                    10.92022
_cell_length_c                    9.570338
_cell_angle_alpha                 90.218941
_cell_angle_beta                  92.899682
_cell_angle_gamma                 90.923938
_cell_volume                      1147.45970002

loop_
_atom_site_label
_atom_site_type_symbol
_atom_site_description
_atom_site_fract_x
_atom_site_fract_y
_atom_site_fract_z
_atom_type_partial_charge
O1    O     O_R   0.500000 0.319640 0.618810 -0.512302
O2    O     O_R   0.500010 0.319680 0.381230 -0.525776
C1    C     C_R   0.504509 0.262435 0.499154 0.879835
O3    O     O_R   0.319650 0.499970 0.618810 -0.557013
O4    O     O_R   0.319660 0.500010 0.381230 -0.571295
C2    C     C_R   0.263174 0.496456 0.496902 0.878316
Cu1   Cu    Cu3+1 0.499990 0.499980 0.640670 1.148100
Cu2   Cu    Cu3+1 0.500010 0.500020 0.359330 1.164241
O5    O     O_R   0.499990 0.680320 0.618770 -0.574115
O6    O     O_R   0.500000 0.680360 0.381190 -0.529913
O7    O     O_R   0.680340 0.499990 0.618770 -0.519134
O8    O     O_R   0.680350 0.500030 0.381190 -0.499192
C3    C     C_R   0.500578 0.737609 0.499989 0.900817
C4    C     C_R   0.738114 0.496501 0.502779 0.862374
C5    C     C_R   0.073134 0.517973 0.612708 -0.070661
C6    C     C_R   0.131461 0.491106 0.492985 -0.128601
C7    C     C_R   0.058300 0.454365 0.375262 -0.186710
H1    H     H_    0.099628 0.426612 0.280043 0.229148
C8    C     C_R   0.930121 0.449727 0.381793 0.716542
C9    C     C_R   0.872101 0.487519 0.504692 -0.191455
C10   C     C_R   0.950107 0.517154 0.620996 -0.065187
C11   C     C_3   0.967787 0.557373 0.773181 0.507923
C12   C     C_3   0.105724 0.556153 0.758132 0.003216
H2    H     H_    0.155467 0.484561 0.819437 0.169193
C13   C     C_R   0.533167 0.064273 0.620066 -0.143926
C14   C     C_R   0.518485 0.129392 0.495283 -0.249821
C15   C     C_R   0.516798 0.062249 0.367543 0.227039
C16   C     C_R   0.506122 0.934473 0.370364 0.618318
C17   C     C_R   0.510210 0.870875 0.498329 -0.158083
C18   C     C_R   0.532600 0.937621 0.621972 -0.237251
C19   C     C_3   0.467633 0.933504 0.755504 0.440942
C20   C     C_3   0.466213 0.071835 0.751146 1.171660
H3    H     H_    0.522195 0.896130 0.845607 0.096797
C21   C     C_R   0.540457 0.600804 0.076482 -0.027656
N1    N     N_R   0.500790 0.500930 0.147930 -0.273541
C22   C     C_R   0.436977 0.413405 0.070513 0.673606
C23   C     C_R   0.437450 0.413115 0.921789 0.692270
N2    N     N_R   0.500790 0.500890 0.852020 -0.229110
C24   C     C_R   0.537520 0.601642 0.928657 -0.102178
C25   C     C_3   0.659688 0.656961 0.926678 0.402743
C26   C     C_3   0.665137 0.657270 0.084406 1.092651
H4    H     H_    0.663915 0.747864 0.875955 0.103236
F1    F     F_    0.350167 0.118001 0.730281 -0.533449
F2    F     F_    0.534768 0.127315 0.859578 -0.586786
F3    F     F_    0.368741 0.328845 0.135456 -0.570435
F4    F     F_    0.369411 0.328422 0.848941 -0.547967
F5    F     F_    0.732621 0.570934 0.873635 -0.585731
F6    F     F_    0.754228 0.582458 0.141483 -0.533560
F7    F     F_    0.669980 0.773973 0.140592 -0.602406
F8    F     F_    0.864169 0.403163 0.269776 -0.522812
N3    N     N_R   0.922379 0.680335 0.802176 0.185128
O9    O     O_R   0.946978 0.731563 0.923576 -0.209074
O10   O     O_R   0.862235 0.741543 0.705554 -0.318574
N4    N     N_R   0.931743 0.464280 0.874027 0.181226
O11   O     O_R   0.966860 0.476097 0.005329 -0.213816
O12   O     O_R   0.873657 0.364688 0.832391 -0.238041
N5    N     N_R   0.165238 0.676872 0.767520 0.194922
O13   O     O_R   0.234163 0.704525 0.877934 -0.244874
O14   O     O_R   0.143315 0.759711 0.672354 -0.204030
N6    N     N_R   0.522901 0.120773 0.234085 0.203471
O15   O     O_R   0.621025 0.181738 0.204936 -0.229544
O16   O     O_R   0.444242 0.091102 0.132972 -0.152882
F9    F     F_    0.485982 0.873967 0.247026 -0.561463
F10   F     F_    0.352524 0.882177 0.736797 -0.535347

loop_
_geom_bond_atom_site_label_1
_geom_bond_atom_site_label_2
_geom_bond_distance
_ccdc_geom_bond_type
C25   F5    1.358352 S    
C12   H2    1.113286 S    
C19   H3    1.108290 S    
C13   C18   1.383170 A    
C23   N2    1.371136 A    
Cu1   N2    2.022251 S    
O4    Cu2   2.004513 S    
C21   C24   1.413540 A    
C8    C9    1.428767 A    
C5    C10   1.358902 A    
C18   C19   1.495724 S    
Cu2   O8    1.983295 S    
C15   C16   1.398866 A    
C13   C20   1.488987 S    
C5    C12   1.476310 S    
O2    C1    1.291373 A    
C20   F2    1.383279 S    
C22   F3    1.353175 S    
C11   N4    1.468068 S    
C13   C14   1.395916 A    
O1    Cu1   1.979641 S    
C10   C11   1.521733 S    
Cu1   O7    2.004513 S    
C8    F8    1.356076 S    
C16   C17   1.409294 A    
N5    O13   1.300492 A    
C17   C18   1.396505 A    
C21   C26   1.492349 S    
N6    O15   1.301430 A    
O3    Cu1   1.983295 S    
C12   N5    1.462684 S    
C26   F7    1.380504 S    
C25   C26   1.507653 S    
C7    C8    1.413972 A    
C26   F6    1.378566 S    
O8    C4    1.298188 A    
C7    H1    1.083046 S    
C15   N6    1.434505 S    
C1    C14   1.463946 S    
C14   C15   1.422293 A    
O4    C2    1.296852 A    
O7    C4    1.307294 A    
N4    O12   1.303076 A    
Cu2   N1    2.023682 S    
C11   N3    1.470407 S    
O3    C2    1.293771 A    
N5    O14   1.302714 A    
C2    C6    1.447014 S    
C5    C6    1.374050 A    
C16   F9    1.357127 S    
C4    C9    1.477234 S    
Cu1   Cu2   2.692532 S    
N3    O9    1.301662 A    
C9    C10   1.403906 A    
N6    O16   1.301263 A    
C21   N1    1.366677 A    
C3    C17   1.457641 S    
C24   C25   1.464950 S    
Cu1   O5    1.981271 S    
O5    C3    1.299897 A    
C11   C12   1.530950 S    
C22   C23   1.423607 A    
N1    C22   1.369352 A    
N3    O10   1.302399 A    
C23   F4    1.349471 S    
N4    O11   1.301091 A    
C19   F10   1.378928 S    
C20   F1    1.384835 S    
Cu2   O6    1.979641 S    
O2    Cu2   1.981269 S    
C19   C20   1.511652 S    
C6    C7    1.404225 A    
C25   H4    1.108015 S    
O1    C1    1.305888 A    
O6    C3    1.295085 A    
N2    C24   1.364217 A    
