data_mof_unit_768.cif
_audit_creation_date              2012-12-10T16:49:27-0500
_audit_creation_method            fapswitch 2.2
_symmetry_space_group_name_H-M    P1
_symmetry_Int_Tables_number       1
_space_group_crystal_system       triclinic
_cell_length_a                    19.25348
_cell_length_b                    8.757437
_cell_length_c                    7.421547
_cell_angle_alpha                 103.114522
_cell_angle_beta                  93.87599
_cell_angle_gamma                 92.471543
_cell_volume                      1213.7280071

loop_
_atom_site_label
_atom_site_type_symbol
_atom_type_description
_atom_site_fract_x
_atom_site_fract_y
_atom_site_fract_z
_atom_type_partial_charge
C1    C     C_R   0.502229 0.200683 0.452743 0.864555
C2    C     C_R   0.508206 0.799771 0.545236 0.847884
C3    C     C_2   0.508589 0.033961 0.421941 -0.214177
C4    C     C_2   0.523753 0.966171 0.566265 -0.241450
C5    C     C_R   0.367739 0.500612 0.503120 0.919304
C6    C     C_R   0.632214 0.499557 0.497084 0.762587
C7    C     C_R   0.259385 0.632860 0.601504 -0.085006
C8    C     C_R   0.738018 0.354943 0.411518 -0.028365
C9    C     C_R   0.185848 0.629174 0.598670 -0.062321
C10   C     C_R   0.811396 0.352338 0.410215 -0.043698
C11   C     C_R   0.146159 0.489894 0.508004 -0.110715
C12   C     C_R   0.853575 0.488162 0.500661 -0.111811
C13   C     C_R   0.178682 0.353885 0.420599 -0.042211
C14   C     C_R   0.823143 0.629082 0.583235 -0.005261
C15   C     C_R   0.252188 0.358745 0.421751 0.187139
C16   C     C_R   0.750025 0.633041 0.577145 0.158123
C17   C     C_R   0.291816 0.498214 0.509464 -0.134388
C18   C     C_R   0.707928 0.496596 0.490787 -0.161883
C19   C     C_R   0.929611 0.485380 0.498675 0.448924
C20   C     C_R   0.069832 0.487180 0.503524 0.344025
Cu1   Cu    Cu3+1 0.507710 0.517380 0.684380 1.001672
Cu2   Cu    Cu3+1 0.492290 0.482620 0.315620 0.998839
H1    H     H_    0.442883 0.385369 0.950002 0.232212
H2    H     H_    0.558483 0.610645 0.048847 0.209539
N1    N     N_R   0.033685 0.571921 0.401374 -0.187144
N2    N     N_R   0.965797 0.400859 0.601068 -0.212008
N3    N     N_R   0.964546 0.570972 0.398882 -0.183221
N4    N     N_R   0.034919 0.401393 0.603066 -0.205484
N5    N     N_2   0.480680 0.456420 0.038530 -0.200320
N6    N     N_2   0.519320 0.543580 0.961470 -0.205921
O1    O     O_R   0.505010 0.286130 0.619770 -0.564541
O2    O     O_R   0.494990 0.713870 0.380230 -0.590092
O3    O     O_R   0.491990 0.256780 0.308370 -0.567514
O4    O     O_R   0.508010 0.743220 0.691630 -0.572067
O5    O     O_R   0.406650 0.514660 0.655750 -0.588386
O6    O     O_R   0.593350 0.485340 0.344250 -0.613921
O7    O     O_R   0.393640 0.485310 0.344340 -0.550966
O8    O     O_R   0.606360 0.514690 0.655660 -0.557026
C21   C     C_2   0.301835 0.776049 0.704989 0.450339
H3    H     H_    0.286112 0.842450 0.836301 0.116625
O9    O     O_2   0.353413 0.823695 0.642609 -0.563696
C22   C     C_2   0.692251 0.208609 0.341394 0.469073
H4    H     H_    0.641382 0.212713 0.271222 0.052247
O10   O     O_2   0.709899 0.082732 0.367984 -0.532108
C23   C     C_2   0.149050 0.770091 0.688025 0.408589
H5    H     H_    0.100455 0.755732 0.750088 0.129579
O11   O     O_2   0.170857 0.902789 0.686633 -0.526334
C24   C     C_2   0.844647 0.212324 0.304406 0.459459
H6    H     H_    0.895120 0.180547 0.353177 0.080610
O12   O     O_2   0.817220 0.134701 0.156994 -0.520896
C25   C     C_2   0.134634 0.209883 0.325216 0.425006
H7    H     H_    0.082521 0.220345 0.265573 0.088715
O13   O     O_2   0.154597 0.078331 0.317235 -0.507720
C26   C     C_2   0.866394 0.775623 0.673149 0.424485
H8    H     H_    0.845539 0.889504 0.677755 0.133442
O14   O     O_2   0.924372 0.771492 0.748807 -0.517779
N7    N     N_2   0.287357 0.226138 0.330353 -0.433166
H9    H     H_    0.263370 0.163766 0.205401 0.291494
C27   C     C_3   0.313791 0.128568 0.449966 -0.498710
H10   H     H_    0.270407 0.076921 0.512408 0.281149
H11   H     H_    0.350793 0.198093 0.562962 0.189979
H12   H     H_    0.341838 0.031720 0.367947 0.253419
N8    N     N_2   0.718976 0.775963 0.656247 -0.439129
H13   H     H_    0.672987 0.795071 0.587417 0.255891
C28   C     C_3   0.716084 0.809671 0.855894 -0.557102
H14   H     H_    0.696144 0.927873 0.904509 0.255336
H15   H     H_    0.768672 0.809093 0.926784 0.251301
H16   H     H_    0.680706 0.721837 0.896019 0.218205
C29   C     C_2   0.497565 0.945219 0.224118 0.422100
H17   H     H_    0.536700 0.868222 0.164505 0.058689
O15   O     O_2   0.445527 0.959899 0.127337 -0.532327
C30   C     C_2   0.558639 0.052110 0.749052 0.396277
H18   H     H_    0.543779 0.023133 0.876209 0.101009
O16   O     O_2   0.607397 0.148141 0.757505 -0.518958

loop_
_geom_bond_atom_site_label_1
_geom_bond_atom_site_label_2
_ccdc_geom_bond_type
C1    C3    S    
C2    C4    S    
H1    N5    S    
C6    O8    A    
C9    C23   S    
N5    N6    D    
Cu1   O5    S    
C16   N8    S    
C5    O7    A    
N1    N3    A    
C30   O16   D    
C9    C11   A    
Cu1   N6    S    
N2    N4    A    
C28   H15   S    
C4    C30   S    
C28   H16   S    
N8    C28   S    
C2    O4    A    
C24   O12   D    
N7    H9    S    
C22   O10   D    
C1    O3    A    
C27   H10   S    
C21   O9    D    
C16   C18   A    
C23   H5    S    
C5    C17   S    
C15   N7    S    
Cu1   O1    S    
Cu2   O2    S    
Cu2   O3    S    
C11   C13   A    
C15   C17   A    
C10   C12   A    
C12   C19   S    
Cu1   Cu2   S    
C24   H6    S    
Cu2   N5    S    
C3    C29   S    
C6    O6    A    
C14   C16   A    
C13   C15   A    
C10   C24   S    
C29   H17   S    
C6    C18   S    
C25   H7    S    
C26   O14   D    
C11   C20   S    
C27   H11   S    
H2    N6    S    
N7    C27   S    
C20   N1    A    
N8    H13   S    
C5    O5    A    
C12   C14   A    
C1    O1    A    
Cu2   O6    S    
C2    O2    A    
C28   H14   S    
C22   H4    S    
C23   O11   D    
C21   H3    S    
C29   O15   D    
C19   N2    A    
C7    C9    A    
C26   H8    S    
C30   H18   S    
C27   H12   S    
C7    C21   S    
Cu1   O4    S    
C20   N4    A    
C14   C26   S    
C13   C25   S    
Cu2   O7    S    
C8    C10   A    
C8    C18   A    
Cu1   O8    S    
C3    C4    D    
C8    C22   S    
C19   N3    A    
C25   O13   D    
C7    C17   A    
