data_mof_unit_603.cif
_audit_creation_date              2012-12-10T16:52:03-0500
_audit_creation_method            fapswitch 2.2
_symmetry_space_group_name_H-M    P1
_symmetry_Int_Tables_number       1
_space_group_crystal_system       triclinic
_cell_length_a                    7.830125
_cell_length_b                    8.558584
_cell_length_c                    14.951783
_cell_angle_alpha                 92.294264
_cell_angle_beta                  84.96014
_cell_angle_gamma                 93.61971
_cell_volume                      995.525943029

loop_
_atom_site_label
_atom_site_type_symbol
_atom_type_description
_atom_site_fract_x
_atom_site_fract_y
_atom_site_fract_z
_atom_type_partial_charge
C1    C     C_R   0.545479 0.794463 0.497755 0.951344
C2    C     C_R   0.652396 0.543124 0.808604 -0.233667
C3    C     C_R   0.498535 0.502230 0.231224 -0.065980
C4    C     C_R   0.501465 0.497770 0.768775 -0.065980
C5    C     C_R   0.649641 0.548119 0.179741 -0.245041
C6    C     C_R   0.350359 0.451881 0.820259 -0.245041
C7    C     C_R   0.651144 0.548458 0.087235 0.111560
C8    C     C_R   0.348856 0.451542 0.912765 0.111560
C9    C     C_R   0.499589 0.500818 0.046526 0.068257
C10   C     C_R   0.500411 0.499182 0.953474 0.068257
C11   C     C_R   0.347236 0.454745 0.098889 0.104187
C12   C     C_R   0.454520 0.205537 0.502245 0.951344
C13   C     C_R   0.652764 0.545255 0.901111 0.104187
C14   C     C_R   0.801353 0.595300 0.034968 -0.216842
C15   C     C_R   0.198647 0.404700 0.965032 -0.216842
C16   C     C_R   0.802245 0.593505 0.941987 -0.214458
C17   C     C_R   0.197755 0.406495 0.058013 -0.214458
C18   C     C_2   0.569395 0.958020 0.496414 -0.351636
C19   C     C_2   0.430605 0.041980 0.503585 -0.351636
C20   C     C_R   0.500660 0.499590 0.673039 0.878869
C21   C     C_R   0.499339 0.500410 0.326961 0.878869
C22   C     C_R   0.347604 0.456876 0.191396 -0.233667
Cl1   Cl    Cl    0.038365 0.316269 0.403849 -0.531769
Cl2   Cl    Cl    0.961635 0.683731 0.596151 -0.531769
H1    H     H_    0.231558 0.420817 0.232187 0.200593
H2    H     H_    0.299383 0.991224 0.510473 0.215427
H3    H     H_    0.768442 0.579183 0.767812 0.200593
H4    H     H_    0.765532 0.584548 0.211700 0.169972
H5    H     H_    0.234468 0.415452 0.788300 0.169972
H6    H     H_    0.917704 0.633055 0.065970 0.162431
H7    H     H_    0.082296 0.366945 0.934030 0.162431
H8    H     H_    0.919383 0.629638 0.902122 0.164753
H9    H     H_    0.080617 0.370361 0.097878 0.164753
H10   H     H_    0.700616 0.008776 0.489527 0.215427
N1    N     N_2   0.950330 0.457950 0.475660 0.135943
N2    N     N_2   0.049670 0.542050 0.524340 0.135943
O1    O     O_R   0.389250 0.738570 0.505970 -0.600837
O2    O     O_R   0.610750 0.261430 0.494030 -0.600837
O3    O     O_R   0.678390 0.711620 0.490370 -0.581245
O4    O     O_R   0.321610 0.288380 0.509630 -0.581246
O5    O     O_R   0.355420 0.513510 0.639950 -0.612441
O6    O     O_R   0.644580 0.486490 0.360050 -0.612440
O7    O     O_R   0.644560 0.486560 0.624350 -0.592795
O8    O     O_R   0.355440 0.513440 0.375650 -0.592795
Zn1   Zn    Zn3+2 0.306940 0.517990 0.510420 1.083375
Zn2   Zn    Zn3+2 0.693060 0.482010 0.489580 1.083375

loop_
_geom_bond_atom_site_label_1
_geom_bond_atom_site_label_2
_ccdc_geom_bond_type
C12   O4    A    
C2    C4    A    
C15   H7    S    
C2    H3    S    
C16   H8    S    
C21   O8    A    
C9    C11   A    
C9    C10   A    
C11   C22   A    
N1    N2    D    
C1    O1    A    
C6    H5    S    
C20   O5    A    
N2    Zn1   S    
C18   H10   S    
C1    C18   S    
Cl2   N2    S    
C17   H9    S    
C14   H6    S    
O3    Zn2   S    
C12   C19   S    
C4    C6    A    
C8    C15   A    
Cl1   N1    S    
C12   O2    A    
O4    Zn1   S    
O7    Zn2   S    
C14   C16   A    
O2    Zn2   S    
C3    C21   S    
C1    O3    A    
O1    Zn1   S    
C21   O6    A    
C5    H4    S    
C7    C9    A    
C20   O7    A    
O8    Zn1   S    
C19   H2    S    
C8    C10   A    
C18   C19   D    
O6    Zn2   S    
C13   C16   A    
C5    C7    A    
C2    C13   A    
O5    Zn1   S    
C11   C17   A    
C3    C22   A    
C6    C8    A    
C15   C17   A    
N1    Zn2   S    
C10   C13   A    
C7    C14   A    
C3    C5    A    
C22   H1    S    
C4    C20   S    
