data_mof_unit_157.cif
_audit_creation_date              2013-03-05T15:56:55-0500
_audit_creation_method            fapswitch 2.2
_symmetry_space_group_name_H-M    P1
_symmetry_Int_Tables_number       1
_space_group_crystal_system       triclinic
_cell_length_a                    6.934321
_cell_length_b                    14.58466
_cell_length_c                    16.050345
_cell_angle_alpha                 89.953724
_cell_angle_beta                  90.26473
_cell_angle_gamma                 90.082908
_cell_volume                      1623.22750624

loop_
_atom_site_label
_atom_site_type_symbol
_atom_site_description
_atom_site_fract_x
_atom_site_fract_y
_atom_site_fract_z
_atom_type_partial_charge
O1    O     O_R   0.505680 0.583900 0.413320 -0.604539
O2    O     O_R   0.176010 0.594950 0.586080 -0.545575
O3    O     O_R   0.005680 0.416100 0.586680 -0.600703
C1    C     C_R   0.345945 0.616623 0.615595 0.995382
O4    O     O_R   0.175960 0.594930 0.413930 -0.609338
O5    O     O_R   0.005640 0.416080 0.413300 -0.608820
C2    C     C_R   0.344896 0.617176 0.385000 0.898841
O6    O     O_R   0.505720 0.583920 0.586700 -0.568881
O7    O     O_3   0.339190 0.441320 0.500000 -0.296175
V1    V     V_3+5 0.064350 0.510890 0.500000 1.209994
O8    O     O_R   0.675920 0.405050 0.413920 -0.602441
C3    C     C_R   0.844742 0.382831 0.384918 0.908564
O9    O     O_R   0.675960 0.405070 0.586070 -0.581092
C4    C     C_R   0.845341 0.382384 0.614375 1.113521
V2    V     V_3+5 0.564340 0.489110 0.500000 1.204339
O10   O     O_3   0.839370 0.558680 0.500000 -0.253315
C5    C     C_R   0.958846 0.333874 0.756601 0.046265
C6    C     C_R   0.854104 0.314869 0.683495 -0.422688
C7    C     C_R   0.742240 0.233504 0.681584 0.626902
C8    C     C_R   0.753219 0.170539 0.749018 -0.293133
H1    H     H_    0.678378 0.105487 0.744059 0.143225
C9    C     C_R   0.872858 0.187191 0.818739 -0.284305
C10   C     C_R   0.965336 0.272527 0.823148 -0.008553
C11   C     C_3   0.169054 0.296579 0.845429 0.332641
C12   C     C_3   0.166552 0.360008 0.769227 0.156778
H2    H     H_    0.274328 0.239268 0.839269 0.018224
H3    H     H_    0.262166 0.337286 0.718305 -0.013311
C13   C     C_R   0.046807 0.225923 0.216968 -0.161572
H4    H     H_    0.187452 0.208257 0.192795 0.115269
C14   C     C_R   0.035424 0.289424 0.282200 -0.124990
H5    H     H_    0.168009 0.318825 0.306115 0.123060
C15   C     C_R   0.855867 0.314652 0.315937 -0.111895
C16   C     C_R   0.687998 0.274752 0.282363 -0.129808
H6    H     H_    0.547321 0.292500 0.306447 0.119568
C17   C     C_R   0.699382 0.211257 0.217128 -0.130272
H7    H     H_    0.566780 0.181930 0.193145 0.120017
C18   C     C_R   0.878975 0.185812 0.183585 -0.117338
C19   C     C_R   0.209684 0.747942 0.697455 -0.073621
H8    H     H_    0.086600 0.749213 0.655802 0.160034
C20   C     C_R   0.217537 0.811550 0.762785 -0.124297
H9    H     H_    0.099601 0.859439 0.770148 0.124227
C21   C     C_R   0.377633 0.814727 0.816711 -0.181750
C22   C     C_R   0.527558 0.752027 0.804863 -0.219688
H10   H     H_    0.651288 0.752540 0.846375 0.164971
C23   C     C_R   0.520124 0.687173 0.740505 0.402521
C24   C     C_R   0.359899 0.684705 0.684988 -0.278555
C25   C     C_R   0.188070 0.724704 0.282248 -0.140261
H11   H     H_    0.047326 0.706314 0.306004 0.120155
C26   C     C_R   0.199380 0.788258 0.217017 -0.122775
H12   H     H_    0.066708 0.817033 0.192702 0.125059
C27   C     C_R   0.379033 0.814353 0.183824 -0.126392
C28   C     C_R   0.547058 0.775124 0.217728 -0.131526
H13   H     H_    0.687797 0.793515 0.193968 0.122761
C29   C     C_R   0.535747 0.711568 0.282962 -0.130071
H14   H     H_    0.668413 0.682788 0.307279 0.123341
C30   C     C_R   0.356092 0.685491 0.316167 -0.117874
O11   O     O_R   0.229200 0.915950 0.913350 -0.589815
O12   O     O_R   0.559090 0.905000 0.086080 -0.597141
O13   O     O_R   0.729280 0.083880 0.086680 -0.595754
C31   C     C_R   0.390182 0.882707 0.115019 0.930733
O14   O     O_R   0.558920 0.904980 0.913920 -0.599035
O15   O     O_R   0.729110 0.083860 0.913300 -0.588452
C32   C     C_R   0.389389 0.883130 0.884954 0.961757
O16   O     O_R   0.229360 0.915970 0.086730 -0.592747
O17   O     O_3   0.395680 0.058580 0.000030 -0.294100
V3    V     V_3+5 0.670570 0.989070 0.999990 1.155846
O18   O     O_R   0.058820 0.094950 0.913870 -0.621062
C33   C     C_R   0.889115 0.117778 0.885814 0.973004
O19   O     O_R   0.058990 0.094970 0.086020 -0.614411
C34   C     C_R   0.890151 0.117211 0.114986 0.900090
V4    V     V_3+5 0.170560 0.010930 0.999930 1.136358
O20   O     O_3   0.895590 0.941310 0.999960 -0.265236
O21   O     O_3   0.656531 0.206512 0.607460 -0.636669
C35   C     C_3   0.454180 0.205617 0.615732 -0.222895
H15   H     H_    0.393104 0.159717 0.567243 0.166805
H16   H     H_    0.396602 0.275255 0.603605 0.171798
H17   H     H_    0.403072 0.179676 0.677111 0.101420
N1    N     N_R   0.674277 0.622625 0.734943 0.236153
O22   O     O_R   0.713094 0.570960 0.798905 -0.308447
O23   O     O_R   0.804528 0.633486 0.677808 -0.386159
O24   O     O_3   0.181112 0.347068 0.920652 -0.554911
C36   C     C_3   0.185846 0.287151 0.989372 -0.015789
H18   H     H_    0.303783 0.235925 0.984048 0.126564
H19   H     H_    0.043701 0.253302 0.997368 0.092481
H20   H     H_    0.214173 0.327952 0.046438 0.134234
N2    N     N_R   0.194233 0.456780 0.789765 0.282547
O25   O     O_R   0.080912 0.518547 0.758045 -0.324011
O26   O     O_R   0.354703 0.482758 0.824726 -0.323262

loop_
_geom_bond_atom_site_label_1
_geom_bond_atom_site_label_2
_geom_bond_distance
_ccdc_geom_bond_type
C14   C15   1.409530 A    
O21   C35   1.410082 S    
C4    C6    1.483859 S    
C7    C8    1.420712 A    
C1    O6    1.294892 A    
O24   C36   1.406950 S    
C25   C26   1.400162 A    
C1    C24   1.495424 S    
C23   C24   1.421456 A    
C5    C10   1.393386 A    
C35   H16   1.108588 S    
C13   H4    1.082811 S    
C17   C18   1.409378 A    
C11   H2    1.115312 S    
O13   V3    2.002511 S    
O5    C3    1.296762 A    
C14   H5    1.082751 S    
N1    O23   1.299551 A    
O12   C31   1.302685 A    
V2    O10   2.158964 S    
O14   C32   1.301457 A    
C6    C7    1.417055 A    
O16   V4    2.004633 S    
O19   V4    2.006374 S    
O8    V2    2.006469 S    
O14   V3    2.000511 S    
O12   V3    2.003668 S    
V3    O20   1.709702 S    
C17   H7    1.082806 S    
C26   C27   1.408922 A    
C35   H17   1.114230 S    
C10   C11   1.496863 S    
C23   N1    1.428566 S    
O1    V2    2.001391 S    
O7    V1    2.160395 S    
O18   V4    2.000020 S    
C20   C21   1.405273 A    
O1    C2    1.296812 A    
C18   C34   1.490675 S    
C3    C15   1.491080 S    
C2    C30   1.489339 S    
C28   C29   1.400225 A    
O11   C32   1.295103 A    
C29   C30   1.408931 A    
C35   H15   1.109137 S    
O15   V3    2.003129 S    
C27   C28   1.405906 A    
C7    O21   1.384613 S    
C11   C12   1.532980 S    
O4    C2    1.302640 A    
N2    O25   1.298390 A    
O17   V4    1.707836 S    
O18   C33   1.301712 A    
O2    C1    1.306496 A    
C11   O24   1.416782 S    
C25   H11   1.082749 S    
C5    C6    1.404723 A    
O11   V4    2.006321 S    
C22   C23   1.401881 A    
C9    C33   1.481231 S    
O3    C4    1.295461 A    
C20   H9    1.083176 S    
C8    C9    1.410953 A    
C36   H18   1.112129 S    
O6    V2    2.005917 S    
C36   H19   1.109691 S    
O9    V2    1.999991 S    
C22   H10   1.083895 S    
C21   C22   1.399314 A    
O2    V1    2.000379 S    
C28   H13   1.082748 S    
C29   H14   1.082756 S    
N1    O22   1.300365 A    
O5    V1    2.002623 S    
O8    C3    1.303278 A    
C12   H3    1.106116 S    
C36   H20   1.109274 S    
O15   C33   1.293427 A    
C31   O16   1.296806 A    
C5    C12   1.502215 S    
C15   C16   1.405987 A    
C13   C14   1.400966 A    
O7    V2    1.708860 S    
O4    V1    2.003527 S    
O3    V1    2.003203 S    
V1    O10   1.709625 S    
C19   C20   1.401422 A    
C19   H8    1.081898 S    
C13   C18   1.405890 A    
C12   N2    1.461817 S    
C16   C17   1.400942 A    
C16   H6    1.082771 S    
N2    O26   1.299994 A    
O17   V3    2.160292 S    
O19   C34   1.303259 A    
C19   C24   1.407368 A    
O13   C34   1.296625 A    
V4    O20   2.158942 S    
C8    H1    1.083577 S    
C26   H12   1.082754 S    
C9    C10   1.400962 A    
C27   C31   1.489355 S    
O9    C4    1.300525 A    
C21   C32   1.484038 S    
C25   C30   1.405888 A    
