data_mof_unit_3456.cif
_audit_creation_date              2012-12-11T19:09:18-0500
_audit_creation_method            fapswitch 2.2
_symmetry_space_group_name_H-M    P1
_symmetry_Int_Tables_number       1
_space_group_crystal_system       triclinic
_cell_length_a                    8.433127
_cell_length_b                    15.347598
_cell_length_c                    26.914278
_cell_angle_alpha                 98.207446
_cell_angle_beta                  92.886178
_cell_angle_gamma                 80.384418
_cell_volume                      3398.0955229

loop_
_atom_site_label
_atom_site_type_symbol
_atom_type_description
_atom_site_fract_x
_atom_site_fract_y
_atom_site_fract_z
_atom_type_partial_charge
Ba1   Ba    Ba6+2 0.860050 0.456430 0.522540 1.798318
Ba2   Ba    Ba6+2 0.329780 0.543490 0.477450 1.830855
C1    C     C_3   0.774817 0.153960 0.685657 0.236239
C2    C     C_R   0.944812 0.583010 0.182974 0.674440
C3    C     C_2   0.742945 0.540335 0.270042 -0.076804
C4    C     C_3   0.223012 0.231089 0.655851 0.299845
C5    C     C_3   0.707087 0.533977 0.323380 0.041209
C6    C     C_1   0.989931 0.482158 0.340083 0.017080
C7    C     C_2   0.021705 0.472492 0.290463 -0.100974
C8    C     C_2   0.892399 0.507236 0.253444 0.181514
C9    C     C_R   0.986147 0.503094 0.098608 -0.082694
C10   C     C_R   0.965923 0.424006 0.116775 -0.028743
C11   C     C_R   0.974422 0.345053 0.082888 -0.021723
C12   C     C_3   0.716838 0.227749 0.653036 0.813937
C13   C     C_R   0.974783 0.583184 0.131887 -0.037158
C14   C     C_2   0.856207 0.534036 0.357012 -0.211628
C15   C     C_2   0.337724 0.462360 0.639308 -0.205366
C16   C     C_3   0.350604 0.153741 0.669154 -0.350551
C17   C     C_R   0.110294 0.417950 0.966285 -0.053646
C18   C     C_R   0.035006 0.581610 0.974919 0.004513
C19   C     C_R   0.093500 0.499028 0.945232 0.054458
C20   C     C_R   0.193459 0.338688 0.938742 -0.114675
C21   C     C_R   0.232011 0.337452 0.887985 0.397136
C22   C     C_R   0.205100 0.417381 0.865918 -0.034049
C23   C     C_3   0.507786 0.699759 0.645730 0.446071
C24   C     C_R   0.137764 0.497966 0.894705 -0.138407
C25   C     C_R   0.115112 0.577871 0.873022 -0.056138
C26   C     C_R   0.163277 0.577026 0.823262 0.676820
C27   C     C_R   0.249082 0.418998 0.815844 0.644379
C28   C     C_3   0.246788 0.258890 0.399568 0.683659
C29   C     C_2   0.436472 0.457498 0.730378 -0.067505
C30   C     C_3   0.460105 0.418831 0.674994 -0.099939
C31   C     C_1   0.205644 0.514925 0.656490 0.071338
C32   C     C_2   0.166061 0.527115 0.704445 0.025969
C33   C     C_2   0.285255 0.497214 0.744349 0.206053
C34   C     C_3   0.643362 0.705068 0.687384 -0.165376
C35   C     C_R   0.048746 0.420029 0.015096 0.041894
C36   C     C_R   0.018687 0.502018 0.047022 0.067659
C37   C     C_R   0.022407 0.582769 0.027823 0.041297
C38   C     C_R   0.013419 0.343354 0.032932 -0.065493
C39   C     C_R   0.996908 0.661354 0.113524 -0.030845
C40   C     C_3   0.330408 0.179031 0.364313 0.173037
C41   C     C_R   0.993554 0.659124 0.950371 -0.055459
C42   C     C_R   0.040315 0.656887 0.900877 -0.055759
C43   C     C_R   0.021472 0.660977 0.062594 -0.038933
C44   C     C_R   0.350650 0.172798 0.530833 -0.014441
C45   C     C_3   0.995431 0.781937 0.345525 0.866087
C46   C     C_R   0.578858 0.208409 0.489693 0.074829
C47   C     C_R   0.760915 0.769886 0.484566 -0.258095
C48   C     C_R   0.841991 0.826288 0.462421 -0.048316
C49   C     C_R   0.775688 0.917043 0.461919 -0.048411
C50   C     C_R   0.636902 0.955613 0.491189 0.003040
C51   C     C_R   0.562850 0.895517 0.515456 0.030095
C52   C     C_3   0.919572 0.738105 0.602390 0.272492
C53   C     C_R   0.570466 0.050760 0.499305 0.040805
C54   C     C_R   0.419671 0.079634 0.524187 -0.082981
C55   C     C_R   0.349344 0.014254 0.543448 -0.084781
C56   C     C_3   0.029304 0.821530 0.298921 0.290865
C57   C     C_R   0.426845 0.928043 0.542769 -0.008187
C58   C     C_R   0.650002 0.118465 0.485204 -0.026073
C59   C     C_R   0.432537 0.234597 0.513538 -0.188754
C60   C     C_R   0.621558 0.802505 0.511216 0.050496
C61   C     C_3   0.875256 0.837844 0.628786 0.114350
C62   C     C_3   0.627936 0.327659 0.363793 0.629233
C63   C     C_3   0.691806 0.301326 0.310329 0.645781
C64   C     C_2   0.912222 0.899140 0.594146 0.828521
C65   C     C_2   0.958778 0.856879 0.679771 0.964925
C66   C     C_2   0.353135 0.740181 0.671839 0.894512
C67   C     C_3   0.547877 0.768277 0.340769 0.428244
C68   C     C_2   0.632090 0.661570 0.733830 0.880770
C69   C     C_2   0.469609 0.831869 0.383877 0.815726
C70   C     C_2   0.130306 0.273639 0.701764 0.968768
C71   C     C_2   0.435311 0.861777 0.269927 0.972327
C72   C     C_2   0.179836 0.428332 0.269901 0.975169
C73   C     C_2   0.565281 0.440254 0.769536 0.930554
C74   C     C_2   0.273809 0.264026 0.965358 0.878237
C75   C     C_2   0.880410 0.739036 0.971721 0.867233
C76   C     C_2   0.187536 0.025820 0.561203 0.951550
C77   C     C_2   0.840968 0.963697 0.425005 0.823274
C78   C     C_3   0.582632 0.814552 0.295580 0.191466
C79   C     C_R   0.934768 0.426188 0.168146 0.613278
H1    H     H_    0.387300 0.203565 0.333780 0.101150
H2    H     H_    0.647578 0.776224 0.701340 0.089906
H3    H     H_    0.760977 0.676383 0.671609 0.125529
H4    H     H_    0.430013 0.178300 0.700219 0.163543
H5    H     H_    0.872086 0.811736 0.357258 -0.317330
H6    H     H_    0.929567 0.818508 0.270734 0.018490
H7    H     H_    0.039345 0.893067 0.309654 0.077314
H8    H     H_    0.666205 0.737258 0.355492 -0.243524
H9    H     H_    0.660304 0.865408 0.309028 0.014137
H10   H     H_    0.951989 0.283923 0.094940 0.139915
H11   H     H_    0.011343 0.281645 0.008188 0.110329
H12   H     H_    0.240080 0.138079 0.346627 0.087677
H13   H     H_    0.647082 0.563546 0.244280 0.133900
H14   H     H_    0.995190 0.723423 0.138535 0.123876
H15   H     H_    0.285086 0.282382 0.643468 -0.104762
H16   H     H_    0.011098 0.716909 0.883116 0.167686
H17   H     H_    0.044145 0.555467 0.714951 0.152778
H18   H     H_    0.044688 0.722236 0.051185 0.082643
H19   H     H_    0.858278 0.582726 0.390400 0.065252
H20   H     H_    0.345773 0.436534 0.599657 0.049005
H21   H     H_    0.378375 0.304185 0.516987 0.038329
H22   H     H_    0.770253 0.105286 0.472026 0.111852
H23   H     H_    0.815058 0.703777 0.599672 0.052967
H24   H     H_    0.811435 0.699992 0.483142 0.035368
H25   H     H_    0.294855 0.101390 0.682795 0.204675
H26   H     H_    0.369716 0.884192 0.561409 0.127727
H27   H     H_    0.423867 0.123844 0.636059 0.064843
H28   H     H_    0.337928 0.297620 0.418242 -0.047315
H29   H     H_    0.684898 0.158814 0.588683 0.242647
H30   H     H_    0.503266 0.081105 0.364616 0.384631
H31   H     H_    0.684022 0.918559 0.657335 0.321111
H32   H     H_    0.834911 0.013595 0.564546 0.334357
H33   H     H_    0.058724 0.945454 0.729243 0.358565
H34   H     H_    0.955322 0.734328 0.562974 -0.028799
H35   H     H_    0.789803 0.394389 0.395048 0.261891
H36   H     H_    0.665661 0.346670 0.246557 0.337628
H37   H     H_    0.754842 0.172530 0.303124 0.303791
H38   H     H_    0.378060 0.868310 0.665796 0.320669
H39   H     H_    0.411865 0.609685 0.601783 0.273477
H40   H     H_    0.754290 0.587724 0.784042 0.322730
H41   H     H_    0.812399 0.207641 0.754063 0.375487
H42   H     H_    0.917567 0.677036 0.312037 0.299781
H43   H     H_    0.151984 0.719213 0.259030 0.373367
H44   H     H_    0.387413 0.957858 0.414792 0.345356
H45   H     H_    0.496229 0.335562 0.360882 0.061108
H46   H     H_    0.699273 0.780557 0.233506 0.333040
H47   H     H_    0.998237 0.384305 0.737297 0.330649
H48   H     H_    0.295564 0.867902 0.206914 0.323663
H49   H     H_    0.355585 0.429812 0.221914 0.334886
H50   H     H_    0.653252 0.477430 0.839124 0.309832
H51   H     H_    0.267616 0.208583 0.870179 0.351321
H52   H     H_    0.296759 0.134096 0.974090 0.338926
H53   H     H_    0.682632 0.788178 0.012324 0.331332
H54   H     H_    0.048111 0.042618 0.621400 0.345226
H55   H     H_    0.028707 0.013288 0.402730 0.308203
H56   H     H_    0.907885 0.135398 0.684590 0.094812
H57   H     H_    0.084428 0.194745 0.418917 0.306911
H58   H     H_    0.823525 0.304251 0.311231 -0.035655
H59   H     H_    0.583753 0.243363 0.654710 -0.233529
H60   H     H_    0.722445 0.093611 0.670439 0.073216
N1    N     N_R   0.925571 0.505202 0.200669 -0.415217
N2    N     N_R   0.231774 0.498299 0.795448 -0.439114
O1    O     O_2   0.906490 0.548660 0.619040 -0.453247
O2    O     O_2   0.166222 0.819864 0.478603 -0.361827
O3    O     O_3   0.106900 0.804418 0.383488 -0.545939
O4    O     O_3   0.138490 0.548590 0.558860 -0.506892
O5    O     O_3   0.572560 0.389970 0.472910 -0.469284
O6    O     O_2   0.345680 0.723560 0.528460 -0.438685
O7    O     O_3   0.530587 0.756294 0.610008 -0.640883
O8    O     O_2   0.378863 0.550986 0.329337 -0.398724
O9    O     O_3   0.448739 0.703823 0.324309 -0.552583
O10   O     O_2   0.916008 0.357902 0.183935 -0.589666
O11   O     O_2   0.304546 0.349474 0.790225 -0.514189
O12   O     O_3   0.684529 0.258423 0.392211 -0.675173
O13   O     O_2   0.936288 0.652268 0.211842 -0.604444
O14   O     O_2   0.146136 0.646573 0.804973 -0.491688
O15   O     O_3   0.686290 0.382320 0.585720 -0.445435
O16   O     O_2   0.761824 0.473798 0.672457 -0.410450
O17   O     O_3   0.048152 0.692273 0.627948 -0.619925
O18   O     O_3   0.787296 0.303183 0.671382 -0.539333
O19   O     O_2   0.844020 0.276410 0.471510 -0.418987
O20   O     O_3   0.101490 0.335510 0.560360 -0.457055
O21   O     O_2   0.014482 0.186256 0.526509 -0.373304
O22   O     O_3   0.762836 0.197623 0.603448 -0.721985
O23   O     O_3   0.112722 0.199369 0.619416 -0.592713
O24   O     O_3   0.446567 0.126263 0.390568 -0.727448
O25   O     O_3   0.709803 0.859043 0.636686 -0.771036
O26   O     O_2   0.033707 0.879742 0.569576 -0.595766
O27   O     O_R   0.804569 0.977819 0.590065 -0.789577
O28   O     O_2   0.961507 0.805776 0.710888 -0.521784
O29   O     O_R   0.015036 0.938047 0.693365 -0.737491
O30   O     O_3   0.674528 0.408311 0.385256 -0.756494
O31   O     O_3   0.611611 0.361397 0.279302 -0.724787
O32   O     O_3   0.663889 0.214992 0.291104 -0.695887
O33   O     O_2   0.280758 0.693670 0.692416 -0.536058
O34   O     O_2   0.283210 0.451320 0.380930 -0.460048
O35   O     O_R   0.303284 0.832529 0.679167 -0.696215
O36   O     O_3   0.508883 0.610854 0.624089 -0.747957
O37   O     O_2   0.515646 0.683516 0.760717 -0.528197
O38   O     O_R   0.766171 0.604623 0.749576 -0.735358
O39   O     O_3   0.724359 0.180843 0.735139 -0.674671
O40   O     O_3   0.010112 0.688950 0.334599 -0.727547
O41   O     O_3   0.173258 0.776596 0.277796 -0.675182
O42   O     O_2   0.426067 0.801385 0.419315 -0.580705
O43   O     O_R   0.448527 0.924170 0.384568 -0.729297
O44   O     O_3   0.666689 0.749349 0.260276 -0.718958
O45   O     O_3   0.051220 0.451340 0.441130 -0.483825
O46   O     O_2   0.112875 0.230288 0.735337 -0.584408
O47   O     O_R   0.059420 0.362868 0.705187 -0.752141
O48   O     O_2   0.357037 0.929922 0.291161 -0.595593
O49   O     O_R   0.393773 0.829860 0.220445 -0.697407
O50   O     O_2   0.245599 0.357309 0.282386 -0.586108
O51   O     O_R   0.250414 0.466734 0.234306 -0.737227
O52   O     O_2   0.673508 0.376787 0.762317 -0.586672
O53   O     O_R   0.560671 0.496373 0.815416 -0.747116
O54   O     O_3   0.308852 0.260215 0.860553 -0.624955
O55   O     O_2   0.371372 0.278553 0.999456 -0.572907
O56   O     O_3   0.503420 0.617610 0.414270 -0.431697
O57   O     O_R   0.234935 0.178386 0.952718 -0.745854
O58   O     O_2   0.896585 0.813230 0.963234 -0.567662
O59   O     O_R   0.751754 0.729088 0.000117 -0.740814
O60   O     O_2   0.076713 0.023710 0.530487 -0.551905
O61   O     O_R   0.164300 0.024505 0.611963 -0.738377
O62   O     O_2   0.756283 0.986821 0.389555 -0.618585
O63   O     O_R   0.998846 0.981143 0.430428 -0.700558
O64   O     O_3   0.165350 0.229320 0.436418 -0.716686
O65   O     O_3   0.135859 0.308636 0.369992 -0.677382
O66   O     O_3   0.617160 0.609950 0.527080 -0.453307
O67   O     O_3   0.088220 0.664410 0.439630 -0.459677
P1    P     P_3+3 0.071960 0.575810 0.612130 1.025476
P2    P     P_3+3 0.664360 0.290070 0.457280 1.042773
P3    P     P_3+3 0.150977 0.221608 0.559318 1.068604
P4    P     P_3+3 0.117760 0.424110 0.387870 1.023359
P5    P     P_3+3 0.047059 0.779558 0.440406 1.144191
P6    P     P_3+3 0.670592 0.397333 0.650914 1.117152
P7    P     P_3+3 0.529725 0.722156 0.544302 1.016274
P8    P     P_3+3 0.516032 0.602965 0.348583 1.135214

loop_
_geom_bond_atom_site_label_1
_geom_bond_atom_site_label_2
_ccdc_geom_bond_type
H36   O31   S    
C53   C54   A    
C4    O23   S    
C71   C78   S    
C63   O31   S    
Ba1   P1    S    
C40   H12   S    
O20   P3    S    
C64   O26   D    
H50   O53   S    
C1    H60   S    
C20   C74   S    
C19   C24   A    
C56   H6    S    
C72   O51   S    
C3    H13   S    
C51   C57   A    
C40   O24   S    
C4    C70   S    
C40   H1    S    
O56   P8    S    
C62   O12   S    
C24   C25   A    
H35   O30   S    
C67   C78   S    
C52   H23   S    
Ba1   O15   S    
C17   C19   A    
H39   O36   S    
C76   O61   S    
H43   O41   S    
C35   C38   A    
C6    P4    S    
O5    P2    S    
C2    N1    Am   
C36   C37   A    
C32   C33   S    
H29   O22   S    
O4    P1    S    
C55   C57   A    
C52   C61   S    
C34   H2    S    
O15   P6    S    
O67   P5    S    
H31   O25   S    
H48   O49   S    
C79   O10   D    
C54   C55   A    
C56   O41   S    
Ba1   Ba2   S    
C51   C60   A    
C67   C69   S    
C15   H20   S    
C22   C27   A    
C26   O14   D    
C11   C38   A    
H42   O40   S    
C17   C35   A    
O2    P5    D    
C5    P8    S    
C9    C13   A    
C25   C42   A    
C78   O44   S    
C46   P2    S    
C6    C7    D    
O9    P8    S    
H46   O44   S    
C21   C22   A    
H54   O61   S    
C46   C58   A    
C1    H56   S    
H38   O35   S    
C58   H22   S    
C7    C8    S    
O3    P5    S    
C50   C53   A    
C37   C43   A    
C73   O53   S    
Ba2   O6    S    
C72   O50   D    
C6    C14   D    
C53   C58   A    
C63   O32   S    
Ba1   P2    S    
C23   C66   S    
C15   C31   D    
C69   O42   D    
C67   H8    S    
C55   C76   S    
C70   O47   S    
C34   C68   S    
H53   O59   S    
C16   H27   S    
C45   O3    S    
C66   O33   D    
C4    C16   S    
C61   C65   S    
Ba2   O67   S    
C16   H4    S    
C44   C59   A    
Ba1   O66   S    
C49   C50   A    
C45   H5    S    
C17   C20   A    
C76   O60   D    
C13   C39   A    
C45   O40   S    
C43   H18   S    
C3    C5    S    
C18   C37   A    
O45   P4    S    
C14   H19   S    
C47   H24   S    
C28   H28   S    
C65   O28   D    
Ba2   O4    S    
C77   O62   D    
C57   H26   S    
Ba2   O56   S    
C56   H7    S    
C23   O7    S    
C63   H58   S    
O23   P3    S    
C9    C36   A    
H33   O29   S    
C41   C42   A    
C16   H25   S    
C35   C36   A    
C42   H16   S    
C68   O38   S    
C29   C73   S    
C29   C30   S    
H57   O64   S    
C44   P3    S    
C28   O65   S    
C52   H34   S    
C31   C32   D    
O8    P8    D    
C48   C49   A    
C26   N2    Am   
O6    P7    D    
C38   H11   S    
C12   O22   S    
C49   C77   S    
Ba1   O20   S    
C60   P7    S    
C71   O48   D    
C1    C12   S    
C61   O25   S    
Ba2   O34   S    
O18   P6    S    
C12   H59   S    
H37   O32   S    
Ba2   P4    S    
H52   O57   S    
C62   H45   S    
C74   O57   S    
C65   O29   S    
C29   C33   D    
Ba1   O4    S    
C75   O59   S    
H30   O24   S    
C7    C72   S    
C69   O43   S    
C70   O46   D    
C18   C41   A    
C50   C51   A    
H40   O38   S    
Ba1   O45   S    
O17   P1    S    
O12   P2    S    
Ba2   O66   S    
O65   P4    S    
C47   C60   A    
C2    O13   D    
C67   O9    S    
C28   C40   S    
O34   P4    D    
C64   O27   S    
C5    C14   S    
C34   H3    S    
C22   C24   A    
H49   O51   S    
C75   O58   D    
Ba1   O19   S    
C9    C10   A    
C23   O36   S    
H32   O27   S    
O21   P3    D    
C41   C75   S    
C77   O63   S    
C21   O54   S    
C4    H15   S    
O66   P7    S    
C62   C63   S    
C2    C13   A    
C59   H21   S    
C3    C8    D    
Ba1   O1    S    
C79   N1    Am   
C45   C56   S    
H55   O63   S    
C31   P1    S    
C68   O37   D    
C46   C59   A    
C39   H14   S    
O19   P2    D    
C48   P5    S    
C12   O18   S    
C28   O64   S    
C66   O35   S    
H51   O54   S    
C32   H17   S    
O7    P7    S    
C10   C79   A    
H47   O47   S    
C78   H9    S    
C1    O39   S    
Ba2   O45   S    
C61   C64   S    
C71   O49   S    
C23   C34   S    
C52   O17   S    
C30   P6    S    
H41   O39   S    
C18   C19   A    
O16   P6    D    
C27   N2    Am   
C47   C48   A    
C44   C54   A    
C25   C26   A    
C15   C30   S    
C39   C43   A    
C20   C21   A    
H44   O43   S    
Ba1   O5    S    
C74   O55   D    
C10   C11   A    
C62   O30   S    
Ba2   O5    S    
O1    P1    D    
C11   H10   S    
C33   N2    S    
C27   O11   D    
C8    N1    S    
C73   O52   D    
