data_mof_unit_132.cif
_audit_creation_date              2012-12-11T15:44:51-0500
_audit_creation_method            fapswitch 2.2
_symmetry_space_group_name_H-M    P1
_symmetry_Int_Tables_number       1
_space_group_crystal_system       triclinic
_cell_length_a                    6.924353
_cell_length_b                    16.871315
_cell_length_c                    17.044345
_cell_angle_alpha                 100.456803
_cell_angle_beta                  89.374837
_cell_angle_gamma                 90.657492
_cell_volume                      1957.89334992

loop_
_atom_site_label
_atom_site_type_symbol
_atom_type_description
_atom_site_fract_x
_atom_site_fract_y
_atom_site_fract_z
_atom_type_partial_charge
O1    O     O_R   0.494370 0.415690 0.413450 -0.542561
O2    O     O_R   0.819420 0.429360 0.578420 -0.542808
O3    O     O_R   0.994280 0.584310 0.586550 -0.540052
C1    C     C_R   0.648160 0.413690 0.605202 0.693737
O4    O     O_R   0.823790 0.406230 0.413570 -0.546615
O5    O     O_R   0.998670 0.561000 0.420530 -0.533555
C2    C     C_R   0.654868 0.383050 0.384891 0.678782
O6    O     O_R   0.489970 0.439000 0.579470 -0.540992
O7    O     O_3   0.662300 0.550810 0.502470 -0.356309
V1    V     V_3+5 0.935380 0.490570 0.499540 1.419506
O8    O     O_R   0.328650 0.570640 0.421580 -0.534002
C3    C     C_R   0.159462 0.586956 0.395252 0.708567
O9    O     O_R   0.324290 0.593770 0.586430 -0.542667
C4    C     C_R   0.155077 0.616998 0.615063 0.689022
V2    V     V_3+5 0.435930 0.509430 0.500460 1.437938
O10   O     O_3   0.159140 0.449190 0.497530 -0.373455
C5    C     C_R   0.312401 0.723670 0.717986 -0.149110
H1    H     H_    0.453480 0.704408 0.694439 0.119736
C6    C     C_R   0.301205 0.787324 0.783220 -0.141150
H2    H     H_    0.434231 0.815267 0.807746 0.118248
C7    C     C_R   0.121179 0.814523 0.816195 -0.036616
C8    C     C_R   0.952654 0.776396 0.781933 -0.143419
H3    H     H_    0.811573 0.795714 0.805430 0.114543
C9    C     C_R   0.963844 0.712738 0.716708 -0.143648
H4    H     H_    0.830800 0.684839 0.692151 0.119697
C10   C     C_R   0.143882 0.685427 0.683827 -0.047658
C11   C     C_R   0.139585 0.639852 0.334122 -0.112112
C12   C     C_R   0.126969 0.864901 0.169050 -0.064651
C13   C     C_R   0.333127 0.828559 0.272308 -0.182688
C14   C     C_R   0.288403 0.879546 0.219347 -0.155939
C15   C     C_R   0.006415 0.798728 0.174864 -0.231557
C16   C     C_R   0.051571 0.746272 0.227990 0.153172
C17   C     C_R   0.217620 0.760414 0.277066 0.108985
C18   C     C_R   0.262806 0.706624 0.329787 -0.113345
C19   C     C_R   0.977428 0.627070 0.283852 -0.147151
C20   C     C_R   0.934339 0.679110 0.231720 -0.180078
H5    H     H_    0.880570 0.576493 0.285547 0.127284
H6    H     H_    0.460577 0.842575 0.308623 0.135746
H7    H     H_    0.807401 0.667037 0.194644 0.117078
H8    H     H_    0.383950 0.930324 0.216630 0.125322
H9    H     H_    0.882665 0.786204 0.135983 0.117656
C21   C     C_R   0.624723 0.361351 0.666431 -0.069218
C22   C     C_R   0.640928 0.135823 0.830302 -0.110978
C23   C     C_R   0.838163 0.179496 0.724964 -0.222101
C24   C     C_R   0.801993 0.125255 0.776780 -0.042117
C25   C     C_R   0.513711 0.199596 0.826565 -0.235988
C26   C     C_R   0.549902 0.253607 0.773549 0.154579
C27   C     C_R   0.715182 0.244177 0.723322 0.143634
C28   C     C_R   0.753190 0.298541 0.670911 -0.227788
C29   C     C_R   0.460429 0.370069 0.716822 -0.162503
C30   C     C_R   0.424183 0.317331 0.770047 -0.186583
H10   H     H_    0.878534 0.290219 0.631712 0.123647
H11   H     H_    0.358295 0.417782 0.714702 0.123482
H12   H     H_    0.962919 0.170900 0.685327 0.126814
H13   H     H_    0.296353 0.325870 0.807759 0.119045
H14   H     H_    0.389739 0.208614 0.866470 0.126426
C31   C     C_R   0.811873 0.276202 0.282219 -0.158047
H15   H     H_    0.952684 0.295381 0.305902 0.115739
C32   C     C_R   0.800749 0.212415 0.217112 -0.150259
H16   H     H_    0.933540 0.184311 0.192805 0.117594
C33   C     C_R   0.621081 0.185270 0.184003 -0.045726
C34   C     C_R   0.452843 0.223693 0.217914 -0.158343
H17   H     H_    0.312035 0.204514 0.194227 0.115512
C35   C     C_R   0.463968 0.287481 0.283021 -0.150841
H18   H     H_    0.331180 0.315589 0.307327 0.117049
C36   C     C_R   0.643640 0.314634 0.316121 -0.045904
O11   O     O_R   0.774880 0.061150 0.920630 -0.534686
O12   O     O_R   0.440980 0.093710 0.086500 -0.546686
O13   O     O_R   0.266190 0.938890 0.079390 -0.541624
C37   C     C_R   0.609883 0.116886 0.115202 0.678370
O14   O     O_R   0.445420 0.070740 0.921670 -0.532856
O15   O     O_R   0.270660 0.915760 0.913380 -0.539644
C38   C     C_R   0.616714 0.085165 0.893632 0.711213
O16   O     O_R   0.770400 0.084270 0.086640 -0.542028
O17   O     O_3   0.602590 0.949210 0.997500 -0.372511
V3    V     V_3+5 0.329470 0.009420 0.000470 1.425089
O18   O     O_R   0.940650 0.906250 0.913470 -0.543179
C39   C     C_R   0.109947 0.882796 0.885103 0.728536
O19   O     O_R   0.936210 0.929220 0.078300 -0.542412
C40   C     C_R   0.105458 0.914242 0.105570 0.689323
V4    V     V_3+5 0.828930 0.990510 0.999490 1.422087
O20   O     O_3   0.105680 0.050790 0.002500 -0.367080
C41   C     C_1   0.932003 0.058116 0.771590 0.318368
N1    N     N_1   0.036876 0.004529 0.766826 -0.365315
C42   C     C_1   0.430047 0.721412 0.380984 0.293145
N2    N     N_1   0.563768 0.733212 0.421779 -0.338119

loop_
_geom_bond_atom_site_label_1
_geom_bond_atom_site_label_2
_ccdc_geom_bond_type
C33   C37   S    
C22   C38   S    
C19   C20   A    
C31   C36   A    
O15   V3    S    
V4    O20   S    
C15   C16   A    
C42   N2    T    
C34   H17   S    
C5    C10   A    
C16   C20   A    
C19   H5    S    
C9    C10   A    
O5    C3    A    
O14   V3    S    
C31   C32   A    
V2    O10   S    
C13   C17   A    
O13   V3    S    
O15   C39   A    
O8    V2    S    
C6    H2    S    
C7    C39   S    
C37   O16   A    
C34   C35   A    
O11   C38   A    
O7    V1    S    
C1    O6    A    
C32   H16   S    
O9    C4    A    
C24   C41   S    
C17   C18   A    
C20   H7    S    
C11   C18   A    
C32   C33   A    
C29   H11   S    
C3    C11   S    
C26   C27   A    
C9    H4    S    
V3    O20   S    
O4    C2    A    
O17   V4    S    
C26   C30   A    
C11   C19   A    
O18   C39   A    
C18   C42   S    
C35   C36   A    
C13   H6    S    
O2    C1    A    
O17   V3    S    
C13   C14   A    
C41   N1    T    
O18   V4    S    
C28   H10   S    
C5    H1    S    
C14   H8    S    
C29   C30   A    
C4    C10   S    
C22   C24   A    
O3    C4    A    
C21   C29   A    
O1    V2    S    
C27   C28   A    
O11   V4    S    
O6    V2    S    
O9    V2    S    
C8    C9    A    
O16   V4    S    
C25   H14   S    
O2    V1    S    
C23   C24   A    
O19   V4    S    
C25   C26   A    
C15   H9    S    
C6    C7    A    
O1    C2    A    
C12   C15   A    
O5    V1    S    
O8    C3    A    
O12   V3    S    
C16   C17   A    
C12   C14   A    
O7    V2    S    
O4    V1    S    
O3    V1    S    
V1    O10   S    
C35   H18   S    
C2    C36   S    
C31   H15   S    
C1    C21   S    
C5    C6    A    
C30   H13   S    
C33   C34   A    
C12   C40   S    
C22   C25   A    
C21   C28   A    
O19   C40   A    
C23   H12   S    
O12   C37   A    
O14   C38   A    
C8    H3    S    
O13   C40   A    
C7    C8    A    
C23   C27   A    
