data_mof_unit_4799.cif
_audit_creation_date              2012-12-10T19:44:26-0500
_audit_creation_method            fapswitch 2.2
_symmetry_space_group_name_H-M    P1
_symmetry_Int_Tables_number       1
_space_group_crystal_system       triclinic
_cell_length_a                    10.808406
_cell_length_b                    12.314865
_cell_length_c                    13.205416
_cell_angle_alpha                 116.453112
_cell_angle_beta                  77.766086
_cell_angle_gamma                 101.504483
_cell_volume                      1526.80114956

loop_
_atom_site_label
_atom_site_type_symbol
_atom_type_description
_atom_site_fract_x
_atom_site_fract_y
_atom_site_fract_z
_atom_type_partial_charge
C1    C     C_R   0.511788 0.854723 0.286571 0.806084
C2    C     C_R   0.631790 0.841253 0.799256 -0.156000
C3    C     C_R   0.039016 0.954741 0.566456 -0.192656
C4    C     C_R   0.129165 0.001383 0.498121 -0.053359
C5    C     C_R   0.090111 0.050927 0.433194 0.010727
C6    C     C_R   0.960777 0.049970 0.437001 -0.226659
C7    C     C_R   0.870822 0.002340 0.504539 -0.053371
C8    C     C_R   0.910021 0.957150 0.572405 0.029092
C9    C     C_R   0.188226 0.231821 0.392662 -0.155125
C10   C     C_R   0.279474 0.286388 0.331648 -0.151185
C11   C     C_R   0.364335 0.216240 0.240852 -0.122149
C12   C     C_R   0.737136 0.001072 0.502154 0.808472
C13   C     C_R   0.354843 0.090552 0.207903 -0.116241
C14   C     C_R   0.262516 0.035303 0.267653 -0.088970
C15   C     C_R   0.180564 0.106115 0.362384 0.117923
C16   C     C_R   0.336898 0.273441 0.018812 -0.190195
C17   C     C_R   0.462944 0.226254 0.834111 -0.027929
C18   C     C_R   0.621754 0.812117 0.092886 -0.206822
C19   C     C_R   0.670473 0.729337 0.986476 -0.161234
C20   C     C_R   0.627025 0.605716 0.949356 -0.158847
C21   C     C_R   0.526897 0.562281 0.015748 0.057780
C22   C     C_R   0.471312 0.648402 0.122152 0.035082
C23   C     C_R   0.483355 0.144785 0.713099 0.815947
C24   C     C_R   0.479301 0.436130 0.979320 0.074704
C25   C     C_R   0.384067 0.397304 0.052380 0.119886
C26   C     C_R   0.327017 0.483026 0.152859 -0.250866
C27   C     C_R   0.361626 0.606751 0.182106 0.143008
C28   C     C_R   0.517455 0.347864 0.869827 -0.201820
C29   C     C_R   0.377214 0.187901 0.910419 -0.198966
C30   C     C_R   0.527567 0.772389 0.164100 -0.089963
C31   C     C_R   0.700506 0.346694 0.327202 -0.298813
C32   C     C_R   0.328741 0.759253 0.645940 0.095217
C33   C     C_R   0.292075 0.662478 0.677672 -0.257722
C34   C     C_R   0.262667 0.000663 0.499824 0.812875
C35   C     C_R   0.356245 0.559093 0.622540 -0.200082
C36   C     C_R   0.458807 0.551195 0.534459 -0.027537
C37   C     C_R   0.492839 0.652814 0.504717 0.306187
C38   C     C_R   0.529233 0.447148 0.475303 -0.048350
C39   C     C_R   0.630655 0.446783 0.387376 0.161579
C40   C     C_R   0.662347 0.546373 0.359961 -0.289942
C41   C     C_R   0.595791 0.647117 0.417709 -0.179469
C42   C     C_R   0.503690 0.342308 0.498605 0.050464
C43   C     C_R   0.670325 0.246742 0.354066 0.070803
C44   C     C_R   0.665362 0.965901 0.827764 -0.138128
C45   C     C_R   0.759745 0.005415 0.756756 0.164372
C46   C     C_R   0.819211 0.918749 0.654831 0.080768
C47   C     C_R   0.787851 0.793838 0.628954 -0.157720
C48   C     C_R   0.694651 0.755429 0.701191 -0.137708
Cu1   Cu    Cu3+1 0.529370 0.098270 0.475420 0.947692
Cu2   Cu    Cu3+1 0.470630 0.901730 0.524580 0.954250
H1    H     H_    0.557875 0.811236 0.853882 0.150390
H2    H     H_    0.437409 0.259331 0.195996 0.149137
H3    H     H_    0.419860 0.036121 0.136822 0.124969
H4    H     H_    0.257171 0.938263 0.241929 0.136515
H5    H     H_    0.334303 0.093764 0.883654 0.145884
H6    H     H_    0.245285 0.453713 0.202361 0.165546
H7    H     H_    0.263175 0.243717 0.073946 0.147684
H8    H     H_    0.583705 0.371867 0.807605 0.152703
H9    H     H_    0.664860 0.906363 0.122699 0.149751
H10   H     H_    0.675537 0.546902 0.868919 0.133920
H11   H     H_    0.747089 0.760522 0.934450 0.153078
H12   H     H_    0.618076 0.031856 0.905268 0.145159
H13   H     H_    0.723592 0.169043 0.307680 0.117508
H14   H     H_    0.740571 0.547059 0.293394 0.171146
H15   H     H_    0.777986 0.345781 0.259678 0.151453
H16   H     H_    0.428048 0.334473 0.563603 0.124193
H17   H     H_    0.278497 0.839131 0.689413 0.116253
H18   H     H_    0.323733 0.486991 0.650561 0.144048
H19   H     H_    0.213608 0.667656 0.745363 0.149894
H20   H     H_    0.630076 0.719194 0.391648 0.206578
H21   H     H_    0.833463 0.726252 0.551525 0.150379
H22   H     H_    0.669789 0.658971 0.680248 0.142240
H23   H     H_    0.069296 0.920444 0.618907 0.149579
H24   H     H_    0.930248 0.085409 0.385568 0.149228
H25   H     H_    0.125649 0.287921 0.465102 0.138702
H26   H     H_    0.286205 0.383557 0.356304 0.149225
N1    N     N_R   0.573890 0.246290 0.438210 -0.176955
N2    N     N_R   0.426890 0.754320 0.561170 -0.194949
O1    O     O_R   0.536940 0.972510 0.318130 -0.589403
O2    O     O_R   0.487330 0.806530 0.359650 -0.579280
O3    O     O_R   0.705160 0.082990 0.479250 -0.582172
O4    O     O_R   0.655550 0.917010 0.520760 -0.596259
O5    O     O_R   0.512670 0.193470 0.640350 -0.589651
O6    O     O_R   0.463060 0.027490 0.681870 -0.589109
O7    O     O_R   0.344450 0.082990 0.479240 -0.578587
O8    O     O_R   0.294840 0.917010 0.520750 -0.570935
I1    I     I_    0.211535 0.711319 0.283865 -0.440858
I2    I     I_    0.812023 0.196093 0.809272 -0.452085

loop_
_geom_bond_atom_site_label_1
_geom_bond_atom_site_label_2
_ccdc_geom_bond_type
C17   C29   A    
C35   C36   A    
C43   H13   S    
C7    C8    A    
C45   C46   A    
C26   C27   A    
C17   C23   S    
C31   C43   A    
C36   C37   A    
C38   C42   A    
C5    C6    A    
C18   C19   A    
C34   O8    A    
Cu1   O3    S    
C11   H2    S    
C10   H26   S    
C19   C20   A    
Cu1   N1    S    
C18   C30   A    
C20   H10   S    
C9    C10   A    
C33   H19   S    
C21   C22   A    
C48   H22   S    
Cu2   N2    S    
C25   C26   A    
C6    H24   S    
C13   H3    S    
C7    C12   S    
C4    C34   S    
C23   O6    A    
Cu2   O6    S    
Cu1   O7    S    
C45   I2    S    
C24   C25   A    
C3    C8    A    
C10   C11   A    
C2    C44   A    
C39   C40   A    
C29   H5    S    
C2    C48   A    
C16   C29   A    
Cu1   O1    S    
C26   H6    S    
C34   O7    A    
C47   C48   A    
C12   O4    A    
C27   I1    S    
C47   H21   S    
C23   O5    A    
C32   H17   S    
C40   C41   A    
C14   H4    S    
C22   C27   A    
C1    O1    A    
C3    C4    A    
C44   C45   A    
Cu2   O4    S    
C16   C25   A    
C31   H15   S    
C46   C47   A    
C22   C30   A    
C17   C28   A    
C24   C28   A    
C4    C5    A    
Cu2   O2    S    
C6    C7    A    
C28   H8    S    
C43   N1    A    
C37   N2    A    
C40   H14   S    
C44   H12   S    
C32   C33   A    
Cu1   O5    S    
C36   C38   A    
C9    C15   A    
C11   C13   A    
C38   C39   A    
C35   H18   S    
C19   H11   S    
C1    C30   S    
C33   C35   A    
C31   C39   A    
C12   O3    A    
C16   H7    S    
C37   C41   A    
C3    H23   S    
C8    C46   S    
C5    C15   S    
C2    H1    S    
Cu2   O8    S    
C32   N2    A    
C18   H9    S    
C20   C21   A    
C42   N1    A    
Cu1   Cu2   S    
C21   C24   A    
C42   H16   S    
C1    O2    A    
C14   C15   A    
C9    H25   S    
C13   C14   A    
C41   H20   S    
