data_mof_unit_2080.cif
_audit_creation_date              2013-03-05T15:46:06-0500
_audit_creation_method            fapswitch 2.2
_symmetry_space_group_name_H-M    P1
_symmetry_Int_Tables_number       1
_space_group_crystal_system       triclinic
_cell_length_a                    13.858562
_cell_length_b                    11.040289
_cell_length_c                    9.96855
_cell_angle_alpha                 111.25686
_cell_angle_beta                  93.618432
_cell_angle_gamma                 92.991815
_cell_volume                      1413.98226618

loop_
_atom_site_label
_atom_site_type_symbol
_atom_site_description
_atom_site_fract_x
_atom_site_fract_y
_atom_site_fract_z
_atom_type_partial_charge
O1    O     O_R   0.508810 0.332170 0.576290 -0.550766
O2    O     O_R   0.491190 0.667830 0.423710 -0.550760
O3    O     O_R   0.480920 0.295870 0.335040 -0.584379
O4    O     O_R   0.519080 0.704130 0.664960 -0.584363
C1    C     C_R   0.493083 0.254405 0.441422 0.847011
C2    C     C_R   0.506916 0.745595 0.558578 0.847070
O5    O     O_R   0.378070 0.520740 0.637680 -0.521735
O6    O     O_R   0.621930 0.479260 0.362320 -0.521735
O7    O     O_R   0.350180 0.484440 0.396440 -0.630322
O8    O     O_R   0.649820 0.515560 0.603560 -0.630376
C3    C     C_R   0.319952 0.503490 0.523243 0.815016
C4    C     C_R   0.680047 0.496511 0.476758 0.815019
Cu1   Cu    Cu3+1 0.516510 0.521490 0.642840 1.019768
Cu2   Cu    Cu3+1 0.483490 0.478510 0.357160 1.019786
N1    N     N_2   0.458660 0.446210 0.142550 -0.089418
N2    N     N_2   0.541340 0.553790 0.857450 -0.089427
C5    C     C_1   0.781495 0.491381 0.461537 -0.125799
C6    C     C_1   0.218500 0.508587 0.538454 -0.125751
C7    C     C_2   0.970658 0.479103 0.438133 0.373214
C8    C     C_2   0.029327 0.520728 0.561805 0.373106
C9    C     C_2   0.511082 0.507968 0.079127 0.445795
C10   C     C_2   0.488912 0.492047 0.920883 0.445796
C11   C     C_1   0.133020 0.513937 0.550589 -0.067548
C12   C     C_1   0.866971 0.485982 0.449384 -0.067820
H1    H     H_    0.467770 0.865076 0.377017 0.210724
H2    H     H_    0.532216 0.134925 0.622988 0.210712
C13   C     C_2   0.486504 0.114556 0.409148 -0.329144
C14   C     C_2   0.513492 0.885444 0.590853 -0.329138
C15   C     C_2   0.506379 0.069341 0.514323 -0.107162
C16   C     C_2   0.493611 0.930659 0.485680 -0.107116
H3    H     H_    0.536748 0.951672 0.700361 0.160642
H4    H     H_    0.463252 0.048328 0.299639 0.160663
O9    O     O_3   0.583788 0.671045 0.945837 -0.491971
C17   C     C_3   0.676070 0.688495 0.900782 0.278519
H5    H     H_    0.669742 0.720191 0.807559 0.161805
H6    H     H_    0.715406 0.598253 0.873854 0.150911
C18   C     C_3   0.736727 0.797103 0.021796 -0.789904
H7    H     H_    0.752532 0.767640 0.115596 0.293205
H8    H     H_    0.806558 0.818367 0.982829 0.185913
H9    H     H_    0.697465 0.887101 0.056708 0.253768
O10   O     O_3   0.416249 0.328935 0.054158 -0.491995
C19   C     C_3   0.323963 0.311442 0.099179 0.278467
H10   H     H_    0.284595 0.401655 0.126062 0.150982
H11   H     H_    0.330288 0.279781 0.192427 0.161786
C20   C     C_3   0.263356 0.202780 0.978159 -0.789802
H12   H     H_    0.302675 0.112831 0.943246 0.253840
H13   H     H_    0.193546 0.181431 0.017119 0.185829
H14   H     H_    0.247511 0.232235 0.884362 0.293122
O11   O     O_3   0.988458 0.574374 0.693631 -0.607329
C21   C     C_3   0.054512 0.592682 0.814497 0.089538
H15   H     H_    0.115650 0.665041 0.821993 0.164548
H16   H     H_    0.082881 0.498410 0.808357 0.170417
C22   C     C_3   0.002305 0.645410 0.951278 -0.789769
H17   H     H_    0.938997 0.577439 0.946218 0.253464
H18   H     H_    0.052591 0.656575 0.046996 0.211998
H19   H     H_    0.976638 0.742072 0.963166 0.247299
O12   O     O_3   0.011554 0.425588 0.306299 -0.607337
C23   C     C_3   0.945170 0.405749 0.185326 0.089544
H20   H     H_    0.916201 0.499467 0.190556 0.171008
H21   H     H_    0.884462 0.333074 0.178706 0.163970
C24   C     C_3   0.997250 0.352520 0.048484 -0.790036
H22   H     H_    0.023352 0.256244 0.037400 0.247149
H23   H     H_    0.946733 0.340401 0.952672 0.211878
H24   H     H_    0.060263 0.420672 0.052793 0.253541
N3    N     N_R   0.404386 0.412014 0.841113 0.135274
O13   O     O_R   0.319657 0.456883 0.865533 -0.418381
O14   O     O_R   0.409494 0.287920 0.771755 -0.364889
N4    N     N_R   0.595601 0.588010 0.158905 0.135298
O15   O     O_R   0.680333 0.543138 0.134512 -0.418363
O16   O     O_R   0.590491 0.712108 0.228236 -0.364863

loop_
_geom_bond_atom_site_label_1
_geom_bond_atom_site_label_2
_geom_bond_distance
_ccdc_geom_bond_type
C4    C5    1.425438 S    
C24   H24   1.110785 S    
C21   H16   1.114053 S    
O7    Cu2   1.912109 S    
C3    C6    1.425457 S    
C8    O11   1.401102 S    
N2    O9    1.351376 S    
C13   C15   1.334796 D    
C17   C18   1.522359 S    
O10   C19   1.408520 S    
C7    C8    1.347523 D    
C8    C11   1.452105 S    
O5    Cu1   1.915524 S    
O6    C4    1.302619 A    
C23   C24   1.521304 S    
C14   C16   1.334795 D    
C7    C12   1.452145 S    
C23   H20   1.114150 S    
C10   N3    1.431834 S    
C1    C13   1.455020 S    
Cu1   Cu2   2.716177 S    
C7    O12   1.401203 S    
O5    C3    1.302623 A    
O7    C3    1.304139 A    
O12   C23   1.412804 S    
O2    C2    1.303325 A    
O3    Cu2   1.945473 S    
C19   H11   1.105633 S    
C23   H21   1.113588 S    
C17   H5    1.105641 S    
O1    C1    1.303324 A    
O8    C4    1.304133 A    
C9    C10   1.531601 S    
C18   H7    1.109160 S    
O9    C17   1.408525 S    
C18   H9    1.110867 S    
C17   H6    1.114942 S    
C22   H18   1.110452 S    
C9    N4    1.431830 S    
C24   H22   1.110346 S    
O2    Cu2   1.944880 S    
Cu1   N2    2.040463 S    
C21   C22   1.521329 S    
O1    Cu1   1.944879 S    
N3    O13   1.301087 A    
C15   C16   1.451005 S    
C6    C11   1.200710 T    
C5    C12   1.200701 T    
C20   H12   1.110868 S    
N1    C9    1.308150 D    
C20   H13   1.110122 S    
N1    O10   1.351366 S    
H2    C15   1.086799 S    
C18   H8    1.110141 S    
O11   C21   1.412592 S    
C19   H10   1.114941 S    
C22   H19   1.110259 S    
O4    Cu1   1.945475 S    
C24   H23   1.110590 S    
N4    O16   1.299810 A    
Cu2   N1    2.040462 S    
H1    C16   1.086798 S    
O6    Cu2   1.915525 S    
C20   H14   1.109166 S    
C21   H15   1.113422 S    
C13   H4    1.087384 S    
C22   H17   1.110717 S    
O4    C2    1.303872 A    
C19   C20   1.522356 S    
C14   H3    1.087385 S    
C2    C14   1.455020 S    
N3    O14   1.299808 A    
N2    C10   1.308153 D    
N4    O15   1.301088 A    
O3    C1    1.303874 A    
O8    Cu1   1.912110 S    
