data_mof_unit_4432.cif
_audit_creation_date              2012-12-11T14:07:22-0500
_audit_creation_method            fapswitch 2.2
_symmetry_space_group_name_H-M    P1
_symmetry_Int_Tables_number       1
_space_group_crystal_system       triclinic
_cell_length_a                    19.709245
_cell_length_b                    16.999352
_cell_length_c                    15.405563
_cell_angle_alpha                 90.077632
_cell_angle_beta                  53.510812
_cell_angle_gamma                 89.944113
_cell_volume                      4149.71067403

loop_
_atom_site_label
_atom_site_type_symbol
_atom_type_description
_atom_site_fract_x
_atom_site_fract_y
_atom_site_fract_z
_atom_type_partial_charge
C1    C     C_R   0.375467 0.197910 0.994733 -0.128326
C2    C     C_R   0.344341 0.820505 0.039206 -0.112949
C3    C     C_R   0.875672 0.697991 0.994466 -0.121091
C4    C     C_R   0.840132 0.325393 0.049998 -0.115436
C5    C     C_R   0.669927 0.917881 0.049552 -0.155321
C6    C     C_R   0.634109 0.105355 0.104447 -0.165992
C7    C     C_R   0.169804 0.417805 0.049774 -0.155308
C8    C     C_R   0.133929 0.605852 0.104358 -0.168711
C9    C     C_R   0.651800 0.183840 0.071892 0.157449
C10   C     C_R   0.711453 0.853989 0.979729 0.158933
C11   C     C_R   0.151858 0.684138 0.070600 0.161745
C12   C     C_R   0.211256 0.353867 0.980021 0.155867
C13   C     C_R   0.607110 0.814056 0.698502 -0.010081
C14   C     C_R   0.688395 0.140917 0.677911 0.029483
C15   C     C_R   0.105401 0.314911 0.698928 -0.008651
C16   C     C_R   0.105753 0.685364 0.700417 -0.006141
C17   C     C_3   0.185493 0.131640 0.509503 -0.438866
C18   C     C_3   0.202470 0.865463 0.509762 -0.457306
C19   C     C_3   0.682964 0.627644 0.513167 -0.437112
C20   C     C_3   0.869978 0.280994 0.476644 -0.487509
C21   C     C_3   0.127502 0.176152 0.618660 0.098796
C22   C     C_3   0.142497 0.823686 0.619106 0.084473
C23   C     C_3   0.627236 0.673649 0.621701 0.101062
C24   C     C_3   0.803578 0.244101 0.587515 0.084350
C25   C     C_3   0.303922 0.228683 0.454787 -0.408193
C26   C     C_3   0.312441 0.758601 0.456830 -0.415978
C27   C     C_3   0.802510 0.724795 0.451168 -0.402435
C28   C     C_3   0.855770 0.176885 0.373294 -0.422117
C29   C     C_3   0.700114 0.747733 0.406651 -0.443031
C30   C     C_3   0.749672 0.288989 0.458362 -0.411505
C31   C     C_3   0.205703 0.253404 0.403898 -0.447580
C32   C     C_3   0.211548 0.746637 0.406680 -0.443702
C33   C     C_3   0.252570 0.188916 0.420498 0.346524
C34   C     C_3   0.264583 0.804324 0.422167 0.362283
C35   C     C_3   0.748797 0.683866 0.421158 0.340882
C36   C     C_3   0.843732 0.265986 0.400354 0.346439
C37   C     C_3   0.652531 0.763277 0.600907 0.262508
C38   C     C_3   0.746732 0.185065 0.577732 0.293318
C39   C     C_3   0.152695 0.265745 0.600586 0.267491
C40   C     C_3   0.158391 0.731974 0.601947 0.306033
C41   C     C_3   0.746806 0.773042 0.553664 -0.400761
C42   C     C_3   0.803886 0.128874 0.478515 -0.423571
C43   C     C_3   0.246099 0.275719 0.557537 -0.399172
C44   C     C_3   0.250804 0.709520 0.555405 -0.387209
C45   C     C_R   0.364301 0.815458 0.220077 -0.148244
C46   C     C_R   0.353098 0.175559 0.217811 -0.143751
C47   C     C_R   0.899516 0.300564 0.208605 -0.158249
C48   C     C_R   0.850602 0.672662 0.218022 -0.141394
C49   C     C_3   0.641545 0.794005 0.512943 -0.153812
C50   C     C_3   0.692143 0.232593 0.551487 -0.177606
C51   C     C_3   0.144737 0.298218 0.510616 -0.156912
C52   C     C_3   0.144756 0.706452 0.514648 -0.171431
C53   C     C_2   0.192149 0.741353 0.095562 -0.217527
C54   C     C_2   0.285653 0.315782 0.958244 -0.204377
C55   C     C_2   0.692728 0.240388 0.097324 -0.211030
C56   C     C_2   0.786031 0.816002 0.957709 -0.206221
C57   C     C_2   0.712226 0.312402 0.052677 -0.201915
C58   C     C_2   0.813119 0.748125 0.902677 -0.215590
C59   C     C_2   0.215517 0.810909 0.044457 -0.200739
C60   C     C_2   0.312586 0.247865 0.903351 -0.209890
C61   C     C_R   0.330784 0.912498 0.948991 -0.160023
C62   C     C_R   0.366211 0.111517 0.895814 -0.169855
C63   C     C_R   0.829320 0.413061 0.952218 -0.162573
C64   C     C_R   0.866445 0.611624 0.895532 -0.162673
C65   C     C_R   0.362903 0.085695 0.315866 -0.138907
C66   C     C_R   0.373510 0.907302 0.316334 -0.146319
C67   C     C_R   0.858443 0.579615 0.314414 -0.143831
C68   C     C_R   0.907941 0.393029 0.303294 -0.146991
C69   C     C_R   0.348382 0.188045 0.931674 0.152641
C70   C     C_R   0.290968 0.849054 0.017259 0.149827
C71   C     C_R   0.848792 0.688224 0.931158 0.155612
C72   C     C_R   0.787577 0.351928 0.025412 0.150612
C73   C     C_R   0.328130 0.843652 0.322571 0.030210
C74   C     C_R   0.314113 0.146404 0.320758 0.025113
C75   C     C_R   0.891619 0.314748 0.302704 0.033603
C76   C     C_R   0.809103 0.640597 0.320430 0.025039
C77   C     C_R   0.624081 0.199872 0.010413 -0.117870
C78   C     C_R   0.660784 0.822488 0.953526 -0.125775
C79   C     C_R   0.124825 0.699642 0.008319 -0.129186
C80   C     C_R   0.160683 0.322433 0.953612 -0.125176
C81   C     C_R   0.600658 0.800738 0.791756 -0.137245
C82   C     C_R   0.648886 0.172691 0.780739 -0.129820
C83   C     C_R   0.099091 0.300790 0.792063 -0.138311
C84   C     C_R   0.098411 0.699268 0.793912 -0.138283
C85   C     C_R   0.639337 0.079540 0.684644 -0.160964
C86   C     C_R   0.590593 0.893016 0.697951 -0.150006
C87   C     C_R   0.090254 0.606364 0.698571 -0.150455
C88   C     C_R   0.090266 0.394037 0.698044 -0.149135
H1    H     H_    0.384622 0.253061 0.021265 0.079296
H2    H     H_    0.340521 0.764979 0.074744 0.080587
H3    H     H_    0.884835 0.753109 0.021079 0.077894
H4    H     H_    0.830885 0.276789 0.100713 0.085938
H5    H     H_    0.146351 0.107998 0.485227 0.134124
H6    H     H_    0.164850 0.893221 0.485522 0.145549
H7    H     H_    0.641979 0.602944 0.492381 0.133962
H8    H     H_    0.873396 0.344454 0.490247 0.130313
H9    H     H_    0.561214 0.670187 0.647953 0.050633
H10   H     H_    0.762290 0.293695 0.639034 0.057540
H11   H     H_    0.062314 0.173036 0.641867 0.049855
H12   H     H_    0.077293 0.833236 0.643820 0.081198
H13   H     H_    0.338732 0.184560 0.467703 0.155134
H14   H     H_    0.346437 0.799564 0.474975 0.166674
H15   H     H_    0.838603 0.681055 0.462443 0.154051
H16   H     H_    0.923673 0.160546 0.326336 0.160827
H17   H     H_    0.758778 0.756006 0.613097 0.176762
H18   H     H_    0.846404 0.092202 0.485877 0.182379
H19   H     H_    0.256136 0.257891 0.618521 0.176010
H20   H     H_    0.264762 0.714719 0.614891 0.172780
H21   H     H_    0.744698 0.790459 0.343231 0.144051
H22   H     H_    0.732334 0.287362 0.401451 0.155158
H23   H     H_    0.251415 0.296609 0.342296 0.144704
H24   H     H_    0.252608 0.699942 0.347370 0.139431
H25   H     H_    0.664530 0.720066 0.379424 0.162748
H26   H     H_    0.739625 0.350550 0.488840 0.164028
H27   H     H_    0.172227 0.226562 0.373155 0.162239
H28   H     H_    0.181841 0.778566 0.374026 0.167102
H29   H     H_    0.662917 0.856180 0.493064 0.133439
H30   H     H_    0.666113 0.190173 0.522900 0.142051
H31   H     H_    0.165939 0.360491 0.492721 0.135137
H32   H     H_    0.155509 0.642248 0.498027 0.118804
H33   H     H_    0.352321 0.268657 0.389717 0.160690
H34   H     H_    0.360862 0.719120 0.390501 0.155426
H35   H     H_    0.850001 0.764252 0.384398 0.160237
H36   H     H_    0.833850 0.161861 0.323410 0.152193
H37   H     H_    0.355183 0.758738 0.197716 0.083370
H38   H     H_    0.335680 0.226107 0.192993 0.092742
H39   H     H_    0.897243 0.244096 0.178209 0.085927
H40   H     H_    0.832766 0.723382 0.194022 0.092310
H41   H     H_    0.765370 0.836079 0.534305 0.156095
H42   H     H_    0.765333 0.086428 0.470166 0.140483
H43   H     H_    0.264459 0.338906 0.539941 0.157463
H44   H     H_    0.262029 0.646319 0.531195 0.152001
H45   H     H_    0.215629 0.720346 0.139564 0.122232
H46   H     H_    0.305915 0.335247 0.006516 0.122039
H47   H     H_    0.719560 0.217254 0.136307 0.122201
H48   H     H_    0.806299 0.835452 0.005982 0.122069
H49   H     H_    0.683597 0.336575 0.016534 0.122113
H50   H     H_    0.795348 0.729857 0.851310 0.127082
H51   H     H_    0.189411 0.834085 0.004701 0.125267
H52   H     H_    0.294763 0.229559 0.852054 0.127448
H53   H     H_    0.309427 0.947520 0.910928 0.100520
H54   H     H_    0.362862 0.085780 0.834189 0.094526
H55   H     H_    0.807949 0.446982 0.913326 0.097621
H56   H     H_    0.863276 0.585914 0.833747 0.089120
H57   H     H_    0.356677 0.057762 0.382877 0.085024
H58   H     H_    0.372477 0.934092 0.380537 0.082830
H59   H     H_    0.848614 0.545167 0.379788 0.089707
H60   H     H_    0.913431 0.424370 0.359769 0.086244
H61   H     H_    0.617603 0.256210 0.983793 0.076843
H62   H     H_    0.671621 0.771459 0.905116 0.090410
H63   H     H_    0.118872 0.755368 0.979894 0.086917
H64   H     H_    0.171454 0.271483 0.905082 0.090180
H65   H     H_    0.605480 0.745917 0.822499 0.119364
H66   H     H_    0.666911 0.224199 0.803592 0.094190
H67   H     H_    0.104010 0.245696 0.822254 0.121752
H68   H     H_    0.098759 0.754281 0.828032 0.131079
H69   H     H_    0.647473 0.045315 0.620076 0.090900
H70   H     H_    0.582707 0.923365 0.642990 0.087138
H71   H     H_    0.083938 0.574975 0.642828 0.082144
H72   H     H_    0.083796 0.425756 0.642670 0.087700
H73   H     H_    0.691366 0.951972 0.088165 0.095599
H74   H     H_    0.638596 0.078519 0.164476 0.089175
H75   H     H_    0.191165 0.451903 0.088488 0.095485
H76   H     H_    0.138256 0.579535 0.164792 0.088904
H77   H     H_    0.215682 0.079422 0.515892 0.172685
H78   H     H_    0.235246 0.915069 0.516793 0.156770
H79   H     H_    0.714066 0.576094 0.519223 0.173499
H80   H     H_    0.933875 0.256160 0.439984 0.178886
N1    N     N_R   0.408680 0.130160 0.995800 -0.042015
N2    N     N_R   0.408680 0.869840 0.995800 -0.043706
N3    N     N_R   0.908680 0.630160 0.995800 -0.040619
N4    N     N_R   0.908680 0.369840 0.995800 -0.044424
N5    N     N_R   0.421680 0.867580 0.153120 -0.034844
N6    N     N_R   0.421680 0.132420 0.153120 -0.037300
N7    N     N_R   0.921680 0.367580 0.153120 -0.034520
N8    N     N_R   0.921680 0.632420 0.153120 -0.037739
N9    N     N_R   0.403730 0.921770 0.935950 -0.039637
N10   N     N_R   0.403730 0.078230 0.935950 -0.038283
N11   N     N_R   0.903730 0.421770 0.935950 -0.039400
N12   N     N_R   0.903730 0.578230 0.935950 -0.035975
N13   N     N_R   0.426630 0.075970 0.212960 -0.033997
N14   N     N_R   0.426630 0.924030 0.212960 -0.032287
N15   N     N_R   0.926630 0.575970 0.212960 -0.035641
N16   N     N_R   0.926630 0.424030 0.212960 -0.032403
N17   N     N_R   0.591320 0.134600 0.004200 -0.043451
N18   N     N_R   0.591320 0.865400 0.004200 -0.049049
N19   N     N_R   0.091320 0.634600 0.004200 -0.047130
N20   N     N_R   0.091320 0.365400 0.004200 -0.046154
N21   N     N_R   0.578320 0.867660 0.846880 -0.037945
N22   N     N_R   0.578320 0.132340 0.846880 -0.042902
N23   N     N_R   0.078320 0.367660 0.846880 -0.039448
N24   N     N_R   0.078320 0.632340 0.846880 -0.039808
N25   N     N_R   0.573370 0.074390 0.787040 -0.035998
N26   N     N_R   0.573370 0.925610 0.787040 -0.029151
N27   N     N_R   0.073370 0.574390 0.787040 -0.031797
N28   N     N_R   0.073370 0.425610 0.787040 -0.032729
N29   N     N_R   0.596270 0.927870 0.064040 -0.041251
N30   N     N_R   0.596270 0.072130 0.064040 -0.037233
N31   N     N_R   0.096270 0.427870 0.064040 -0.038719
N32   N     N_R   0.096270 0.572130 0.064040 -0.038241
Ni1   Ni    Ni4+2 0.500000 0.131190 0.000000 0.203239
Ni2   Ni    Ni4+2 0.500000 0.868810 0.000000 0.206652
Ni3   Ni    Ni4+2 0.000000 0.631190 0.000000 0.202512
Ni4   Ni    Ni4+2 0.000000 0.368810 0.000000 0.204826
Ni5   Ni    Ni4+2 0.488650 0.000000 0.862740 0.207055
Ni6   Ni    Ni4+2 0.988650 0.500000 0.862740 0.204153
Ni7   Ni    Ni4+2 0.511350 0.000000 0.137260 0.211755
Ni8   Ni    Ni4+2 0.011350 0.500000 0.137260 0.207694
N33   N     N_2   0.123211 0.139605 0.707914 -0.108366
H81   H     H_    0.065437 0.115369 0.767154 0.157645
C89   C     C_3   0.193727 0.098329 0.693455 -0.983363
H82   H     H_    0.185756 0.098190 0.771104 0.245089
H83   H     H_    0.254626 0.126467 0.632186 0.261444
H84   H     H_    0.195032 0.036363 0.669857 0.257220
N34   N     N_2   0.143408 0.860462 0.704567 -0.114747
H85   H     H_    0.107156 0.910939 0.734691 0.163631
C90   C     C_3   0.219778 0.866823 0.698363 -0.958760
H86   H     H_    0.210025 0.911536 0.757512 0.239324
H87   H     H_    0.274914 0.885687 0.617849 0.252816
H88   H     H_    0.233385 0.811172 0.722152 0.249421
N35   N     N_2   0.625722 0.638666 0.709726 -0.107216
H89   H     H_    0.568191 0.615769 0.771939 0.158300
C91   C     C_3   0.697170 0.597674 0.693123 -0.980921
H90   H     H_    0.692526 0.600648 0.768480 0.243499
H91   H     H_    0.757863 0.624050 0.627732 0.259789
H92   H     H_    0.696151 0.534762 0.674407 0.245350
N36   N     N_2   0.839987 0.214714 0.640904 -0.106082
H93   H     H_    0.866333 0.258667 0.658289 0.162511
C92   C     C_3   0.887884 0.142192 0.606912 -0.932436
H94   H     H_    0.917576 0.135605 0.649245 0.235712
H95   H     H_    0.938972 0.142385 0.518813 0.241846
H96   H     H_    0.845301 0.091121 0.630674 0.259780
N37   N     N_3   0.553851 0.791741 0.548021 -0.219830
H97   H     H_    0.512291 0.812406 0.627091 0.104435
H98   H     H_    0.535859 0.734318 0.546195 0.113163
N38   N     N_3   0.619693 0.276143 0.642506 -0.213136
H99   H     H_    0.571203 0.237025 0.694981 0.125982
H100  H     H_    0.635994 0.307647 0.685717 0.100891
N39   N     N_3   0.058215 0.296070 0.541574 -0.223573
H101  H     H_    0.014886 0.315256 0.621063 0.098561
H102  H     H_    0.041405 0.238885 0.536626 0.125230
N40   N     N_3   0.059448 0.725440 0.548568 -0.215679
H103  H     H_    0.053002 0.703559 0.490313 0.107457
H104  H     H_    0.015425 0.694860 0.619511 0.101771

loop_
_geom_bond_atom_site_label_1
_geom_bond_atom_site_label_2
_ccdc_geom_bond_type
C61   C70   A    
N8    N15   A    
C39   C51   S    
C61   N9    A    
C13   C81   A    
C77   N17   A    
C48   C76   A    
C19   C23   S    
N39   H101  S    
C4    C72   A    
C45   C73   A    
C3    N3    A    
C25   C43   S    
C6    C9    A    
C84   H68   S    
C18   H78   S    
C91   H92   S    
C26   C44   S    
C82   H66   S    
C54   C60   D    
C15   C83   A    
C68   C75   A    
N9    Ni5   S    
C92   H94   S    
C41   H17   S    
C51   H31   S    
C30   H22   S    
C24   H10   S    
C60   C69   S    
C29   H21   S    
N13   Ni7   S    
N7    Ni4   S    
C38   C42   S    
C92   H96   S    
C52   N40   S    
N34   C90   S    
C21   H11   S    
C58   C71   S    
C83   H67   S    
N2    Ni2   S    
C54   H46   S    
N10   Ni5   S    
N19   Ni3   S    
C16   C84   A    
C81   H65   S    
N38   H99   S    
N18   Ni2   S    
C3    H3    S    
N14   Ni7   S    
C64   C71   A    
N17   Ni1   S    
C2    H2    S    
N36   H93   S    
C88   N28   A    
N23   N28   A    
C32   C52   S    
C49   N37   S    
N22   N25   A    
N21   N26   A    
C26   C34   S    
C49   H29   S    
C28   H36   S    
C20   C24   S    
N38   H100  S    
C13   C86   A    
C16   C87   A    
C24   C38   S    
C46   N6    A    
N18   N29   A    
C78   N18   A    
N17   N30   A    
C24   N36   S    
C28   H16   S    
N37   H97   S    
C13   C37   S    
C11   C53   S    
C58   H50   S    
C88   H72   S    
C66   N14   A    
N11   Ni6   S    
N32   Ni8   S    
C4    N4    A    
C22   N34   S    
C82   N22   A    
N28   Ni6   S    
N15   Ni8   S    
C28   C42   S    
N8    Ni3   S    
C19   H79   S    
C62   H54   S    
N12   Ni6   S    
N6    N13   A    
C31   H27   S    
C56   H48   S    
N4    Ni4   S    
N33   H81   S    
C34   C73   S    
C44   H20   S    
C64   N12   A    
C53   C59   D    
C7    C12   A    
C20   H80   S    
C35   C76   S    
N25   Ni5   S    
N2    N9    A    
N24   N27   A    
C23   N35   S    
C53   H45   S    
C91   H90   S    
C42   H42   S    
C8    H76   S    
C77   H61   S    
C6    N30   A    
C27   H35   S    
C29   C49   S    
C65   N13   A    
N20   N31   A    
C27   C35   S    
C90   H86   S    
C40   C52   S    
C56   C58   D    
C7    H75   S    
N20   Ni4   S    
N6    Ni1   S    
C1    C69   A    
C65   C74   A    
C62   C69   A    
N5    Ni2   S    
C90   H88   S    
N39   H102  S    
C32   C34   S    
C3    C71   A    
N34   H85   S    
N35   H89   S    
C36   C75   S    
C45   N5    A    
C48   H40   S    
N1    Ni1   S    
C37   C49   S    
C27   C41   S    
N40   H104  S    
C89   H82   S    
C21   C39   S    
C7    N31   A    
C59   H51   S    
C87   H71   S    
C22   C40   S    
C25   C33   S    
C31   C33   S    
N40   H103  S    
C80   N20   A    
C57   H49   S    
C17   C33   S    
C43   H19   S    
C32   H28   S    
C50   N38   S    
N37   H98   S    
C15   C39   S    
C11   C79   A    
C16   C40   S    
C9    C55   S    
C52   H32   S    
N4    N11   A    
C61   H53   S    
C23   H9    S    
C42   H18   S    
C2    N2    A    
N5    N14   A    
C86   H70   S    
C50   H30   S    
C55   C57   D    
N3    Ni3   S    
C67   H59   S    
C18   H6    S    
C19   H7    S    
C89   H83   S    
N3    N12   A    
N29   Ni7   S    
C17   H5    S    
C60   H52   S    
C14   C82   A    
C65   H57   S    
C14   C38   S    
N1    N10   A    
C46   C74   A    
C10   C56   S    
C78   H62   S    
C79   H63   S    
C30   H26   S    
C83   N23   A    
C80   H64   S    
N26   Ni5   S    
C29   H25   S    
C68   N16   A    
C1    H1    S    
C32   H24   S    
N36   C92   S    
N30   Ni7   S    
C18   C22   S    
C46   H38   S    
C6    H74   S    
C20   H8    S    
C14   C85   A    
C31   C51   S    
C68   H60   S    
C62   N10   A    
N24   Ni3   S    
C5    N29   A    
C91   H91   S    
N22   Ni1   S    
C79   N19   A    
C38   C50   S    
N21   Ni2   S    
C44   H44   S    
C64   H56   S    
C29   C35   S    
N16   Ni8   S    
C30   C36   S    
N19   N32   A    
C66   C73   A    
C27   H15   S    
C43   H43   S    
C9    C77   A    
C87   N27   A    
C5    C10   A    
C92   H95   S    
C17   H77   S    
C26   H14   S    
C41   H41   S    
C30   C50   S    
C25   H13   S    
N27   Ni6   S    
C2    C70   A    
C47   H39   S    
C18   C34   S    
C8    C11   A    
C55   H47   S    
C12   C80   A    
C1    N1    A    
N31   Ni8   S    
N33   C89   S    
C23   C37   S    
C21   N33   S    
C10   C78   A    
C84   N24   A    
C31   H23   S    
C85   N25   A    
C57   C72   S    
C37   C41   S    
C90   H87   S    
C17   C21   S    
C66   H58   S    
C22   H12   S    
C8    N32   A    
C59   C70   S    
C47   C75   A    
C63   N11   A    
C20   C36   S    
C81   N21   A    
C33   C74   S    
C40   C44   S    
C89   H84   S    
C63   C72   A    
C28   C36   S    
N35   C91   S    
N23   Ni4   S    
C39   C43   S    
C45   H37   S    
C85   H69   S    
C47   N7    A    
C63   H55   S    
C15   C88   A    
C67   N15   A    
C19   C35   S    
C67   C76   A    
C26   H34   S    
C4    H4    S    
C86   N26   A    
C25   H33   S    
C12   C54   S    
C5    H73   S    
N7    N16   A    
C48   N8    A    
C51   N39   S    
