data_mof_unit_1876.cif
_audit_creation_date              2012-12-10T18:05:16-0500
_audit_creation_method            fapswitch 2.2
_symmetry_space_group_name_H-M    P1
_symmetry_Int_Tables_number       1
_space_group_crystal_system       triclinic
_cell_length_a                    9.513314
_cell_length_b                    10.833107
_cell_length_c                    17.152382
_cell_angle_alpha                 89.284037
_cell_angle_beta                  95.268755
_cell_angle_gamma                 89.99648
_cell_volume                      1760.09561625

loop_
_atom_site_label
_atom_site_type_symbol
_atom_type_description
_atom_site_fract_x
_atom_site_fract_y
_atom_site_fract_z
_atom_type_partial_charge
C1    C     C_R   0.499961 0.262062 0.499992 0.768473
C2    C     C_R   0.069889 0.600191 0.473007 -0.005023
C3    C     C_R   0.519022 0.499148 0.651129 0.875372
C4    C     C_R   0.480400 0.500745 0.348832 0.857247
C5    C     C_R   0.529582 0.503329 0.737353 -0.188802
C6    C     C_R   0.464597 0.500699 0.262423 -0.222982
C7    C     C_R   0.411774 0.466832 0.774814 -0.404683
C8    C     C_R   0.585377 0.489966 0.222453 -0.380584
C9    C     C_R   0.410598 0.473313 0.855734 0.445758
C10   C     C_R   0.575577 0.486570 0.141150 0.448520
C11   C     C_R   0.525253 0.530756 0.900524 0.153494
C12   C     C_R   0.500025 0.737946 0.499947 0.797741
C13   C     C_R   0.443448 0.506079 0.097564 0.135429
C14   C     C_R   0.642883 0.572218 0.862626 -0.232265
C15   C     C_R   0.320444 0.521452 0.136928 -0.224729
C16   C     C_R   0.650183 0.548059 0.782100 0.383363
C17   C     C_R   0.330605 0.510208 0.219417 0.370460
C18   C     C_R   0.372091 0.063881 0.499052 -0.190621
C19   C     C_R   0.627853 0.936151 0.500725 -0.171306
C20   C     C_3   0.721055 0.341579 0.097922 0.070695
C21   C     C_3   0.850199 0.321669 0.053447 -0.728032
C22   C     C_3   0.284738 0.304938 0.889557 0.084553
C23   C     C_R   0.372109 0.936176 0.499059 -0.176519
C24   C     C_3   0.163015 0.262479 0.934930 -0.735981
C25   C     C_2   0.756481 0.645895 0.905627 0.887416
C26   C     C_2   0.181140 0.553451 0.093473 0.890021
C27   C     C_3   0.885629 0.497531 0.780469 0.129310
C28   C     C_3   0.963615 0.440263 0.716710 -0.770094
C29   C     C_3   0.153489 0.389391 0.257624 0.120643
C30   C     C_3   0.005825 0.392691 0.284633 -0.743849
C31   C     C_R   0.627839 0.063852 0.500728 -0.185426
C32   C     C_R   0.499993 0.871794 0.499909 -0.013273
C33   C     C_R   0.499965 0.128229 0.499923 -0.013831
C34   C     C_R   0.078616 0.399198 0.526017 -0.048068
C35   C     C_R   0.921270 0.600324 0.473152 -0.017095
C36   C     C_R   0.929901 0.398736 0.525116 -0.045365
Cu1   Cu    Cu3+1 0.640660 0.500020 0.500000 0.961563
Cu2   Cu    Cu3+1 0.359340 0.499980 0.500000 0.957222
H1    H     H_    0.688402 0.480193 0.254321 0.199620
H2    H     H_    0.121602 0.680210 0.450604 0.130878
H3    H     H_    0.629219 0.295895 0.065002 0.133755
H4    H     H_    0.741189 0.297425 0.156906 0.127025
H5    H     H_    0.870775 0.221314 0.048502 0.185148
H6    H     H_    0.832337 0.362674 0.993678 0.258222
H7    H     H_    0.943994 0.365507 0.084953 0.255866
H8    H     H_    0.384161 0.264142 0.918473 0.130894
H9    H     H_    0.266094 0.269315 0.828916 0.122284
H10   H     H_    0.062698 0.305088 0.909393 0.245432
H11   H     H_    0.152990 0.160485 0.932057 0.190151
H12   H     H_    0.318972 0.431457 0.741050 0.189903
H13   H     H_    0.182659 0.289125 0.997273 0.254390
H14   H     H_    0.894363 0.787037 0.902417 0.330471
H15   H     H_    0.987247 0.628184 0.097194 0.373109
H16   H     H_    0.852531 0.420578 0.818769 0.093746
H17   H     H_    0.961237 0.556787 0.816161 0.205781
H18   H     H_    0.999477 0.513433 0.677189 0.264388
H19   H     H_    0.056935 0.388318 0.743305 0.197423
H20   H     H_    0.892320 0.375197 0.683003 0.232374
H21   H     H_    0.220947 0.328535 0.298289 0.134160
H22   H     H_    0.145226 0.348528 0.198018 0.101883
H23   H     H_    0.272099 0.111907 0.498340 0.141541
H24   H     H_    0.937312 0.453441 0.244809 0.270548
H25   H     H_    0.960369 0.298262 0.283779 0.178044
H26   H     H_    0.009445 0.428522 0.345041 0.250963
H27   H     H_    0.727843 0.888131 0.501413 0.145815
H28   H     H_    0.272135 0.888175 0.498385 0.144257
H29   H     H_    0.727814 0.111848 0.501393 0.141209
H30   H     H_    0.137510 0.318759 0.547912 0.125271
H31   H     H_    0.862248 0.680544 0.450984 0.123559
H32   H     H_    0.878064 0.317577 0.545824 0.119745
N1    N     N_2   0.529907 0.546022 0.983142 -0.120694
N2    N     N_2   0.430019 0.498910 0.014819 -0.129367
N3    N     N_R   0.852070 0.500030 0.499980 -0.151773
N4    N     N_R   0.147930 0.499970 0.500020 -0.157830
O1    O     O_R   0.618740 0.319660 0.500000 -0.601463
O2    O     O_3   0.290499 0.435329 0.889156 -0.519813
O3    O     O_2   0.796525 0.621222 0.973769 -0.560135
O4    O     O_R   0.817912 0.744274 0.867567 -0.735792
O5    O     O_2   0.157547 0.531488 0.023799 -0.548186
O6    O     O_R   0.076820 0.611469 0.132388 -0.709620
O7    O     O_3   0.772460 0.571476 0.746005 -0.535736
O8    O     O_3   0.208970 0.510585 0.257931 -0.515209
O9    O     O_R   0.381260 0.680340 0.500000 -0.595601
O10   O     O_R   0.381170 0.319630 0.500010 -0.603861
O11   O     O_R   0.618830 0.680370 0.499990 -0.590592
O12   O     O_R   0.631780 0.498870 0.613920 -0.528557
O13   O     O_R   0.368220 0.501130 0.386080 -0.534850
O14   O     O_R   0.394210 0.498840 0.613930 -0.588678
O15   O     O_R   0.605790 0.501160 0.386070 -0.587618
O16   O     O_3   0.697446 0.469486 0.104471 -0.521231

loop_
_geom_bond_atom_site_label_1
_geom_bond_atom_site_label_2
_ccdc_geom_bond_type
C2    C35   A    
C30   H26   S    
Cu2   O9    S    
C22   O2    S    
C19   C31   A    
C20   H3    S    
C28   H18   S    
C27   H16   S    
C1    C33   S    
C4    O13   A    
C28   H19   S    
C1    O10   A    
C31   H29   S    
C29   C30   S    
C12   O11   A    
C25   O3    D    
C23   H28   S    
Cu1   O11   S    
C11   C14   A    
C11   N1    S    
C7    C9    A    
C17   O8    S    
C5    C16   A    
C21   H5    S    
C29   H21   S    
C31   C33   A    
C9    O2    S    
C2    N4    A    
C24   H13   S    
C22   H9    S    
Cu1   O1    S    
C30   H25   S    
C12   C32   S    
C3    O12   A    
H14   O4    S    
C19   C32   A    
C36   H32   S    
C21   H7    S    
C14   C16   A    
C18   C23   A    
C24   H10   S    
Cu1   O12   S    
C27   O7    S    
H15   O6    S    
C4    C6    S    
C34   H30   S    
C5    C7    A    
C15   C26   S    
C6    C8    A    
C20   O16   S    
C26   O6    S    
C25   O4    S    
C12   O9    A    
Cu2   O14   S    
C1    O1    A    
Cu1   Cu2   S    
C21   H6    S    
C29   H22   S    
C9    C11   A    
C10   O16   S    
C34   N4    A    
C22   H8    S    
C13   C15   A    
C22   C24   S    
C4    O15   A    
Cu2   N4    S    
C24   H11   S    
C15   C17   A    
C6    C17   A    
Cu1   N3    S    
C35   N3    A    
Cu2   O10   S    
C3    O14   A    
C7    H12   S    
C3    C5    S    
C10   C13   A    
C20   H4    S    
C18   H23   S    
C13   N2    S    
C28   H20   S    
C27   H17   S    
C26   O5    D    
Cu1   O15   S    
Cu2   O13   S    
C23   C32   A    
C30   H24   S    
C29   O8    S    
C16   O7    S    
C19   H27   S    
C34   C36   A    
C14   C25   S    
C18   C33   A    
C36   N3    A    
C2    H2    S    
N1    N2    D    
C20   C21   S    
C35   H31   S    
C8    C10   A    
C27   C28   S    
C8    H1    S    
