data_mof_unit_125.cif
_audit_creation_date              2012-12-10T17:48:48-0500
_audit_creation_method            fapswitch 2.2
_symmetry_space_group_name_H-M    P1
_symmetry_Int_Tables_number       1
_space_group_crystal_system       triclinic
_cell_length_a                    15.748863
_cell_length_b                    10.641809
_cell_length_c                    9.896134
_cell_angle_alpha                 92.169658
_cell_angle_beta                  90.036023
_cell_angle_gamma                 91.781677
_cell_volume                      1656.56338841

loop_
_atom_site_label
_atom_site_type_symbol
_atom_type_description
_atom_site_fract_x
_atom_site_fract_y
_atom_site_fract_z
_atom_type_partial_charge
C1    C     C_R   0.508417 0.259806 0.497021 0.879093
C2    C     C_R   0.586009 0.069093 0.845044 0.458459
C3    C     C_R   0.536260 0.961400 0.870022 0.326410
C4    C     C_R   0.338423 0.499429 0.499960 0.874222
C5    C     C_R   0.487184 0.902574 0.763234 0.283089
C6    C     C_R   0.497597 0.944575 0.629507 -0.035889
C7    C     C_R   0.533225 0.064313 0.612396 -0.035722
C8    C     C_R   0.517773 0.124164 0.490560 -0.139666
C9    C     C_R   0.488441 0.053842 0.374662 -0.115964
C10   C     C_R   0.458527 0.931500 0.388975 0.336526
C11   C     C_R   0.472735 0.872898 0.511690 -0.171029
C12   C     C_3   0.948169 0.415656 0.611727 -0.476434
C13   C     C_R   0.386806 0.338141 0.134248 -0.163687
C14   C     C_R   0.330287 0.258853 0.061207 -0.161384
C15   C     C_R   0.329945 0.258614 0.921412 -0.122709
C16   C     C_R   0.488784 0.739040 0.503270 0.912323
C17   C     C_R   0.385969 0.337872 0.853858 -0.137527
C18   C     C_R   0.443737 0.420431 0.924598 0.168524
C19   C     C_R   0.443918 0.420491 0.069285 0.193785
C20   C     C_R   0.554319 0.575159 0.074660 -0.067308
C21   C     C_R   0.554392 0.574956 0.931422 -0.110688
C22   C     C_R   0.661610 0.500077 0.499966 0.901659
C23   C     C_3   0.917100 0.493903 0.493573 0.171941
C24   C     C_3   0.046243 0.409119 0.608888 -0.233147
C25   C     C_3   0.048676 0.442432 0.350832 0.334669
C26   C     C_3   0.948792 0.431849 0.357692 -0.211297
C27   C     C_1   0.750361 0.497906 0.499515 -0.147383
C28   C     C_3   0.082663 0.492979 0.494027 0.104705
C29   C     C_2   0.083084 0.444730 0.747094 0.503199
C30   C     C_2   0.493183 0.100954 0.235609 0.589429
C31   C     C_2   0.082667 0.313243 0.311773 0.397250
C32   C     C_2   0.906637 0.484572 0.234894 0.552519
C33   C     C_3   0.954152 0.630046 0.513100 -0.403302
C34   C     C_3   0.051896 0.629418 0.517906 -0.365165
C35   C     C_1   0.825550 0.495823 0.497495 -0.061663
C36   C     C_1   0.174450 0.495271 0.497400 -0.095532
C37   C     C_1   0.249679 0.497371 0.499336 -0.128895
C38   C     C_R   0.582398 0.122148 0.717820 -0.367582
H1    H     H_    0.919786 0.318479 0.603566 0.184111
H2    H     H_    0.382067 0.330839 0.746587 0.202960
H3    H     H_    0.598584 0.636527 0.879965 0.155362
H4    H     H_    0.928174 0.330566 0.358906 0.127061
H5    H     H_    0.074776 0.670042 0.616960 0.162923
H6    H     H_    0.078461 0.692402 0.440163 0.211703
H7    H     H_    0.930164 0.674004 0.609003 0.185119
H8    H     H_    0.069804 0.534872 0.796128 0.074320
H9    H     H_    0.444197 0.074055 0.162048 0.098912
H10   H     H_    0.666321 0.198284 0.914802 0.337023
H11   H     H_    0.517977 0.826520 0.995109 0.337526
H12   H     H_    0.925526 0.458193 0.709365 0.199639
H13   H     H_    0.402726 0.827875 0.882055 0.340288
H14   H     H_    0.380225 0.803000 0.313933 0.341112
H15   H     H_    0.136179 0.534794 0.247373 0.366301
H16   H     H_    0.066783 0.232650 0.371720 0.018101
H17   H     H_    0.914059 0.583713 0.214295 0.085253
H18   H     H_    0.933387 0.689131 0.429636 0.174029
H19   H     H_    0.619632 0.207309 0.700429 0.183595
H20   H     H_    0.598483 0.636905 0.131036 0.168185
H21   H     H_    0.062806 0.309809 0.586021 0.153323
H22   H     H_    0.385314 0.330057 0.241085 0.193297
H23   H     H_    0.287341 0.195957 0.113538 0.185666
H24   H     H_    0.286346 0.196045 0.864708 0.177384
N1    N     N_R   0.499210 0.498800 0.142780 -0.113085
N2    N     N_R   0.499180 0.498720 0.857170 -0.112068
O1    O     O_R   0.500000 0.316780 0.614690 -0.644810
O2    O     O_2   0.554801 0.163443 0.199464 -0.487621
O3    O     O_3   0.636292 0.122074 0.947686 -0.649856
O4    O     O_3   0.538998 0.915015 0.998281 -0.712726
O5    O     O_3   0.422964 0.814911 0.787994 -0.738145
O6    O     O_3   0.419699 0.868746 0.279402 -0.764904
O7    O     O_3   0.073211 0.528238 0.250829 -0.752522
O8    O     O_2   0.126780 0.297467 0.211447 -0.527734
O9    O     O_2   0.863726 0.416052 0.158239 -0.559692
O10   O     O_R   0.499990 0.316750 0.385360 -0.615051
O11   O     O_R   0.377150 0.500020 0.614720 -0.609423
O12   O     O_R   0.377140 0.499990 0.385380 -0.646613
O13   O     O_R   0.500010 0.683250 0.614640 -0.560338
O14   O     O_R   0.500000 0.683220 0.385310 -0.599228
O15   O     O_R   0.622860 0.500010 0.614620 -0.628285
O16   O     O_R   0.622850 0.499980 0.385280 -0.588385
O17   O     O_2   0.127490 0.371814 0.805364 -0.544526
Zn1   Zn    Zn3+2 0.500010 0.500020 0.653130 0.969304
Zn2   Zn    Zn3+2 0.499990 0.499980 0.346870 0.986685

loop_
_geom_bond_atom_site_label_1
_geom_bond_atom_site_label_2
_ccdc_geom_bond_type
C25   C31   S    
C26   C32   S    
H11   O4    S    
C1    C8    S    
C33   H7    S    
C3    O4    S    
O10   Zn2   S    
C7    C8    A    
C13   H22   S    
C25   C28   S    
C12   C23   S    
C1    O10   A    
C36   C37   T    
C22   O15   A    
C16   O13   A    
C5    C6    A    
C18   C19   A    
C23   C26   S    
C24   C29   S    
C21   N2    A    
C5    O5    S    
O14   Zn2   S    
C15   H24   S    
C19   N1    A    
C8    C9    A    
C23   C33   S    
C1    O1    A    
C25   O7    S    
C9    C10   A    
C32   H17   S    
C33   H18   S    
C28   C34   S    
H10   O3    S    
C13   C14   A    
O16   Zn2   S    
O12   Zn2   S    
C17   C18   A    
C13   C19   A    
C30   H9    S    
C34   H6    S    
C2    O3    S    
C6    C11   A    
C27   C35   T    
C25   C26   S    
C14   H23   S    
N1    Zn2   S    
C17   H2    S    
C29   O17   D    
C38   H19   S    
C11   C16   S    
C2    C38   A    
C33   C34   S    
C4    C37   S    
N2    Zn1   S    
C30   O2    D    
C9    C30   S    
C21   H3    S    
C10   O6    S    
C31   O8    D    
C23   C35   S    
C22   C27   S    
C20   H20   S    
H15   O7    S    
C32   O9    D    
C26   H4    S    
C15   C17   A    
C34   H5    S    
C24   C28   S    
C3    C5    A    
O15   Zn1   S    
C12   H12   S    
O11   Zn1   S    
C6    C7    A    
C12   C24   S    
C29   H8    S    
C20   N1    A    
C2    C3    A    
C22   O16   A    
C18   N2    A    
O1    Zn1   S    
O13   Zn1   S    
C12   H1    S    
C24   H21   S    
C7    C38   A    
C16   O14   A    
C31   H16   S    
C4    O12   A    
H14   O6    S    
C10   C11   A    
C4    O11   A    
C20   C21   A    
C28   C36   S    
C14   C15   A    
H13   O5    S    
