data_mof_unit_216.cif
_audit_creation_date              2012-12-10T18:45:07-0500
_audit_creation_method            fapswitch 2.2
_symmetry_space_group_name_H-M    P1
_symmetry_Int_Tables_number       1
_space_group_crystal_system       triclinic
_cell_length_a                    10.803912
_cell_length_b                    9.828969
_cell_length_c                    10.710757
_cell_angle_alpha                 92.638351
_cell_angle_beta                  91.563318
_cell_angle_gamma                 90.064161
_cell_volume                      1135.75761222

loop_
_atom_site_label
_atom_site_type_symbol
_atom_type_description
_atom_site_fract_x
_atom_site_fract_y
_atom_site_fract_z
_atom_type_partial_charge
C1    C     C_R   0.259997 0.500901 0.505059 0.867515
C2    C     C_R   0.481816 0.503591 0.738305 0.874395
C3    C     C_R   0.608430 0.717403 0.121132 -0.106847
C4    C     C_R   0.476649 0.763266 0.901448 -0.089352
C5    C     C_R   0.606866 0.847344 0.074242 -0.168487
C6    C     C_R   0.534779 0.871887 0.968240 -0.137348
C7    C     C_R   0.487065 0.629365 0.943246 0.095873
C8    C     C_R   0.535235 0.611268 0.063009 0.100159
C9    C     C_R   0.502640 0.491462 0.122855 -0.247634
C10   C     C_R   0.451977 0.512349 0.870040 -0.271101
C11   C     C_R   0.440221 0.382631 0.054950 -0.046569
C12   C     C_R   0.740008 0.500446 0.494914 0.879851
C13   C     C_R   0.415413 0.393100 0.926783 -0.067888
C14   C     C_R   0.063481 0.380299 0.504301 -0.197329
C15   C     C_R   0.936381 0.380090 0.499612 -0.208718
C16   C     C_R   0.872557 0.503130 0.490984 -0.119971
C17   C     C_R   0.127515 0.504147 0.509505 -0.117693
C18   C     C_2   0.399807 0.258877 0.116205 0.527928
C19   C     C_2   0.346266 0.284717 0.850934 0.499746
C20   C     C_R   0.937592 0.627630 0.486540 0.116801
C21   C     C_R   0.062719 0.629137 0.511101 0.113793
C22   C     C_R   0.561645 0.077463 0.591894 -0.070271
C23   C     C_R   0.438137 0.068224 0.408533 -0.132204
C24   C     C_R   0.561107 0.933267 0.593335 0.131107
C25   C     C_R   0.440637 0.924097 0.405451 0.146518
C26   C     C_R   0.504719 0.496818 0.258711 0.884554
H1    H     H_    0.664196 0.701771 0.204595 0.136905
H2    H     H_    0.288002 0.312885 0.772070 0.052894
H3    H     H_    0.826676 0.736901 0.370092 0.187751
H4    H     H_    0.832282 0.796553 0.524257 0.199302
H5    H     H_    0.173321 0.753752 0.624806 0.199382
H6    H     H_    0.169364 0.791858 0.468981 0.204448
H7    H     H_    0.670902 0.938352 0.752163 0.149162
H8    H     H_    0.687087 0.800015 0.658811 0.214034
H9    H     H_    0.350324 0.914344 0.233980 0.179090
H10   H     H_    0.311943 0.792601 0.330186 0.201705
H11   H     H_    0.421430 0.785317 0.819114 0.177062
H12   H     H_    0.657845 0.929696 0.122614 0.140164
H13   H     H_    0.527614 0.974043 0.935279 0.182338
H14   H     H_    0.111210 0.283442 0.505464 0.179944
H15   H     H_    0.888497 0.283277 0.501085 0.174613
H16   H     H_    0.610057 0.137413 0.665142 0.143012
H17   H     H_    0.387227 0.120747 0.337546 0.159118
H18   H     H_    0.468751 0.190061 0.152878 0.033325
N1    N     N_R   0.500000 0.857200 0.500000 -0.097243
N2    N     N_R   0.500000 0.142810 0.500000 -0.105357
N3    N     N_3   0.882085 0.753313 0.450890 -0.441385
N4    N     N_3   0.118614 0.759257 0.543142 -0.437982
N5    N     N_3   0.621672 0.867323 0.694510 -0.428625
N6    N     N_3   0.386121 0.848749 0.300051 -0.400010
O1    O     O_R   0.316770 0.614620 0.499990 -0.646248
O2    O     O_2   0.357030 0.164219 0.871908 -0.595865
O3    O     O_R   0.683230 0.614620 0.500010 -0.649349
O4    O     O_R   0.316800 0.385290 0.500000 -0.617484
O5    O     O_R   0.683200 0.385290 0.500000 -0.616499
O6    O     O_R   0.500010 0.614690 0.316770 -0.594129
O7    O     O_R   0.499990 0.614690 0.683230 -0.608575
O8    O     O_R   0.500040 0.385360 0.316770 -0.634654
O9    O     O_R   0.499960 0.385360 0.683230 -0.623112
O10   O     O_2   0.289817 0.233524 0.125128 -0.569161
Zn1   Zn    Zn3+2 0.500000 0.653120 0.500000 0.938568
Zn2   Zn    Zn3+2 0.500000 0.346880 0.500000 0.956033

loop_
_geom_bond_atom_site_label_1
_geom_bond_atom_site_label_2
_ccdc_geom_bond_type
O8    Zn2   S    
C7    C10   A    
C1    O4    A    
C11   C18   S    
O7    Zn1   S    
C18   H18   S    
C11   C13   A    
C1    C17   S    
C12   O3    A    
O1    Zn1   S    
C16   C20   A    
C21   N4    S    
C3    C5    A    
H9    N6    S    
C3    H1    S    
C2    O7    A    
C23   H17   S    
C7    C8    A    
C23   N2    A    
C5    H12   S    
C20   C21   A    
C19   H2    S    
C9    C11   A    
C14   C17   A    
C22   H16   S    
O3    Zn1   S    
H3    N3    S    
C4    C7    A    
C12   C16   S    
C24   N1    A    
C18   O10   D    
C2    O9    A    
N2    Zn2   S    
C9    C26   S    
H5    N4    S    
C23   C25   A    
C5    C6    A    
C22   C24   A    
C12   O5    A    
C13   C19   S    
C14   H14   S    
C15   C16   A    
C20   N3    S    
O5    Zn2   S    
C25   N1    A    
H4    N3    S    
H6    N4    S    
H10   N6    S    
C4    H11   S    
C15   H15   S    
C4    C6    A    
C3    C8    A    
N1    Zn1   S    
C24   N5    S    
C6    H13   S    
C25   N6    S    
H8    N5    S    
C1    O1    A    
O4    Zn2   S    
C22   N2    A    
O6    Zn1   S    
H7    N5    S    
C19   O2    D    
C26   O8    A    
C17   C21   A    
C14   C15   A    
C26   O6    A    
C8    C9    A    
O9    Zn2   S    
C10   C13   A    
C2    C10   S    
