data_mof_unit_976.cif
_audit_creation_date              2013-03-05T15:44:28-0500
_audit_creation_method            fapswitch 2.2
_symmetry_space_group_name_H-M    P1
_symmetry_Int_Tables_number       1
_space_group_crystal_system       triclinic
_cell_length_a                    19.955037
_cell_length_b                    7.23134
_cell_length_c                    19.661324
_cell_angle_alpha                 90.003091
_cell_angle_beta                  98.296219
_cell_angle_gamma                 90.001245
_cell_volume                      2807.47162359

loop_
_atom_site_label
_atom_site_type_symbol
_atom_site_description
_atom_site_fract_x
_atom_site_fract_y
_atom_site_fract_z
_atom_type_partial_charge
O1    O     O_R   0.673210 0.377390 0.686390 -0.553452
O2    O     O_R   0.326790 0.622610 0.313610 -0.551853
O3    O     O_R   0.826790 0.877390 0.813610 -0.551851
O4    O     O_R   0.173210 0.122610 0.186390 -0.553469
O5    O     O_R   0.810750 0.706450 0.681250 -0.559751
O6    O     O_R   0.189250 0.293550 0.318750 -0.555397
O7    O     O_R   0.689250 0.206450 0.818750 -0.555432
O8    O     O_R   0.310750 0.793550 0.181250 -0.559757
C1    C     C_R   0.831147 0.538505 0.665450 0.812288
C2    C     C_R   0.168907 0.461421 0.334557 0.806723
C3    C     C_R   0.668911 0.038581 0.834562 0.806740
C4    C     C_R   0.331143 0.961491 0.165446 0.812252
O9    O     O_R   0.672750 0.707060 0.678240 -0.560180
O10   O     O_R   0.327250 0.292940 0.321760 -0.561544
O11   O     O_R   0.827250 0.207060 0.821760 -0.561553
O12   O     O_R   0.172750 0.792940 0.178240 -0.560184
O13   O     O_R   0.687800 0.877990 0.810580 -0.546715
O14   O     O_R   0.312200 0.122010 0.189420 -0.551531
O15   O     O_R   0.812200 0.377990 0.689420 -0.551542
O16   O     O_R   0.187800 0.622010 0.310580 -0.546685
C5    C     C_R   0.648311 0.540018 0.661242 0.817366
C6    C     C_R   0.351694 0.459982 0.338750 0.815680
C7    C     C_R   0.851693 0.040025 0.838752 0.815691
C8    C     C_R   0.148312 0.959974 0.161240 0.817378
O17   O     O_3   0.755100 0.544060 0.793420 -0.281105
O18   O     O_3   0.244900 0.455940 0.206580 -0.285428
O19   O     O_3   0.744900 0.044060 0.706580 -0.285411
O20   O     O_3   0.255100 0.955940 0.293420 -0.281069
V1    V     V_3+5 0.749050 0.818670 0.741950 1.145100
V2    V     V_3+5 0.250950 0.181330 0.258050 1.145386
V3    V     V_3+5 0.750950 0.318670 0.758050 1.145349
V4    V     V_3+5 0.249050 0.681330 0.241950 1.145124
C9    C     C_R   0.087562 0.956511 0.107109 -0.097928
C10   C     C_R   0.912456 0.043477 0.892866 -0.094184
C11   C     C_R   0.412460 0.456547 0.392859 -0.094179
C12   C     C_R   0.587557 0.543465 0.607116 -0.097909
C13   C     C_R   0.006160 0.222608 0.954960 -0.079381
C14   C     C_R   0.993871 0.777359 0.044998 -0.081391
C15   C     C_R   0.493852 0.722591 0.545034 -0.081334
C16   C     C_R   0.506179 0.277442 0.454926 -0.079351
C17   C     C_R   0.953283 0.203803 0.900465 -0.067654
C18   C     C_R   0.046742 0.796170 0.099499 -0.072383
C19   C     C_R   0.546725 0.703775 0.599532 -0.072315
C20   C     C_R   0.453300 0.296251 0.400433 -0.067626
C21   C     C_R   0.927081 0.899434 0.940732 -0.122232
C22   C     C_R   0.072944 0.100545 0.059237 -0.124683
C23   C     C_R   0.572951 0.399463 0.559222 -0.124652
C24   C     C_R   0.427073 0.600557 0.440747 -0.122213
C25   C     C_R   0.980170 0.918324 0.996264 0.083700
C26   C     C_R   0.019861 0.081647 0.003698 0.082737
C27   C     C_R   0.519867 0.418367 0.503685 0.082732
C28   C     C_R   0.480163 0.581662 0.496277 0.083688
H1    H     H_    0.104069 0.224038 0.063816 0.083931
H2    H     H_    0.895952 0.775947 0.936156 0.082891
H3    H     H_    0.395934 0.724019 0.436190 0.082890
H4    H     H_    0.604088 0.275996 0.563783 0.083924
H5    H     H_    0.035926 0.348534 0.959283 0.076224
H6    H     H_    0.964107 0.651429 0.040672 0.073259
H7    H     H_    0.464078 0.848498 0.540727 0.073304
H8    H     H_    0.535955 0.151539 0.459230 0.076242
C29   C     C_R   0.570695 0.168162 0.885285 -0.070747
C30   C     C_R   0.429074 0.830626 0.114066 -0.070850
C31   C     C_R   0.929035 0.669447 0.614017 -0.070851
C32   C     C_R   0.070710 0.331793 0.385293 -0.070667
C33   C     C_R   0.619997 0.029822 0.884606 -0.122517
C34   C     C_R   0.380895 0.971499 0.116204 -0.117245
C35   C     C_R   0.880909 0.528474 0.616217 -0.117294
C36   C     C_R   0.119992 0.470179 0.384599 -0.122603
C37   C     C_R   0.621864 0.882269 0.931099 -0.024671
C38   C     C_R   0.381403 0.124466 0.072349 -0.062774
C39   C     C_R   0.881487 0.375366 0.572439 -0.062729
C40   C     C_R   0.121843 0.617751 0.431080 -0.024497
C41   C     C_R   0.575208 0.871996 0.977989 0.050788
C42   C     C_R   0.428602 0.136401 0.026097 0.046698
C43   C     C_R   0.928685 0.363416 0.526187 0.046832
C44   C     C_R   0.075189 0.628009 0.477969 0.050792
C45   C     C_R   0.525927 0.011611 0.978927 0.022060
C46   C     C_R   0.478151 0.997585 0.025380 0.032340
C47   C     C_R   0.978177 0.502342 0.525405 0.032493
C48   C     C_R   0.025945 0.488307 0.478945 0.022105
C49   C     C_R   0.523762 0.163107 0.932657 -0.004777
C50   C     C_R   0.479534 0.844413 0.070741 -0.016078
C51   C     C_R   0.979510 0.655627 0.570712 -0.016012
C52   C     C_R   0.023811 0.336722 0.432706 -0.004738
C53   C     C_R   0.577176 0.722800 0.023676 -0.073985
C54   C     C_R   0.426660 0.285799 0.980558 -0.096639
C55   C     C_R   0.926804 0.213861 0.480727 -0.096363
C56   C     C_R   0.077124 0.777284 0.523618 -0.073823
C57   C     C_R   0.530641 0.708075 0.070552 0.326867
C58   C     C_R   0.473325 0.301331 0.933808 0.343945
C59   C     C_R   0.973448 0.198296 0.433948 0.343825
C60   C     C_R   0.030584 0.792038 0.570487 0.326814
H9    H     H_    0.568394 0.275562 0.846899 0.146632
H10   H     H_    0.427040 0.711693 0.146998 0.140501
H11   H     H_    0.926951 0.788484 0.646888 0.140508
H12   H     H_    0.068403 0.224502 0.346868 0.146762
H13   H     H_    0.659780 0.774966 0.930745 0.084898
H14   H     H_    0.344019 0.232947 0.073280 0.082497
H15   H     H_    0.844154 0.266781 0.573426 0.082555
H16   H     H_    0.159737 0.725105 0.430707 0.085029
H17   H     H_    0.615845 0.617559 0.023484 0.116950
H18   H     H_    0.388667 0.392550 0.981605 0.106568
H19   H     H_    0.888877 0.106987 0.481874 0.106693
H20   H     H_    0.115763 0.882592 0.523392 0.117022
H21   H     H_    0.056223 0.682733 0.135584 0.100237
H22   H     H_    0.943800 0.317239 0.864379 0.102484
H23   H     H_    0.443826 0.182841 0.364330 0.102478
H24   H     H_    0.556197 0.817188 0.635634 0.100251
N1    N     N_R   0.537634 0.556961 0.118607 0.077803
O21   O     O_R   0.556325 0.395047 0.099390 -0.375554
O22   O     O_R   0.539238 0.589051 0.183947 -0.353567
N2    N     N_R   0.467605 0.457009 0.887749 0.074620
O23   O     O_R   0.408018 0.519413 0.862405 -0.343459
O24   O     O_R   0.520651 0.554616 0.879786 -0.402008
N3    N     N_R   0.967800 0.042297 0.388013 0.074674
O25   O     O_R   0.908275 0.978535 0.363224 -0.343878
O26   O     O_R   0.020952 0.945594 0.379722 -0.402115
N4    N     N_R   0.037538 0.943277 0.618492 0.077755
O27   O     O_R   0.056233 0.105138 0.599233 -0.375744
O28   O     O_R   0.039103 0.911375 0.683837 -0.353567

loop_
_geom_bond_atom_site_label_1
_geom_bond_atom_site_label_2
_geom_bond_distance
_ccdc_geom_bond_type
O17   V3    1.769238 S    
C24   H3    1.084066 S    
C39   C43   1.403097 A    
O1    C5    1.342962 A    
C16   H8    1.083813 S    
C55   C59   1.404255 A    
O19   V1    1.769311 S    
O13   V1    1.993628 S    
O3    C7    1.342936 A    
C58   N2    1.438999 S    
C40   C44   1.403501 A    
O15   V3    1.993651 S    
N2    O24   1.300391 A    
C5    C12   1.493520 S    
C45   C46   1.415861 A    
O7    C3    1.330938 A    
C6    C11   1.493491 S    
C50   C57   1.418900 A    
C9    C18   1.412459 A    
C32   C36   1.404478 A    
O9    V1    1.997031 S    
C14   C18   1.397704 A    
N1    O22   1.301293 A    
O16   V4    1.993651 S    
O4    C8    1.342953 A    
C29   H9    1.079341 S    
N3    O25   1.301516 A    
C57   N1    1.438184 S    
O1    V3    1.985264 S    
C12   C23   1.405958 A    
O2    V4    1.985266 S    
O3    V1    1.985221 S    
C60   N4    1.438146 S    
C38   C42   1.403107 A    
C32   C52   1.413461 A    
N4    O27   1.301293 A    
C1    O15   1.328095 A    
C56   C60   1.403550 A    
C2    O16   1.328248 A    
N3    O26   1.300190 A    
O2    C6    1.342946 A    
C37   C41   1.403547 A    
O14   V2    1.993628 S    
C52   C59   1.421162 A    
C45   C49   1.420703 A    
C44   C56   1.400773 A    
C16   C20   1.397715 A    
C48   C52   1.420773 A    
O11   C7    1.327236 A    
C15   C28   1.398742 A    
C30   C50   1.413130 A    
O12   C8    1.327229 A    
C14   H6    1.083818 S    
C9    C22   1.405965 A    
C10   C17   1.412452 A    
C38   H14   1.084520 S    
O10   V2    1.997029 S    
C11   C24   1.405941 A    
N2    O23   1.301880 A    
C56   H20   1.084166 S    
O5    V1    2.005677 S    
C31   C35   1.405474 A    
O7    V3    2.005706 S    
C17   H22   1.083232 S    
C30   C34   1.405545 A    
C27   C28   1.417780 A    
O8    V4    2.005705 S    
C31   H11   1.080774 S    
C32   H12   1.079226 S    
C54   C58   1.404153 A    
C14   C25   1.398746 A    
C53   C57   1.403583 A    
O18   V4    1.769238 S    
C15   C19   1.397705 A    
C4    C34   1.485131 S    
O4    V2    1.985221 S    
C31   C51   1.413129 A    
C36   C40   1.401961 A    
C1    C35   1.485150 S    
O5    C1    1.331759 A    
C51   C60   1.418836 A    
C46   C50   1.419870 A    
C21   C25   1.413947 A    
O8    C4    1.331737 A    
C7    C10   1.493502 S    
C15   H7    1.083815 S    
O9    C5    1.327225 A    
C10   C21   1.405947 A    
C42   C54   1.400140 A    
C11   C20   1.412448 A    
C41   C53   1.400841 A    
C55   H19   1.084212 S    
C49   C58   1.420984 A    
C43   C55   1.400038 A    
O6    V2    2.005676 S    
C21   H2    1.084068 S    
C30   H10   1.080837 S    
C54   H18   1.084280 S    
C53   H17   1.084204 S    
C40   H16   1.084471 S    
C20   H23   1.083230 S    
C3    O13   1.328244 A    
C44   C48   1.411367 A    
O6    C2    1.330940 A    
C23   C27   1.413968 A    
O11   V3    1.997111 S    
C2    C36   1.483916 S    
O12   V4    1.997111 S    
C16   C27   1.398754 A    
C22   C26   1.413966 A    
C8    C9    1.493530 S    
O10   C6    1.327233 A    
O20   V2    1.769310 S    
C29   C49   1.413398 A    
N1    O21   1.301313 A    
C47   C51   1.419839 A    
C13   C26   1.398759 A    
C34   C38   1.403496 A    
C39   H15   1.084467 S    
C33   C37   1.402063 A    
C22   H1    1.084066 S    
C59   N3    1.439257 S    
C35   C39   1.403423 A    
C19   H24   1.083229 S    
C13   C17   1.397714 A    
C18   H21   1.083230 S    
N4    O28   1.301257 A    
C47   C48   1.415855 A    
C29   C33   1.404531 A    
C24   C28   1.413950 A    
C25   C26   1.417778 A    
C42   C46   1.410515 A    
C4    O14   1.328094 A    
C41   C45   1.411382 A    
C12   C19   1.412455 A    
C43   C47   1.410387 A    
C13   H5    1.083815 S    
C3    C33   1.483920 S    
C23   H4    1.084066 S    
C37   H13   1.084504 S    
