data_mof_unit_2913.cif
_audit_creation_date              2012-10-26T21:10:24-0400
_audit_creation_method            fapswitch 2.2
_symmetry_space_group_name_H-M    P1
_symmetry_Int_Tables_number       1
_space_group_crystal_system       triclinic
_cell_length_a                    10.854248
_cell_length_b                    10.9484
_cell_length_c                    9.679455
_cell_angle_alpha                 90.28227
_cell_angle_beta                  90.534972
_cell_angle_gamma                 89.597993
_cell_volume                      1150.18195107

loop_
_atom_site_label
_atom_site_type_symbol
_atom_type_description
_atom_site_fract_x
_atom_site_fract_y
_atom_site_fract_z
_atom_type_partial_charge
C1    C     C_R   0.494349 0.265492 0.499691 0.545377
C2    C     C_R   0.828464 0.347950 0.964175 -0.077443
C3    C     C_R   0.758364 0.243403 0.937269 0.128491
C4    C     C_R   0.262191 0.498445 0.499371 0.561485
C5    C     C_R   0.746680 0.199950 0.800810 -0.066341
C6    C     C_R   0.804952 0.260376 0.692978 -0.069063
C7    C     C_R   0.875088 0.365046 0.720233 0.080064
C8    C     C_2   0.457980 0.930435 0.400017 -0.093206
C9    C     C_2   0.511098 0.865648 0.501897 0.351590
C10   C     C_2   0.464352 0.064004 0.389057 0.092386
C11   C     C_2   0.480241 0.133893 0.502397 -0.029373
C12   C     C_R   0.210298 0.747123 0.051654 -0.145306
C13   C     C_2   0.437973 0.422130 0.921149 -0.033931
C14   C     C_2   0.432120 0.427027 0.076740 -0.020019
C15   C     C_R   0.501842 0.734390 0.500439 0.610791
C16   C     C_R   0.737472 0.496420 0.500635 0.552903
C17   C     C_R   0.196114 0.805102 0.179524 -0.078602
C18   C     C_R   0.150298 0.740555 0.292150 0.413421
C19   C     C_R   0.116366 0.617675 0.276116 0.066872
C20   C     C_R   0.129113 0.560412 0.146816 -0.148970
C21   C     C_R   0.176830 0.624905 0.035332 -0.125097
C22   C     C_R   0.932218 0.547572 0.393822 -0.134992
C23   C     C_R   0.871005 0.490396 0.501358 -0.024133
C24   C     C_R   0.937597 0.429575 0.606541 0.017646
C25   C     C_R   0.066241 0.428672 0.603252 0.070578
C26   C     C_R   0.128005 0.493382 0.498165 0.029250
C27   C     C_R   0.059587 0.550814 0.391336 -0.004319
C28   C     C_R   0.886532 0.408469 0.856414 -0.094410
Cu1   Cu    Cu3+1 0.500020 0.500020 0.638630 0.967449
Cu2   Cu    Cu3+1 0.499980 0.499980 0.361370 0.959135
F1    F     F_    0.581176 0.917003 0.603570 -0.669793
F2    F     F_    0.136864 0.798120 0.415649 -0.639591
H1    H     H_    0.246363 0.797170 0.964948 0.140827
H2    H     H_    0.563052 0.552553 0.106820 0.207894
H3    H     H_    0.101913 0.466144 0.132521 0.109323
H4    H     H_    0.187063 0.580546 0.936013 0.130743
H5    H     H_    0.880312 0.593688 0.312848 0.139977
H6    H     H_    0.940322 0.489264 0.878888 0.115466
H7    H     H_    0.838202 0.382206 0.068865 0.124222
H8    H     H_    0.634488 0.240602 0.090079 0.250910
H9    H     H_    0.655327 0.104173 0.013260 0.224845
H10   H     H_    0.506219 0.074820 0.187370 0.230296
H11   H     H_    0.356217 0.096434 0.222441 0.216643
H12   H     H_    0.692796 0.119379 0.777884 0.155893
H13   H     H_    0.176579 0.412010 0.773792 0.239401
H14   H     H_    0.195052 0.298718 0.652561 0.241221
H15   H     H_    0.795411 0.225854 0.588378 0.121519
H16   H     H_    0.411455 0.882737 0.316283 0.098121
H17   H     H_    0.476957 0.094590 0.604692 0.151179
H18   H     H_    0.386223 0.350884 0.869048 0.136189
H19   H     H_    0.542914 0.569825 0.894989 0.215908
H20   H     H_    0.369368 0.365129 0.127056 0.154249
H21   H     H_    0.219976 0.900416 0.190960 0.116865
N1    N     N_2   0.498640 0.498660 0.846910 -0.346286
N2    N     N_2   0.498610 0.498630 0.153040 -0.347696
N3    N     N_3   0.701352 0.181618 0.049747 -0.612266
N4    N     N_3   0.445531 0.117600 0.255519 -0.612343
N5    N     N_3   0.131566 0.355225 0.703018 -0.629541
O1    O     O_R   0.500020 0.321960 0.617040 -0.525688
O2    O     O_R   0.499980 0.321920 0.382900 -0.451165
O3    O     O_R   0.319660 0.500030 0.617070 -0.508858
O4    O     O_R   0.319620 0.499990 0.382930 -0.499521
O5    O     O_R   0.500020 0.678080 0.617100 -0.456423
O6    O     O_R   0.499980 0.678040 0.382960 -0.530861
O7    O     O_R   0.680380 0.500010 0.617070 -0.484824
O8    O     O_R   0.680340 0.499970 0.382930 -0.509073

loop_
_geom_bond_atom_site_label_1
_geom_bond_atom_site_label_2
_ccdc_geom_bond_type
C12   C17   A    
C4    C26   S    
C15   O6    A    
C8    H16   S    
H9    N3    S    
C6    C7    A    
C11   H17   S    
Cu2   O6    S    
Cu1   Cu2   S    
C19   C27   S    
C3    N3    S    
C2    H7    S    
C19   C20   A    
C1    C11   S    
C28   H6    S    
C23   C24   A    
H19   N1    S    
Cu1   O5    S    
C14   N2    D    
C9    C15   S    
C17   H21   S    
H2    N2    S    
C21   H4    S    
C13   C14   S    
H14   N5    S    
C2    C28   A    
C25   N5    S    
C20   H3    S    
C26   C27   A    
Cu2   O8    S    
Cu1   O7    S    
C12   C21   A    
H10   N4    S    
C24   C25   A    
C6    H15   S    
C25   C26   A    
C5    H12   S    
C17   C18   A    
C16   C23   S    
C2    C3    A    
C22   C27   A    
Cu2   O4    S    
C5    C6    A    
Cu1   O3    S    
H13   N5    S    
C1    O2    A    
C16   O8    A    
C10   C11   D    
H11   N4    S    
Cu1   O1    S    
C13   H18   S    
C4    O4    A    
C10   N4    S    
C18   F2    S    
C20   C21   A    
C8    C10   S    
C13   N1    D    
Cu2   N2    S    
Cu1   N1    S    
C1    O1    A    
C9    F1    S    
C22   C23   A    
C18   C19   A    
C15   O5    A    
C16   O7    A    
H8    N3    S    
C12   H1    S    
C22   H5    S    
C4    O3    A    
C14   H20   S    
C7    C28   A    
C7    C24   S    
C8    C9    D    
C3    C5    A    
Cu2   O2    S    
