data_mof_unit_3681.cif
_audit_creation_date              2012-12-10T17:47:13-0500
_audit_creation_method            fapswitch 2.2
_symmetry_space_group_name_H-M    P1
_symmetry_Int_Tables_number       1
_space_group_crystal_system       triclinic
_cell_length_a                    11.696505
_cell_length_b                    14.701751
_cell_length_c                    14.6152
_cell_angle_alpha                 65.196633
_cell_angle_beta                  102.744249
_cell_angle_gamma                 102.555069
_cell_volume                      2202.94787164

loop_
_atom_site_label
_atom_site_type_symbol
_atom_type_description
_atom_site_fract_x
_atom_site_fract_y
_atom_site_fract_z
_atom_type_partial_charge
C1    C     C_R   0.480829 0.119644 0.311961 0.805965
C2    C     C_R   0.519371 0.880345 0.688034 0.807929
C3    C     C_R   0.463223 0.321855 0.997724 0.040485
C4    C     C_R   0.536366 0.677800 0.002137 0.124990
C5    C     C_R   0.505316 0.465944 0.051447 0.086812
C6    C     C_R   0.493693 0.533743 0.948335 0.079412
C7    C     C_R   0.452897 0.493703 0.872430 -0.273933
C8    C     C_R   0.546569 0.505952 0.127354 -0.314948
C9    C     C_R   0.436040 0.389921 0.895459 -0.049034
C10   C     C_R   0.564104 0.609770 0.104287 -0.010340
C11   C     C_R   0.684782 0.276078 0.680012 -0.111609
C12   C     C_R   0.312912 0.722811 0.321544 -0.088258
C13   C     C_R   0.656555 0.197801 0.644930 0.011625
C14   C     C_R   0.342020 0.801525 0.356034 0.007124
C15   C     C_R   0.521853 0.288312 0.506061 0.019823
C16   C     C_R   0.478600 0.711907 0.493650 0.023255
C17   C     C_R   0.545691 0.371628 0.536025 -0.038097
C18   C     C_R   0.453985 0.628255 0.464170 -0.049121
C19   C     C_R   0.625139 0.362522 0.627463 0.133021
C20   C     C_R   0.373476 0.636861 0.373408 0.143155
C21   C     C_R   0.490274 0.461453 0.480334 0.090872
C22   C     C_R   0.509416 0.538467 0.519809 0.093921
C23   C     C_R   0.284207 0.000384 0.500111 0.827000
C24   C     C_R   0.715793 0.999616 0.499888 0.823759
C25   C     C_R   0.581279 0.522235 0.614779 -0.265792
C26   C     C_R   0.417985 0.477576 0.385533 -0.282827
C27   C     C_R   0.638072 0.437083 0.666641 -0.156408
C28   C     C_R   0.360380 0.562320 0.334181 -0.103362
C29   C     C_1   0.162720 0.000959 0.500273 -0.159525
C30   C     C_1   0.837280 0.999040 0.499725 -0.160715
C31   C     C_1   0.060060 0.000487 0.500137 0.025145
C32   C     C_1   0.939939 0.999513 0.499861 0.024545
C33   C     C_R   0.473452 0.187094 0.203584 -0.099201
C34   C     C_R   0.526935 0.812822 0.796383 -0.051474
C35   C     C_R   0.469269 0.217317 0.025996 0.033520
C36   C     C_R   0.531466 0.782605 0.973747 0.020398
C37   C     C_R   0.471319 0.150960 0.128720 -0.181367
C38   C     C_R   0.530524 0.849046 0.871450 -0.275211
C39   C     C_R   0.478637 0.290417 0.176613 -0.221007
C40   C     C_R   0.520437 0.709355 0.823166 -0.224623
C41   C     C_R   0.483254 0.359832 0.075818 0.082747
C42   C     C_R   0.515826 0.639861 0.923976 0.053313
Cu1   Cu    Cu3+1 0.469550 0.918260 0.475690 0.959297
Cu2   Cu    Cu3+1 0.530450 0.081740 0.524310 0.958415
H1    H     H_    0.593442 0.573205 0.652887 0.134377
H2    H     H_    0.405559 0.426622 0.347385 0.136444
H3    H     H_    0.522372 0.684433 0.763956 0.144671
H4    H     H_    0.475905 0.315346 0.235653 0.148184
H5    H     H_    0.527246 0.928714 0.849732 0.163253
H6    H     H_    0.476011 0.071480 0.151063 0.191052
H7    H     H_    0.425807 0.541802 0.794266 0.138493
H8    H     H_    0.573785 0.457760 0.205465 0.136648
H9    H     H_    0.688763 0.429163 0.740235 0.192410
H10   H     H_    0.308949 0.570028 0.260883 0.207633
H11   H     H_    0.544786 0.714570 0.556901 0.127209
H12   H     H_    0.456591 0.286044 0.442169 0.127427
H13   H     H_    0.299248 0.868857 0.316136 0.128238
H14   H     H_    0.698713 0.130170 0.685279 0.129760
N1    N     N_R   0.576230 0.204580 0.560790 -0.177201
N2    N     N_R   0.423770 0.795420 0.439210 -0.176944
O1    O     O_R   0.459870 0.022090 0.338120 -0.586098
O2    O     O_R   0.540130 0.977910 0.661880 -0.586133
O3    O     O_R   0.511290 0.160150 0.379180 -0.589376
O4    O     O_R   0.488710 0.839850 0.620820 -0.591856
O5    O     O_R   0.311490 0.930960 0.479480 -0.569694
O6    O     O_R   0.688510 0.069040 0.520520 -0.568521
O7    O     O_R   0.362910 0.069020 0.520540 -0.568957
O8    O     O_R   0.637090 0.930980 0.479460 -0.569776
C43   C     C_2   0.373210 0.357485 0.811738 0.342885
H15   H     H_    0.386665 0.404974 0.733639 0.084001
O9    O     O_2   0.300140 0.281320 0.828109 -0.498975
C44   C     C_2   0.628308 0.642279 0.187646 0.454401
H16   H     H_    0.616418 0.594488 0.266050 0.073122
O10   O     O_2   0.700511 0.719019 0.170527 -0.532287
C45   C     C_2   0.490808 0.178209 0.953484 0.438688
H17   H     H_    0.527489 0.229490 0.884693 0.046406
O11   O     O_2   0.469603 0.087959 0.970512 -0.566572
C46   C     C_2   0.510691 0.824634 0.043895 0.444608
H18   H     H_    0.542048 0.903552 0.030801 0.118620
O12   O     O_2   0.452779 0.773506 0.113135 -0.570795
C47   C     C_2   0.777260 0.262866 0.770593 0.337944
H19   H     H_    0.788892 0.187178 0.826566 0.080931
O13   O     O_2   0.845971 0.334585 0.780716 -0.513595
C48   C     C_2   0.218310 0.734865 0.232551 0.415991
H20   H     H_    0.204669 0.810253 0.176878 0.089272
O14   O     O_2   0.150202 0.662420 0.223477 -0.525563

loop_
_geom_bond_atom_site_label_1
_geom_bond_atom_site_label_2
_ccdc_geom_bond_type
C40   H3    S    
C21   C26   A    
C4    C36   A    
Cu2   O6    S    
C45   H17   S    
C47   H19   S    
C1    C33   S    
C39   C41   A    
C38   H5    S    
C11   C47   S    
C11   C19   A    
C33   C39   A    
C34   C40   A    
C23   C29   S    
C35   C37   A    
C48   O14   D    
C5    C6    A    
C46   O12   D    
Cu2   N1    S    
C12   C48   S    
C7    C9    A    
C16   N2    A    
C23   O7    A    
C43   O9    D    
Cu1   O8    S    
C22   C25   A    
C19   C27   A    
C8    H8    S    
C24   O6    A    
C2    C34   S    
C40   C42   A    
C34   C38   A    
C21   C22   A    
C1    O3    A    
C47   O13   D    
C2    O4    A    
Cu1   O4    S    
C24   C30   S    
Cu2   O3    S    
C48   H20   S    
C44   O10   D    
C28   H10   S    
C46   H18   S    
C13   H14   S    
C20   C28   A    
Cu2   O2    S    
C33   C37   A    
Cu1   Cu2   S    
C3    C9    A    
C31   C32   S    
C3    C35   A    
Cu1   O5    S    
C35   C45   S    
C12   C20   A    
C45   O11   D    
Cu1   N2    S    
C16   C18   A    
C12   C14   A    
C4    C10   A    
C25   H1    S    
Cu1   O1    S    
C15   C17   A    
C14   H13   S    
C5    C41   A    
C3    C41   A    
C18   C22   A    
C15   N1    A    
C9    C43   S    
C44   H16   S    
C1    O1    A    
C5    C8    A    
C27   H9    S    
C6    C7    A    
C13   N1    A    
C25   C27   A    
C14   N2    A    
C26   C28   A    
C15   H12   S    
C23   O5    A    
C36   C38   A    
C16   H11   S    
C7    H7    S    
C29   C31   T    
C36   C46   S    
C30   C32   T    
C37   H6    S    
C11   C13   A    
C4    C42   A    
C17   C19   A    
C18   C20   A    
C43   H15   S    
C17   C21   A    
C24   O8    A    
C8    C10   A    
C6    C42   A    
Cu2   O7    S    
C26   H2    S    
C2    O2    A    
C39   H4    S    
C10   C44   S    
