data_mof_unit_152.cif
_audit_creation_date              2012-12-10T17:49:34-0500
_audit_creation_method            fapswitch 2.2
_symmetry_space_group_name_H-M    P1
_symmetry_Int_Tables_number       1
_space_group_crystal_system       triclinic
_cell_length_a                    10.65787
_cell_length_b                    10.711201
_cell_length_c                    10.120677
_cell_angle_alpha                 91.363472
_cell_angle_beta                  84.194724
_cell_angle_gamma                 97.946169
_cell_volume                      1138.34391176

loop_
_atom_site_label
_atom_site_type_symbol
_atom_type_description
_atom_site_fract_x
_atom_site_fract_y
_atom_site_fract_z
_atom_type_partial_charge
C1    C     C_R   0.511804 0.262537 0.496611 0.904793
C2    C     C_3   0.996021 0.536533 0.366653 0.463579
C3    C     C_3   0.043332 0.422767 0.424962 -0.201668
C4    C     C_3   0.122592 0.511178 0.515090 -0.214226
C5    C     C_R   0.645400 0.135461 0.685769 -0.134786
C6    C     C_R   0.642878 0.087052 0.812268 -0.202739
C7    C     C_R   0.552147 0.983920 0.852370 0.321979
C8    C     C_R   0.485007 0.911947 0.755082 0.359026
C9    C     C_R   0.516777 0.946290 0.619655 -0.038967
C10   C     C_R   0.569239 0.070791 0.593998 0.088600
C11   C     C_R   0.525212 0.130213 0.488711 -0.092044
C12   C     C_R   0.257688 0.502716 0.505950 0.951166
C13   C     C_R   0.466323 0.058152 0.389375 -0.092977
C14   C     C_R   0.450513 0.928709 0.396292 -0.060278
C15   C     C_R   0.480269 0.871631 0.509470 -0.070548
C16   C     C_R   0.323360 0.338638 0.163415 -0.127551
C17   C     C_R   0.207762 0.292832 0.121944 -0.190859
C18   C     C_R   0.184659 0.315388 0.994937 0.077201
C19   C     C_R   0.286658 0.348907 0.897083 0.455581
C20   C     C_R   0.404596 0.419729 0.939056 0.020575
C21   C     C_R   0.412262 0.418218 0.082132 0.048196
C22   C     C_R   0.581943 0.582997 0.061027 0.426941
C23   C     C_R   0.492383 0.738764 0.502874 0.917413
C24   C     C_R   0.582963 0.579030 0.920134 -0.119921
C25   C     C_R   0.743841 0.511531 0.493003 0.937716
C26   C     C_3   0.012066 0.503977 0.624572 0.401591
C27   C     C_3   0.932369 0.413682 0.535244 -0.350427
C28   C     C_3   0.883105 0.527133 0.477188 -0.223057
C29   C     C_3   0.963974 0.616460 0.565573 0.321109
C30   C     C_3   0.076909 0.625914 0.456050 -0.399633
H1    H     H_    0.876463 0.322230 0.565137 0.195593
H2    H     H_    0.411349 0.873226 0.315763 0.220744
H3    H     H_    0.335522 0.319005 0.263446 0.214376
H4    H     H_    0.135343 0.238590 0.187843 0.176057
H5    H     H_    0.092182 0.273234 0.971487 0.240641
H6    H     H_    0.649602 0.643814 0.859712 0.217059
H7    H     H_    0.139539 0.713860 0.424076 0.199166
H8    H     H_    0.073414 0.338731 0.372416 0.177708
H9    H     H_    0.430520 0.101601 0.308120 0.205816
H10   H     H_    0.696017 0.228274 0.665174 0.148492
H11   H     H_    0.694979 0.143204 0.884454 0.208986
N1    N     N_R   0.498800 0.498800 0.142780 -0.165917
N2    N     N_R   0.498760 0.498720 0.857170 -0.128126
O1    O     O_R   0.500000 0.316780 0.614690 -0.546608
O2    O     O_R   0.499990 0.316750 0.385360 -0.666734
O3    O     O_R   0.313960 0.499980 0.614650 -0.554473
O4    O     O_R   0.313940 0.499960 0.385310 -0.645149
O5    O     O_R   0.500010 0.683250 0.614640 -0.584589
O6    O     O_R   0.500000 0.683220 0.385310 -0.578998
O7    O     O_R   0.686060 0.500040 0.614690 -0.629085
O8    O     O_R   0.686040 0.500020 0.385350 -0.564662
Zn1   Zn    Zn3+2 0.500010 0.500020 0.653130 1.076609
Zn2   Zn    Zn3+2 0.499990 0.499980 0.346870 1.042900
S1    S     S_3+6 0.503705 0.974772 0.023877 0.050365
O9    O     O_2   0.450136 0.842384 0.062977 -0.245114
O10   O     O_2   0.614299 0.021741 0.101234 -0.300059
O11   O     O_3   0.390346 0.067812 0.059458 -0.497875
H12   H     H_    0.433279 0.152976 0.034472 0.349287
S2    S     S_3+6 0.333725 0.821182 0.800699 0.135808
O12   O     O_2   0.351971 0.698744 0.859976 -0.256814
O13   O     O_2   0.255384 0.891242 0.900899 -0.104264
O14   O     O_3   0.251936 0.792023 0.667644 -0.622942
H13   H     H_    0.198041 0.710813 0.687072 0.395392
S3    S     S_3+6 0.694489 0.701843 0.122477 0.153384
O15   O     O_2   0.633393 0.801462 0.200011 -0.231207
O16   O     O_2   0.771494 0.645012 0.212291 -0.195930
O17   O     O_3   0.794506 0.771978 0.998463 -0.410166
H14   H     H_    0.749113 0.837131 0.964130 0.373423
S4    S     S_3+6 0.272751 0.223307 0.778532 0.053143
O18   O     O_2   0.257369 0.264806 0.641600 -0.318791
O19   O     O_2   0.386795 0.157800 0.779711 -0.348226
O20   O     O_3   0.145898 0.114285 0.820816 -0.479809
H15   H     H_    0.145585 0.051251 0.747577 0.419221
S5    S     S_3+6 0.994939 0.468979 0.794654 0.097278
O21   O     O_2   0.979333 0.328261 0.806652 -0.334120
O22   O     O_2   0.109192 0.529683 0.858757 -0.194689
O23   O     O_3   0.863675 0.522278 0.867266 -0.436742
H16   H     H_    0.793360 0.454054 0.853322 0.343579
S6    S     S_3+6 0.921978 0.759112 0.643662 0.086292
O24   O     O_2   0.780085 0.753048 0.667705 -0.306752
O25   O     O_2   0.978413 0.779823 0.773832 -0.161778
O26   O     O_3   0.977502 0.881726 0.543493 -0.502502
H17   H     H_    0.069200 0.901077 0.555670 0.370215
S7    S     S_3+6 0.027260 0.571995 0.194281 0.147276
O27   O     O_2   0.941642 0.481190 0.117077 -0.188654
O28   O     O_2   0.008497 0.705569 0.169063 -0.138003
O29   O     O_3   0.179821 0.559201 0.144239 -0.515473
H18   H     H_    0.229851 0.633913 0.182210 0.379656

loop_
_geom_bond_atom_site_label_1
_geom_bond_atom_site_label_2
_ccdc_geom_bond_type
O29   H18   S    
C16   C21   A    
C2    S7    S    
C19   C20   A    
C1    C11   S    
S7    O29   S    
C7    C8    A    
O23   H16   S    
C25   C28   S    
C26   C27   S    
O14   H13   S    
S5    O22   D    
C28   C29   S    
S7    O28   D    
N1    Zn2   S    
C5    C6    A    
N2    Zn1   S    
C23   O6    A    
O3    Zn1   S    
C18   C19   A    
S4    O19   D    
C25   O7    A    
C3    H8    S    
C8    C9    A    
C6    H11   S    
O7    Zn1   S    
C4    C12   S    
C18   H5    S    
O4    Zn2   S    
O1    Zn1   S    
C15   C23   S    
O2    Zn2   S    
S2    O12   D    
C13   C14   A    
C12   O4    A    
S1    O10   D    
S2    O13   D    
S5    O21   D    
C27   H1    S    
O17   H14   S    
S3    O17   S    
S7    O27   D    
C12   O3    A    
S6    O25   D    
C16   C17   A    
S5    O23   S    
C21   N1    A    
C30   H7    S    
O8    Zn2   S    
S3    O16   D    
S4    O20   S    
C25   O8    A    
C29   C30   S    
C16   H3    S    
C1    O1    A    
C29   S6    S    
C17   C18   A    
C24   H6    S    
C22   C24   A    
C19   S4    S    
C17   H4    S    
C3    C4    S    
C20   N2    A    
C9    C10   A    
S1    O9    D    
S2    O14   S    
C23   O5    A    
C14   H2    S    
O20   H15   S    
S6    O26   S    
C4    C26   S    
C6    C7    A    
C2    C30   S    
S3    O15   D    
C3    C27   S    
C2    C3    S    
C9    C15   A    
C5    C10   A    
C8    S2    S    
C11   C13   A    
C1    O2    A    
O11   H12   S    
C22   N1    A    
O6    Zn2   S    
C26   S5    S    
S4    O18   D    
C13   H9    S    
C10   C11   A    
C22   S3    S    
S6    O24   D    
O5    Zn1   S    
C20   C21   A    
C26   C29   S    
O26   H17   S    
C5    H10   S    
C27   C28   S    
C24   N2    A    
C14   C15   A    
C2    C28   S    
C7    S1    S    
C4    C30   S    
S1    O11   S    
