data_mof_unit_2941.cif
_audit_creation_date              2012-12-10T21:10:03-0500
_audit_creation_method            fapswitch 2.2
_symmetry_space_group_name_H-M    P1
_symmetry_Int_Tables_number       1
_space_group_crystal_system       triclinic
_cell_length_a                    12.779594
_cell_length_b                    17.568533
_cell_length_c                    16.848378
_cell_angle_alpha                 88.690733
_cell_angle_beta                  96.845849
_cell_angle_gamma                 91.690812
_cell_volume                      3753.45914628

loop_
_atom_site_label
_atom_site_type_symbol
_atom_type_description
_atom_site_fract_x
_atom_site_fract_y
_atom_site_fract_z
_atom_type_partial_charge
C1    C     C_R   0.501454 0.353487 0.500832 0.871753
C2    C     C_R   0.506620 0.113954 0.503244 0.121156
C3    C     C_1   0.498661 0.966306 0.498919 -0.086968
C4    C     C_1   0.502591 0.033724 0.501070 -0.086994
C5    C     C_R   0.429585 0.452111 0.828794 -0.000533
C6    C     C_R   0.570443 0.547852 0.171202 -0.000523
C7    C     C_R   0.430636 0.452861 0.743907 0.079683
C8    C     C_R   0.569420 0.547089 0.256092 0.079668
C9    C     C_R   0.567600 0.547401 0.753124 -0.024521
C10   C     C_R   0.432310 0.452661 0.246872 -0.024463
C11   C     C_R   0.569028 0.548475 0.837082 -0.304486
C12   C     C_R   0.498578 0.646514 0.499169 0.871735
C13   C     C_R   0.430861 0.451594 0.162912 -0.304525
C14   C     C_R   0.500153 0.500735 0.875939 0.119591
C15   C     C_R   0.499795 0.499284 0.124055 0.119575
C16   C     C_R   0.298197 0.496479 0.484532 0.886463
C17   C     C_R   0.701805 0.503531 0.515472 0.886491
C18   C     C_1   0.501169 0.500986 0.963727 -0.055029
C19   C     C_1   0.498759 0.499040 0.036266 -0.055024
C20   C     C_R   0.813891 0.511576 0.524873 -0.072940
C21   C     C_R   0.186116 0.488430 0.475141 -0.072961
C22   C     C_R   0.024338 0.417563 0.438082 -0.228480
C23   C     C_R   0.495319 0.728811 0.498047 -0.055022
C24   C     C_R   0.975680 0.582423 0.561956 -0.228365
C25   C     C_R   0.133191 0.425403 0.435828 0.087497
C26   C     C_R   0.866839 0.574556 0.564269 0.087458
C27   C     C_R   0.133774 0.540654 0.515485 -0.315952
C28   C     C_R   0.866224 0.459370 0.484491 -0.315851
C29   C     C_R   0.027432 0.530951 0.519445 0.131664
C30   C     C_R   0.972572 0.469058 0.480553 0.131613
C31   C     C_R   0.531123 0.846701 0.566750 -0.202180
C32   C     C_R   0.469744 0.153272 0.433236 -0.202147
C33   C     C_R   0.531242 0.768173 0.567565 -0.224061
C34   C     C_R   0.504971 0.271200 0.501967 -0.055035
C35   C     C_R   0.469242 0.231792 0.432440 -0.224088
C36   C     C_3   0.805347 0.633427 0.603581 -0.392722
C37   C     C_3   0.870445 0.702232 0.639125 -0.366160
C38   C     C_3   0.800898 0.759264 0.673287 -0.902550
C39   C     C_3   0.194738 0.366434 0.396718 -0.392574
C40   C     C_3   0.129695 0.297492 0.361461 -0.366333
C41   C     C_3   0.199340 0.240269 0.327709 -0.902643
C42   C     C_3   0.414649 0.893710 0.351389 -0.425448
C43   C     C_3   0.375148 0.847000 0.277223 -0.364247
C44   C     C_3   0.337905 0.898850 0.206170 -0.880162
C45   C     C_R   0.454996 0.768122 0.428360 -0.226022
C46   C     C_3   0.586347 0.106434 0.648615 -0.425420
C47   C     C_3   0.625538 0.153186 0.722816 -0.364217
C48   C     C_3   0.662916 0.101394 0.793888 -0.880137
C49   C     C_3   0.353910 0.399684 0.869658 -0.431656
C50   C     C_3   0.258355 0.443068 0.889969 -0.321724
C51   C     C_3   0.183870 0.391081 0.932210 -0.888019
C52   C     C_3   0.646162 0.600240 0.130336 -0.431645
C53   C     C_3   0.741650 0.556800 0.109987 -0.321730
C54   C     C_3   0.816151 0.608744 0.067711 -0.887962
C55   C     C_R   0.354928 0.401951 0.696012 0.175063
C56   C     C_R   0.545469 0.231952 0.571650 -0.225997
C57   C     C_R   0.250078 0.423654 0.675446 -0.123952
C58   C     C_R   0.175452 0.372345 0.637795 -0.138877
C59   C     C_R   0.204515 0.298820 0.621426 -0.135425
C60   C     C_R   0.307397 0.275707 0.645094 -0.156321
C61   C     C_R   0.381656 0.326597 0.683855 -0.146189
C62   C     C_R   0.645208 0.597940 0.303987 0.175051
C63   C     C_R   0.750040 0.576174 0.324498 -0.124012
C64   C     C_R   0.824745 0.627433 0.362139 -0.138774
C65   C     C_R   0.795776 0.700968 0.378561 -0.135393
C66   C     C_R   0.692911 0.724143 0.354950 -0.156325
C67   C     C_R   0.455007 0.847898 0.426221 0.122367
C68   C     C_R   0.618572 0.673303 0.316196 -0.146126
C69   C     C_R   0.545833 0.152183 0.573774 0.122351
C70   C     C_R   0.494433 0.886074 0.496733 0.121187
H1    H     H_    0.822823 0.412229 0.454058 0.146664
H2    H     H_    0.440381 0.123049 0.379348 0.143580
H3    H     H_    0.560857 0.738260 0.622212 0.162735
H4    H     H_    0.439479 0.261653 0.377797 0.162750
H5    H     H_    0.423078 0.735838 0.376894 0.141882
H6    H     H_    0.577239 0.264279 0.623123 0.141932
H7    H     H_    0.747821 0.785950 0.624255 0.268254
H8    H     H_    0.753335 0.730804 0.717021 0.255715
H9    H     H_    0.851106 0.804880 0.704111 0.251659
H10   H     H_    0.930193 0.682477 0.688075 0.221931
H11   H     H_    0.910990 0.731990 0.591962 0.222219
H12   H     H_    0.177169 0.587808 0.545889 0.146655
H13   H     H_    0.742128 0.654996 0.558243 0.202164
H14   H     H_    0.767727 0.604416 0.652463 0.205451
H15   H     H_    0.246966 0.268518 0.283888 0.255788
H16   H     H_    0.252358 0.213831 0.376946 0.268405
H17   H     H_    0.149196 0.194508 0.297104 0.251717
H18   H     H_    0.089046 0.267964 0.408709 0.222236
H19   H     H_    0.070036 0.317048 0.312347 0.221917
H20   H     H_    0.232340 0.395295 0.347738 0.205258
H21   H     H_    0.257985 0.345023 0.442131 0.202212
H22   H     H_    0.271952 0.933983 0.220369 0.260228
H23   H     H_    0.620728 0.585108 0.724652 0.124264
H24   H     H_    0.403723 0.936913 0.190667 0.259499
H25   H     H_    0.309785 0.863662 0.153560 0.248856
H26   H     H_    0.439935 0.812037 0.260549 0.216832
H27   H     H_    0.307980 0.808922 0.290158 0.223649
H28   H     H_    0.349162 0.929225 0.365976 0.206528
H29   H     H_    0.479633 0.932727 0.335929 0.204252
H30   H     H_    0.597232 0.063167 0.809323 0.259493
H31   H     H_    0.729072 0.066438 0.779748 0.260236
H32   H     H_    0.690790 0.136608 0.846530 0.248829
H33   H     H_    0.692572 0.191427 0.709950 0.223642
H34   H     H_    0.379118 0.415005 0.275342 0.124252
H35   H     H_    0.560554 0.187982 0.739443 0.216835
H36   H     H_    0.521522 0.067242 0.664019 0.204290
H37   H     H_    0.652034 0.071104 0.634050 0.206486
H38   H     H_    0.154180 0.343048 0.893241 0.264175
H39   H     H_    0.225214 0.368166 0.989105 0.257131
H40   H     H_    0.115564 0.423911 0.946006 0.248170
H41   H     H_    0.284492 0.491461 0.929467 0.228057
H42   H     H_    0.214557 0.466499 0.834316 0.215132
H43   H     H_    0.325681 0.350294 0.832495 0.207376
H44   H     H_    0.395968 0.374068 0.924970 0.206721
H45   H     H_    0.623934 0.586672 0.871574 0.150081
H46   H     H_    0.774800 0.631653 0.010813 0.257124
H47   H     H_    0.845886 0.656783 0.106657 0.264162
H48   H     H_    0.884427 0.575882 0.053910 0.248165
H49   H     H_    0.785460 0.533355 0.165627 0.215120
H50   H     H_    0.715441 0.508415 0.070500 0.228062
H51   H     H_    0.604113 0.625892 0.075040 0.206729
H52   H     H_    0.674464 0.649607 0.167511 0.207353
H53   H     H_    0.226450 0.480355 0.688229 0.120342
H54   H     H_    0.095056 0.389560 0.621417 0.149011
H55   H     H_    0.146869 0.259394 0.591689 0.131967
H56   H     H_    0.375887 0.413445 0.128417 0.150108
H57   H     H_    0.329192 0.218068 0.634516 0.145274
H58   H     H_    0.459682 0.307397 0.705425 0.111475
H59   H     H_    0.773594 0.519465 0.311677 0.120281
H60   H     H_    0.905129 0.610175 0.378468 0.149009
H61   H     H_    0.853484 0.740355 0.408289 0.131962
H62   H     H_    0.671191 0.781791 0.365562 0.145317
H63   H     H_    0.540562 0.692551 0.294663 0.111513
H64   H     H_    0.979063 0.371036 0.408778 0.132001
H65   H     H_    0.020962 0.628941 0.591270 0.131978
H66   H     H_    0.560601 0.876886 0.620636 0.143513
N1    N     N_R   0.500030 0.500030 0.707230 -0.111939
N2    N     N_R   0.499970 0.499970 0.292770 -0.111944
O1    O     O_R   0.500000 0.389130 0.566570 -0.615398
O2    O     O_R   0.500000 0.610870 0.433430 -0.615412
O3    O     O_R   0.499990 0.389100 0.433480 -0.627613
O4    O     O_R   0.500010 0.610900 0.566520 -0.627628
O5    O     O_R   0.346360 0.500000 0.555540 -0.609014
O6    O     O_R   0.653640 0.500000 0.444460 -0.608970
O7    O     O_R   0.346350 0.499970 0.422460 -0.633338
O8    O     O_R   0.653650 0.500030 0.577540 -0.633393
Zn1   Zn    Zn3+2 0.500000 0.500020 0.588860 0.938282
Zn2   Zn    Zn3+2 0.500000 0.499980 0.411140 0.938309

loop_
_geom_bond_atom_site_label_1
_geom_bond_atom_site_label_2
_ccdc_geom_bond_type
C66   C68   A    
C35   H4    S    
C34   C56   A    
C16   C21   S    
C23   C45   A    
C27   C29   A    
C14   C18   S    
C49   H43   S    
C7    C55   S    
O6    Zn2   S    
C5    C49   S    
O2    Zn2   S    
C53   H50   S    
C32   H2    S    
C53   C54   S    
O5    Zn1   S    
C41   H16   S    
C12   C23   S    
O1    Zn1   S    
C37   C38   S    
C22   H64   S    
C17   O6    A    
C56   H6    S    
C8    N2    A    
C36   C37   S    
C24   C26   A    
C34   C35   A    
C42   H28   S    
C11   C14   A    
C38   H9    S    
C36   H13   S    
C55   C61   A    
C17   C20   S    
C2    C32   A    
C18   C19   T    
C24   C29   A    
C46   C69   S    
O3    Zn2   S    
C6    C15   A    
C15   C19   S    
C52   H52   S    
C31   C70   A    
N2    Zn2   S    
C51   H38   S    
C23   C33   A    
C22   C25   A    
C54   H46   S    
C45   C67   A    
C12   O2    A    
C40   H19   S    
C2    C69   A    
C11   H45   S    
C39   H20   S    
C44   H22   S    
C49   H44   S    
C21   C27   A    
C59   C60   A    
C51   H39   S    
C37   H11   S    
C9    N1    A    
C41   H17   S    
C39   H21   S    
C65   H61   S    
C1    C34   S    
C43   H26   S    
C66   H62   S    
C60   H57   S    
C48   H30   S    
C37   H10   S    
C47   H33   S    
C32   C35   A    
C16   O5    A    
C44   H24   S    
C39   C40   S    
C5    C7    A    
C6    C8    A    
C38   H8    S    
C47   H35   S    
C58   C59   A    
C16   O7    A    
C2    C4    S    
C43   C44   S    
C62   C63   A    
C57   H53   S    
C52   H51   S    
C47   C48   S    
C48   H32   S    
C46   H37   S    
C3    C70   S    
C31   C33   A    
C50   C51   S    
C9    C11   A    
C5    C14   A    
C13   H56   S    
C24   H65   S    
C26   C36   S    
C40   C41   S    
C64   H60   S    
C49   C50   S    
C51   H40   S    
C13   C15   A    
C42   C67   S    
C28   H1    S    
C42   C43   S    
C3    C4    T    
C54   H48   S    
C9    H23   S    
O7    Zn2   S    
C41   H15   S    
C52   C53   S    
C7    N1    A    
O8    Zn1   S    
C33   H3    S    
C21   C25   A    
C46   C47   S    
C68   H63   S    
C22   C30   A    
O4    Zn1   S    
N1    Zn1   S    
C27   H12   S    
C43   H27   S    
C31   H66   S    
C10   C13   A    
C1    O1    A    
C53   H49   S    
C38   H7    S    
C59   H55   S    
C20   C28   A    
C58   H54   S    
C62   C68   A    
C45   H5    S    
C67   C70   A    
C64   C65   A    
C40   H18   S    
C55   C57   A    
C50   H42   S    
C28   C30   A    
C65   C66   A    
C44   H25   S    
C42   H29   S    
C25   C39   S    
C57   C58   A    
C20   C26   A    
C36   H14   S    
C48   H31   S    
C46   H36   S    
C10   H34   S    
C50   H41   S    
C12   O4    A    
C17   O8    A    
C61   H58   S    
C63   H59   S    
C1    O3    A    
C29   C30   A    
C63   C64   A    
C56   C69   A    
C54   H47   S    
C60   C61   A    
C10   N2    A    
C6    C52   S    
C8    C62   S    
