data_mof_unit_3484.cif
_audit_creation_date              2012-12-11T16:17:00-0500
_audit_creation_method            fapswitch 2.2
_symmetry_space_group_name_H-M    P1
_symmetry_Int_Tables_number       1
_space_group_crystal_system       triclinic
_cell_length_a                    13.294042
_cell_length_b                    13.289636
_cell_length_c                    28.525188
_cell_angle_alpha                 90.038901
_cell_angle_beta                  89.940783
_cell_angle_gamma                 120.045014
_cell_volume                      4362.46413144

loop_
_atom_site_label
_atom_site_type_symbol
_atom_type_description
_atom_site_fract_x
_atom_site_fract_y
_atom_site_fract_z
_atom_type_partial_charge
C1    C     C_R   0.439070 0.549995 0.316402 0.538322
C2    C     C_R   0.549713 0.439165 0.683719 0.534945
C3    C     C_R   0.560967 0.110910 0.816366 0.540124
C4    C     C_R   0.889513 0.450355 0.683727 0.535257
C5    C     C_1   0.061025 0.524518 0.361855 -0.009278
C6    C     C_1   0.464409 0.939683 0.138363 -0.019984
C7    C     C_1   0.475359 0.536579 0.361865 -0.009142
C8    C     C_1   0.059124 0.523143 0.138756 -0.012051
C9    C     C_1   0.463381 0.938904 0.361866 -0.009307
C10   C     C_1   0.476113 0.534888 0.138768 -0.008439
C11   C     C_1   0.524157 0.059387 0.861499 -0.013179
C12   C     C_R   0.110920 0.560889 0.183694 0.540790
C13   C     C_1   0.942840 0.466196 0.638885 -0.020405
C14   C     C_1   0.536932 0.473829 0.862144 -0.011684
C15   C     C_1   0.523486 0.057209 0.638890 -0.020348
C16   C     C_1   0.934549 0.463221 0.862440 -0.008964
C17   C     C_1   0.533984 0.476616 0.638876 -0.020564
C18   C     C_R   0.998958 0.391649 0.475800 0.287325
C19   C     C_R   0.377084 0.963281 0.023017 0.299070
C20   C     C_R   0.608347 0.607355 0.475788 0.287483
C21   C     C_R   0.053949 0.431881 0.021869 0.282562
C22   C     C_R   0.392759 0.001069 0.475902 0.287346
C23   C     C_R   0.449996 0.889102 0.316398 0.538896
C24   C     C_R   0.595216 0.617286 0.024175 0.293343
C25   C     C_R   0.381664 0.969140 0.973704 0.298043
C26   C     C_R   0.988801 0.386975 0.525065 0.285483
C27   C     C_R   0.597460 0.613001 0.974900 0.290828
C28   C     C_R   0.398319 0.011265 0.525164 0.285502
C29   C     C_R   0.046021 0.434540 0.972859 0.289163
C30   C     C_R   0.613143 0.601806 0.525042 0.285618
C31   C     C_R   0.016459 0.582209 0.525406 -0.188425
C32   C     C_R   0.587023 0.027804 0.976640 -0.184708
C33   C     C_R   0.417861 0.434171 0.525425 -0.188293
C34   C     C_R   0.439248 0.549703 0.183795 0.540276
C35   C     C_R   0.924185 0.522206 0.980797 -0.178806
C36   C     C_R   0.565737 0.983512 0.525343 -0.188388
C37   C     C_R   0.437723 0.412648 0.977193 -0.165438
C38   C     C_R   0.581723 0.019814 0.025208 -0.190851
C39   C     C_R   0.021971 0.584997 0.476766 -0.181873
C40   C     C_R   0.433640 0.418265 0.025722 -0.146803
C41   C     C_R   0.562926 0.977931 0.476704 -0.181735
C42   C     C_R   0.936801 0.525027 0.029259 -0.182651
C43   C     C_R   0.414935 0.436974 0.476788 -0.181642
C44   C     C_R   0.012636 0.490296 0.451813 0.006923
C45   C     C_R   0.110869 0.560890 0.316394 0.537578
C46   C     C_R   0.477701 0.988231 0.048510 -0.000660
C47   C     C_R   0.509596 0.522403 0.451811 0.006810
C48   C     C_R   0.002154 0.481007 0.049866 -0.019763
C49   C     C_R   0.477601 0.987291 0.451829 0.006914
C50   C     C_R   0.512484 0.519380 0.049293 -0.002257
C51   C     C_R   0.488043 0.002976 0.950728 -0.014541
C52   C     C_R   0.999018 0.483535 0.549675 0.004517
C53   C     C_R   0.519209 0.509016 0.951677 -0.024870
C54   C     C_R   0.484617 0.001024 0.549693 0.004457
C55   C     C_R   0.978888 0.477654 0.952613 -0.015159
C56   C     C_R   0.450209 0.889261 0.183679 0.539022
C57   C     C_R   0.516626 0.515396 0.549677 0.004351
C58   C     C_1   0.975062 0.476041 0.598954 -0.028751
C59   C     C_1   0.502683 0.028178 0.901552 -0.036872
C60   C     C_1   0.524161 0.498948 0.598951 -0.028950
C61   C     C_1   0.959817 0.471031 0.903112 -0.024905
C62   C     C_1   0.501131 0.024990 0.598965 -0.028808
C63   C     C_1   0.528742 0.494319 0.902469 -0.038717
C64   C     C_1   0.472025 0.968453 0.098053 -0.035605
C65   C     C_1   0.032606 0.503309 0.402230 -0.018551
C66   C     C_1   0.497735 0.526285 0.098656 -0.018328
C67   C     C_R   0.550162 0.438717 0.816504 0.540712
C68   C     C_1   0.470584 0.967307 0.402243 -0.018589
C69   C     C_1   0.027702 0.499438 0.098863 -0.039137
C70   C     C_1   0.496532 0.529377 0.402232 -0.018638
C71   C     C_3   0.097165 0.304954 0.448410 0.000214
C72   C     C_3   0.085105 0.200777 0.421445 -0.370869
C73   C     C_3   0.205243 0.829067 0.056296 -0.004410
C74   C     C_3   0.111616 0.817547 0.090178 -0.341787
C75   C     C_3   0.695134 0.792381 0.448460 0.000262
C76   C     C_3   0.799395 0.884611 0.421548 -0.370829
C77   C     C_3   0.040998 0.270643 0.054626 0.003479
C78   C     C_R   0.560886 0.110527 0.683727 0.534787
C79   C     C_3   0.110420 0.214691 0.070980 -0.354656
C80   C     C_3   0.207723 0.902983 0.448669 0.000299
C81   C     C_3   0.115424 0.915326 0.422102 -0.370972
C82   C     C_3   0.641746 0.791601 0.057702 -0.008172
C83   C     C_3   0.708983 0.865768 0.099565 -0.358283
C84   C     C_3   0.234331 0.843219 0.925921 -0.018567
C85   C     C_3   0.109314 0.805733 0.913246 -0.347440
C86   C     C_3   0.861117 0.211166 0.557007 -0.001289
C87   C     C_3   0.852328 0.130855 0.596786 -0.359266
C88   C     C_3   0.630304 0.765859 0.928363 -0.015273
C89   C     C_R   0.888615 0.450048 0.816443 0.538115
C90   C     C_3   0.725409 0.883992 0.911321 -0.356757
C91   C     C_3   0.350520 0.139040 0.557184 -0.001297
C92   C     C_3   0.279109 0.147857 0.597046 -0.359191
C93   C     C_3   0.208109 0.481057 0.930358 -0.002760
C94   C     C_3   0.247684 0.442357 0.887430 -0.359086
C95   C     C_3   0.788784 0.649814 0.556955 -0.001255
C96   C     C_3   0.868795 0.721109 0.596863 -0.359344
Cr1   Cr    Cr6+3 0.505050 0.756260 0.250000 1.019716
Cr2   Cr    Cr6+3 0.251210 0.494950 0.250000 1.029458
Cr3   Cr    Cr6+3 0.243740 0.748790 0.250000 1.024420
Cr4   Cr    Cr6+3 0.756260 0.505050 0.750000 1.023172
Cr5   Cr    Cr6+3 0.494950 0.251210 0.750000 1.025873
Cr6   Cr    Cr6+3 0.748790 0.243740 0.750000 1.023530
H1    H     H_    0.024437 0.656783 0.543995 0.124719
H2    H     H_    0.627022 0.965374 0.458363 0.118502
H3    H     H_    0.896995 0.563121 0.050598 0.147576
H4    H     H_    0.338181 0.372786 0.458529 0.118524
H5    H     H_    0.131154 0.304186 0.484017 0.161772
H6    H     H_    0.160739 0.385447 0.429559 0.127186
H7    H     H_    0.052282 0.199410 0.385527 0.167111
H8    H     H_    0.170726 0.205540 0.418897 0.110458
H9    H     H_    0.023309 0.119460 0.439907 0.150374
H10   H     H_    0.252698 0.789102 0.072963 0.119468
H11   H     H_    0.162346 0.780404 0.023801 0.144642
H12   H     H_    0.669486 0.056203 0.959290 0.132471
H13   H     H_    0.060661 0.854114 0.074180 0.168244
H14   H     H_    0.051900 0.724882 0.098677 0.110254
H15   H     H_    0.152193 0.865065 0.123156 0.171165
H16   H     H_    0.695820 0.827135 0.484091 0.161591
H17   H     H_    0.614746 0.775447 0.429604 0.127196
H18   H     H_    0.800833 0.853174 0.385605 0.167123
H19   H     H_    0.794723 0.965538 0.419061 0.110474
H20   H     H_    0.880612 0.904128 0.440012 0.150475
H21   H     H_    0.986216 0.219049 0.024385 0.145631
H22   H     H_    0.983615 0.266499 0.083919 0.126748
H23   H     H_    0.343305 0.367531 0.544026 0.124780
H24   H     H_    0.169539 0.266146 0.100023 0.169220
H25   H     H_    0.050377 0.125051 0.083592 0.098939
H26   H     H_    0.162298 0.210151 0.041389 0.170067
H27   H     H_    0.173230 0.868661 0.484299 0.161531
H28   H     H_    0.224337 0.839551 0.429561 0.127373
H29   H     H_    0.146597 0.948520 0.386174 0.167179
H30   H     H_    0.034423 0.829705 0.419581 0.110501
H31   H     H_    0.096191 0.976957 0.440846 0.150593
H32   H     H_    0.547220 0.748102 0.066373 0.113440
H33   H     H_    0.659328 0.849567 0.027083 0.146954
H34   H     H_    0.872314 0.555508 0.965228 0.156288
H35   H     H_    0.803340 0.915316 0.091396 0.148917
H36   H     H_    0.679109 0.927944 0.108255 0.106802
H37   H     H_    0.694499 0.809409 0.130517 0.177945
H38   H     H_    0.233458 0.773544 0.948050 0.087118
H39   H     H_    0.282360 0.850915 0.892986 0.133525
H40   H     H_    0.106598 0.873008 0.891085 0.171652
H41   H     H_    0.070169 0.722750 0.893448 0.105830
H42   H     H_    0.057718 0.793053 0.945601 0.169638
H43   H     H_    0.822957 0.158810 0.524713 0.164546
H44   H     H_    0.809330 0.252778 0.567253 0.121043
H45   H     H_    0.632304 0.975523 0.543868 0.124653
H46   H     H_    0.896568 0.182910 0.628469 0.177031
H47   H     H_    0.759989 0.070380 0.605723 0.110816
H48   H     H_    0.893976 0.079716 0.586317 0.154102
H49   H     H_    0.572717 0.779990 0.952655 0.099715
H50   H     H_    0.578501 0.715857 0.897460 0.129550
H51   H     H_    0.783586 0.873052 0.886459 0.168936
H52   H     H_    0.686001 0.929754 0.893135 0.103942
H53   H     H_    0.777327 0.937409 0.941554 0.158098
H54   H     H_    0.336365 0.177226 0.524918 0.164629
H55   H     H_    0.443992 0.190819 0.567342 0.121000
H56   H     H_    0.378093 0.332284 0.959544 0.152482
H57   H     H_    0.286883 0.103597 0.628707 0.177142
H58   H     H_    0.311156 0.240232 0.605974 0.110956
H59   H     H_    0.186269 0.106215 0.586668 0.153995
H60   H     H_    0.272863 0.503324 0.958905 0.158361
H61   H     H_    0.205569 0.561011 0.920388 0.095535
H62   H     H_    0.182725 0.417772 0.858892 0.162843
H63   H     H_    0.332177 0.514757 0.874937 0.087700
H64   H     H_    0.257645 0.366421 0.896194 0.169895
H65   H     H_    0.841361 0.664189 0.524702 0.164447
H66   H     H_    0.746993 0.556265 0.567059 0.120945
H67   H     H_    0.659312 0.039130 0.044627 0.118167
H68   H     H_    0.816522 0.713170 0.628505 0.176973
H69   H     H_    0.929020 0.689062 0.605806 0.110904
H70   H     H_    0.920167 0.814027 0.586528 0.154033
H71   H     H_    0.034467 0.661678 0.458486 0.118493
H72   H     H_    0.369274 0.343429 0.045007 0.145657
O1    O     O_R   0.530190 0.870330 0.301660 -0.508506
O2    O     O_R   0.870330 0.530190 0.698340 -0.514648
O3    O     O_R   0.469810 0.340140 0.801660 -0.505511
O4    O     O_R   0.659860 0.129670 0.698340 -0.514698
O5    O     O_R   0.494300 0.651190 0.297490 -0.491281
O6    O     O_R   0.156890 0.505700 0.202510 -0.487413
O7    O     O_R   0.348810 0.843110 0.297490 -0.490871
O8    O     O_R   0.494300 0.651190 0.202510 -0.497799
O9    O     O_R   0.156890 0.505700 0.297490 -0.492447
O10   O     O_R   0.348810 0.843110 0.202510 -0.490322
O11   O     O_R   0.651190 0.494300 0.797490 -0.487474
O12   O     O_R   0.340140 0.469810 0.198340 -0.504673
O13   O     O_R   0.505700 0.156890 0.702510 -0.494764
O14   O     O_R   0.843110 0.348810 0.797490 -0.486821
O15   O     O_R   0.651190 0.494300 0.702510 -0.494775
O16   O     O_R   0.505700 0.156890 0.797490 -0.485554
O17   O     O_R   0.843110 0.348810 0.702510 -0.494267
O18   O     O_3   0.333333 0.666667 0.250000 -0.243182
O19   O     O_3   0.666667 0.333333 0.750000 -0.241518
O20   O     O_3   0.987441 0.296952 0.451101 -0.552216
O21   O     O_3   0.279019 0.948032 0.046229 -0.531394
O22   O     O_3   0.703033 0.690580 0.451080 -0.552009
O23   O     O_R   0.129670 0.659860 0.301660 -0.508609
O24   O     O_3   0.118138 0.387282 0.041827 -0.547425
O25   O     O_3   0.309661 0.012691 0.451292 -0.552070
O26   O     O_3   0.680800 0.712625 0.047865 -0.535097
O27   O     O_3   0.284465 0.951747 0.949167 -0.526044
O28   O     O_3   0.979535 0.292668 0.549314 -0.559923
O29   O     O_3   0.681984 0.707725 0.950502 -0.530776
O30   O     O_3   0.313361 0.020575 0.549494 -0.559896
O31   O     O_3   0.098826 0.389243 0.944972 -0.538926
O32   O     O_3   0.707532 0.686912 0.549266 -0.559862
O33   O     O_R   0.530190 0.870330 0.198340 -0.516391
O34   O     O_R   0.340140 0.469810 0.301660 -0.509254
O35   O     O_R   0.129670 0.659860 0.198340 -0.515227
O36   O     O_R   0.870330 0.530190 0.801660 -0.508755
O37   O     O_R   0.469810 0.340140 0.698340 -0.514736
O38   O     O_R   0.659860 0.129670 0.801660 -0.508871

loop_
_geom_bond_atom_site_label_1
_geom_bond_atom_site_label_2
_ccdc_geom_bond_type
C84   O27   S    
C92   H59   S    
C79   H26   S    
Cr6   O19   S    
C19   O21   S    
C93   C94   S    
Cr1   O1    S    
C49   C68   S    
C71   H5    S    
C88   H49   S    
C18   O20   S    
C53   C63   S    
C73   C74   S    
C95   C96   S    
C18   C26   A    
C24   C27   A    
C21   O24   S    
C39   H71   S    
C93   O31   S    
C95   H66   S    
C85   H41   S    
C7    C70   T    
C83   H37   S    
C44   C65   S    
C19   C46   A    
C29   O31   S    
Cr1   O8    S    
C32   C51   A    
C20   C30   A    
Cr4   O19   S    
Cr5   O37   S    
C2    O37   A    
C76   H18   S    
C73   H10   S    
C92   H57   S    
C27   O29   S    
C76   H19   S    
C93   H60   S    
C91   H55   S    
C26   O28   S    
C12   O35   A    
C23   O7    A    
C37   C40   A    
C25   O27   S    
Cr3   O18   S    
C81   H29   S    
C15   C78   S    
C23   O1    A    
C93   H61   S    
C45   O23   A    
C30   O32   S    
C30   C57   A    
C82   H33   S    
C73   H11   S    
C94   H63   S    
C6    C64   T    
C4    C13   S    
C34   O12   A    
C1    O34   A    
C79   H25   S    
Cr1   O18   S    
Cr4   O15   S    
C96   H69   S    
Cr4   O2    S    
C14   C67   S    
C2    O15   A    
C32   C38   A    
C90   H52   S    
C77   O24   S    
C48   C69   S    
C91   O30   S    
C21   C48   A    
C37   C53   A    
C75   O22   S    
C95   O32   S    
C77   C79   S    
C72   H9    S    
C96   H70   S    
C16   C89   S    
C1    C7    S    
C71   H6    S    
C2    C17   S    
C88   H50   S    
C4    O17   A    
Cr2   O34   S    
C36   C41   A    
C75   H16   S    
C11   C59   T    
C86   H44   S    
C85   H42   S    
C41   C49   A    
C22   C28   A    
Cr5   O19   S    
C10   C66   T    
C24   C50   A    
C72   H8    S    
C80   H28   S    
C87   H46   S    
C35   C55   A    
C33   C43   A    
C22   O25   S    
C36   C54   A    
C84   C85   S    
C5    C65   T    
Cr5   O16   S    
C67   O3    A    
C3    O16   A    
C91   C92   S    
C28   C54   A    
C86   C87   S    
C9    C23   S    
C71   O20   S    
C13   C58   T    
C29   C55   A    
C80   O25   S    
C21   C29   A    
C87   H48   S    
Cr6   O14   S    
C46   C64   S    
C43   H4    S    
C28   O30   S    
C37   H56   S    
C82   H32   S    
C41   H2    S    
C75   C76   S    
C25   C51   A    
C47   C70   S    
C82   O26   S    
C77   H21   S    
C26   C52   A    
C36   H45   S    
C8    C12   S    
C74   H14   S    
Cr3   O23   S    
C33   H23   S    
Cr6   O17   S    
C8    C69   T    
C75   H17   S    
C10   C34   S    
C42   C48   A    
Cr1   O33   S    
C90   H51   S    
C50   C66   S    
C24   O26   S    
Cr3   O10   S    
C39   C44   A    
C52   C58   S    
C22   C49   A    
Cr2   O18   S    
C12   O6    A    
C79   H24   S    
C88   C90   S    
C73   O21   S    
C87   H47   S    
Cr6   O4    S    
C89   O14   A    
C51   C59   S    
C16   C61   T    
Cr2   O6    S    
C86   H43   S    
C94   H62   S    
C18   C44   A    
C83   H35   S    
C45   O9    A    
C38   H67   S    
Cr2   O9    S    
Cr3   O35   S    
C3    O38   A    
C74   H15   S    
C86   O28   S    
C72   H7    S    
C33   C57   A    
C80   H27   S    
C78   O4    A    
C6    C56   S    
C80   C81   S    
C81   H30   S    
C95   H65   S    
C35   H34   S    
C27   C53   A    
C81   H31   S    
C89   O36   A    
C3    C11   S    
C56   O10   A    
C31   C52   A    
C92   H58   S    
C76   H20   S    
Cr4   O11   S    
C9    C68   T    
C71   C72   S    
Cr2   O12   S    
C77   H22   S    
C40   H72   S    
C1    O5    A    
Cr6   O38   S    
C56   O33   A    
C5    C45   S    
C84   H39   S    
C40   C50   A    
C74   H13   S    
C55   C61   S    
Cr4   O36   S    
C35   C42   A    
C15   C62   T    
C31   C39   A    
C34   O8    A    
C85   H40   S    
C14   C63   T    
C83   H36   S    
C88   O29   S    
C19   C25   A    
C42   H3    S    
C94   H64   S    
C38   C46   A    
C20   C47   A    
Cr1   O5    S    
C17   C60   T    
C57   C60   S    
C91   H54   S    
C84   H38   S    
C82   C83   S    
C4    O2    A    
C54   C62   S    
Cr3   O7    S    
C96   H68   S    
C78   O13   A    
C32   H12   S    
C90   H53   S    
Cr5   O13   S    
C43   C47   A    
C20   O22   S    
Cr5   O3    S    
C67   O11   A    
C31   H1    S    
