data_mof_unit_4946.cif
_audit_creation_date              2013-03-05T16:12:14-0500
_audit_creation_method            fapswitch 2.2
_symmetry_space_group_name_H-M    P1
_symmetry_Int_Tables_number       1
_space_group_crystal_system       triclinic
_cell_length_a                    10.75045
_cell_length_b                    9.400789
_cell_length_c                    27.815369
_cell_angle_alpha                 89.982847
_cell_angle_beta                  89.459011
_cell_angle_gamma                 89.91001
_cell_volume                      2810.96774175

loop_
_atom_site_label
_atom_site_type_symbol
_atom_site_description
_atom_site_fract_x
_atom_site_fract_y
_atom_site_fract_z
_atom_type_partial_charge
O1    O     O_R   0.317570 0.620260 0.500030 -0.601995
O2    O     O_R   0.317570 0.379740 0.500030 -0.604759
C1    C     C_R   0.259936 0.500232 0.501653 0.784883
O3    O     O_R   0.499900 0.620250 0.430280 -0.579726
O4    O     O_R   0.499900 0.379750 0.430280 -0.580842
C2    C     C_R   0.499002 0.500005 0.407471 0.895091
Cu1   Cu    Cu3+1 0.499860 0.642410 0.500020 0.936613
Cu2   Cu    Cu3+1 0.499860 0.357590 0.500020 0.943018
O5    O     O_R   0.682190 0.620260 0.500010 -0.581121
O6    O     O_R   0.682190 0.379740 0.500010 -0.563530
O7    O     O_R   0.499860 0.620280 0.569750 -0.598343
O8    O     O_R   0.499860 0.379720 0.569750 -0.597611
C3    C     C_R   0.740370 0.499953 0.498317 0.874575
C4    C     C_R   0.499617 0.499930 0.592558 0.839197
C5    C     C_R   0.389562 0.518807 0.179013 0.542313
O9    O     O_2   0.283234 0.535389 0.204629 -0.511607
N1    N     N_R   0.499916 0.500926 0.202302 -0.472545
C6    C     C_R   0.609254 0.483183 0.177514 0.545456
C7    C     C_R   0.489914 0.628955 0.279017 -0.092466
C8    C     C_R   0.489602 0.628880 0.329132 -0.173664
C9    C     C_R   0.510556 0.371768 0.328955 -0.151473
C10   C     C_R   0.511512 0.372275 0.278831 -0.084041
C11   C     C_R   0.500847 0.500748 0.253779 0.344413
C12   C     C_R   0.497795 0.501532 0.102163 -0.045927
C13   C     C_R   0.386418 0.519297 0.128573 -0.024323
C14   C     C_R   0.274399 0.535737 0.104234 -0.136526
C15   C     C_R   0.610259 0.483259 0.127029 -0.025725
C16   C     C_R   0.499578 0.500163 0.354563 -0.024101
H1    H     H_    0.518631 0.271053 0.347573 0.160659
H2    H     H_    0.519814 0.272873 0.259398 0.144173
H3    H     H_    0.187134 0.546987 0.123705 0.192926
C17   C     C_R   0.498178 0.499347 0.645470 -0.159037
C18   C     C_R   0.382894 0.530692 0.975443 -0.016779
C19   C     C_R   0.607100 0.474455 0.973906 0.053265
C20   C     C_R   0.494125 0.502502 0.949323 0.080730
C21   C     C_R   0.275067 0.566424 0.949482 -0.235489
C22   C     C_R   0.273220 0.567889 0.899489 0.431570
C23   C     C_R   0.381988 0.534150 0.872875 -0.117916
C24   C     C_R   0.492621 0.502320 0.898105 -0.090960
C25   C     C_R   0.602436 0.470348 0.872068 -0.017900
C26   C     C_R   0.600769 0.469616 0.821770 0.653976
N2    N     N_R   0.493328 0.498434 0.798005 -0.452096
C27   C     C_R   0.385544 0.531466 0.821984 0.699978
C28   C     C_R   0.475459 0.369766 0.720883 0.364932
C29   C     C_R   0.478619 0.371742 0.670624 -0.301508
C30   C     C_R   0.515947 0.625922 0.671153 -0.246651
C31   C     C_R   0.514859 0.625135 0.721272 0.404353
C32   C     C_R   0.494383 0.497455 0.746406 0.139871
O10   O     O_2   0.283056 0.560485 0.796222 -0.423148
C33   C     C_R   0.382859 0.524021 0.026557 0.068001
C34   C     C_R   0.496689 0.501948 0.051027 0.074105
C35   C     C_R   0.609400 0.480168 0.024987 0.044717
C36   C     C_R   0.272265 0.537339 0.054336 -0.193797
H4    H     H_    0.465066 0.273615 0.651030 0.189648
H5    H     H_    0.189659 0.597375 0.967075 0.170771
H6    H     H_    0.181265 0.546289 0.038793 0.143771
O11   O     O_2   0.716591 0.466201 0.201675 -0.505088
C37   C     C_R   0.721136 0.466589 0.101130 -0.134529
H7    H     H_    0.481054 0.729393 0.347893 0.151907
H8    H     H_    0.481712 0.728545 0.259727 0.143720
H9    H     H_    0.809153 0.454491 0.119384 0.191077
C38   C     C_R   0.714247 0.440401 0.946346 -0.181181
C39   C     C_R   0.711766 0.438887 0.896563 -0.079310
O12   O     O_2   0.705795 0.440541 0.796621 -0.476945
C40   C     C_R   0.721076 0.465522 0.051206 -0.194966
H10   H     H_    0.801870 0.411478 0.962017 0.150192
H11   H     H_    0.531756 0.725372 0.652388 0.191539
H12   H     H_    0.796714 0.412272 0.877270 0.212928
H13   H     H_    0.811212 0.455448 0.034362 0.143178
C41   C     C_3   0.070298 0.648614 0.515384 -0.361703
C42   C     C_3   0.069571 0.386840 0.535498 -0.383453
H14   H     H_    0.103300 0.731798 0.489836 0.207871
H15   H     H_    0.102476 0.278896 0.524931 0.177775
H16   H     H_    0.104235 0.678155 0.551729 0.169616
H17   H     H_    0.102659 0.407285 0.572660 0.177014
C43   C     C_3   0.927635 0.646365 0.515831 -0.395438
C44   C     C_3   0.926555 0.389653 0.534783 -0.419627
H18   H     H_    0.893552 0.665443 0.553230 0.171161
H19   H     H_    0.891467 0.418674 0.571299 0.176634
H20   H     H_    0.891588 0.736798 0.494501 0.232164
H21   H     H_    0.889916 0.281590 0.528369 0.226954
H22   H     H_    0.125944 0.540654 0.423450 0.195807
H23   H     H_    0.119057 0.359145 0.439031 0.163099
C45   C     C_3   0.080841 0.465230 0.449038 -0.426028
C46   C     C_3   0.122587 0.500640 0.500646 0.046390
C47   C     C_3   0.879022 0.500019 0.497262 -0.047251
C48   C     C_3   0.936224 0.468922 0.444898 0.658886
C49   C     C_3   0.617671 0.083583 0.520525 -0.182334
C50   C     C_3   0.618038 0.916005 0.520229 -0.182422
H24   H     H_    0.632408 0.123119 0.557729 0.145947
H25   H     H_    0.634017 0.875278 0.557218 0.145739
H26   H     H_    0.698057 0.120902 0.498677 0.217065
H27   H     H_    0.698070 0.879719 0.497831 0.177616
H28   H     H_    0.404330 0.123741 0.568586 0.150433
H29   H     H_    0.405723 0.877295 0.568832 0.156352
C51   C     C_3   0.397259 0.084058 0.531062 -0.188281
C52   C     C_3   0.397618 0.916269 0.531242 -0.186251
C53   C     C_3   0.485357 0.083614 0.451963 -0.182836
C54   C     C_3   0.484966 0.916368 0.451979 -0.186149
N3    N     N_3   0.500250 0.143650 0.501060 -0.130881
N4    N     N_3   0.500250 0.856350 0.501060 -0.129508
H30   H     H_    0.397388 0.123441 0.436002 0.141685
H31   H     H_    0.396563 0.877375 0.436236 0.145775
H32   H     H_    0.562380 0.121016 0.428239 0.196844
H33   H     H_    0.561560 0.878011 0.428106 0.185584
H34   H     H_    0.306097 0.121520 0.517427 0.141331
H35   H     H_    0.306335 0.878315 0.518002 0.143745
Cl1   Cl    Cl    0.540551 0.785453 0.752189 -0.439698
S1    S     S_3+6 0.895303 0.606880 0.401435 0.019724
O13   O     O_2   0.757875 0.634771 0.402359 -0.314418
O14   O     O_2   0.962656 0.743472 0.411583 -0.329995
O15   O     O_3   0.936330 0.553997 0.345729 -0.444271
H36   H     H_    0.901235 0.626931 0.323993 0.390203
S2    S     S_3+6 0.886312 0.300192 0.419007 0.028332
O16   O     O_2   0.749976 0.304721 0.408105 -0.264227
O17   O     O_2   0.955338 0.275257 0.372477 -0.219043
O18   O     O_3   0.914552 0.160384 0.455047 -0.588630
H37   H     H_    0.003852 0.137855 0.450344 0.347126
S3    S     S_3+6 0.449051 0.206471 0.750902 0.080149
O19   O     O_2   0.567590 0.159241 0.774258 -0.173926
O20   O     O_2   0.350488 0.224267 0.789117 -0.254397
O21   O     O_3   0.403905 0.080391 0.711891 -0.480026
H38   H     H_    0.318678 0.108278 0.702415 0.345118
Cl2   Cl    Cl    0.129346 0.614351 0.873452 -0.481263

loop_
_geom_bond_atom_site_label_1
_geom_bond_atom_site_label_2
_geom_bond_distance
_ccdc_geom_bond_type
C54   H31   1.112831 S    
C1    C46   1.477095 S    
C17   C29   1.403660 A    
C20   C24   1.424913 A    
C7    C8    1.393931 A    
C12   C15   1.408811 A    
S2    O16   1.500057 D    
Cu1   Cu2   2.677532 S    
Cu1   O7    1.950629 S    
N1    C11   1.432004 S    
C25   C39   1.395368 A    
H23   C45   1.112459 S    
C21   C22   1.390961 A    
C43   H18   1.114134 S    
S1    O14   1.503255 D    
C23   C24   1.418135 A    
O7    C4    1.296944 A    
C40   H13   1.076380 S    
C36   H6    1.076451 S    
C5    O9    1.350086 S    
C19   C38   1.413959 A    
C18   C21   1.411539 A    
Cu1   O5    1.970831 S    
C19   C20   1.423641 A    
C26   N2    1.363021 A    
O5    C3    1.292202 A    
C48   S2    1.825713 S    
C6    O11   1.350054 S    
C42   C46   1.549177 S    
C2    C16   1.471602 S    
C49   H26   1.109112 S    
C3    C47   1.490592 S    
C41   H16   1.113423 S    
C45   C48   1.560362 S    
C50   H25   1.112449 S    
C37   H9    1.083877 S    
C44   H19   1.113998 S    
C14   H3    1.083862 S    
C9    C10   1.394154 A    
C50   H27   1.110784 S    
O3    Cu1   1.951056 S    
O15   H36   0.990580 S    
N1    C6    1.367103 A    
S3    O20   1.502964 D    
C54   H33   1.112589 S    
C33   C36   1.417229 A    
C38   H10   1.076169 S    
C34   C35   1.420384 A    
C45   C46   1.544607 S    
O3    C2    1.296523 A    
S1    O15   1.682099 S    
C24   C25   1.411172 A    
C42   H15   1.112801 S    
C47   C48   1.602453 S    
C27   O10   1.347473 S    
C8    C16   1.405928 A    
C28   S3    1.769310 S    
C18   C33   1.423112 A    
C53   H30   1.112808 S    
C9    H1    1.082808 S    
O6    C3    1.293125 A    
O1    C1    1.288708 A    
C7    C11   1.399194 A    
C22   C23   1.413686 A    
C22   Cl2   1.768175 S    
C37   C40   1.388705 A    
C31   C32   1.405459 A    
C44   H21   1.105292 S    
Cu2   O8    1.950753 S    
C51   C52   1.577351 S    
C38   C39   1.385330 A    
C33   C34   1.420803 A    
N2    C32   1.435223 S    
C12   C13   1.408545 A    
C8    H7    1.082919 S    
H28   C51   1.111851 S    
C49   N3    1.488616 S    
C25   C26   1.399352 A    
C54   N4    1.487484 S    
C9    C16   1.405939 A    
C49   H24   1.112498 S    
C29   H4    1.082339 S    
C31   Cl1   1.758926 S    
H22   C45   1.112961 S    
C41   C43   1.533809 S    
N2    C27   1.366871 A    
C14   C36   1.388392 A    
C43   C47   1.562178 S    
C42   C44   1.537985 S    
C28   C29   1.398186 A    
S3    O21   1.682361 S    
C5    N1    1.367157 A    
C51   H34   1.110938 S    
C30   C31   1.394037 A    
C10   H2    1.082812 S    
C50   N4    1.489092 S    
O1    Cu1   1.971055 S    
C17   C30   1.402317 A    
O2    Cu2   1.970404 S    
C6    C15   1.404204 A    
C43   H20   1.108117 S    
C4    C17   1.471719 S    
C15   C37   1.395571 A    
C44   C47   1.560315 S    
O4    Cu2   1.950932 S    
S2    O17   1.504055 D    
S3    O19   1.502285 D    
H29   C52   1.111960 S    
C48   S1    1.828756 S    
C7    H8    1.082820 S    
C39   H12   1.083818 S    
C19   C35   1.422306 A    
O2    C1    1.290844 A    
C13   C14   1.395423 A    
C30   H11   1.083464 S    
C21   H5    1.076077 S    
O18   H37   0.990260 S    
C42   H17   1.113213 S    
O4    C2    1.296254 A    
C12   C34   1.422538 A    
C53   H32   1.111374 S    
C51   N3    1.490086 S    
C18   C20   1.417981 A    
Cu2   N3    2.011403 S    
C53   N3    1.487970 S    
S2    O18   1.681728 S    
C5    C13   1.403753 A    
C52   H35   1.110835 S    
O8    C4    1.296121 A    
C23   C27   1.415941 A    
C49   C50   1.575393 S    
Cu2   O6    1.971481 S    
C53   C54   1.572259 S    
Cu1   N4    2.011433 S    
C10   C11   1.399261 A    
C41   H14   1.112736 S    
C26   O12   1.350229 S    
O21   H38   0.990674 S    
S1    O13   1.500080 D    
C41   C46   1.553271 S    
C52   N4    1.490071 S    
C35   C40   1.417086 A    
C28   C32   1.410770 A    
