data_mof_unit_1097.cif
_audit_creation_date              2013-03-05T16:07:16-0500
_audit_creation_method            fapswitch 2.2
_symmetry_space_group_name_H-M    P1
_symmetry_Int_Tables_number       1
_space_group_crystal_system       triclinic
_cell_length_a                    18.197826
_cell_length_b                    18.238946
_cell_length_c                    18.296974
_cell_angle_alpha                 90.513503
_cell_angle_beta                  119.876754
_cell_angle_gamma                 119.635368
_cell_volume                      4306.45978292

loop_
_atom_site_label
_atom_site_type_symbol
_atom_site_description
_atom_site_fract_x
_atom_site_fract_y
_atom_site_fract_z
_atom_type_partial_charge
Zn1   Zn    Zn3+2 0.412450 0.543930 0.456390 0.944952
Zn2   Zn    Zn3+2 0.587550 0.543620 0.456070 0.988691
Zn3   Zn    Zn3+2 0.412480 0.368530 0.456070 0.957328
Zn4   Zn    Zn3+2 0.587520 0.543930 0.631470 0.980526
O1    O     O_3   0.500000 0.500000 0.500000 -0.486659
O2    O     O_R   0.733670 0.616970 0.678220 -0.645527
O3    O     O_R   0.266300 0.444520 0.383270 -0.653488
O4    O     O_R   0.561280 0.616750 0.383040 -0.625528
O5    O     O_R   0.438750 0.321760 0.555460 -0.673192
O6    O     O_R   0.561320 0.444010 0.382720 -0.629450
O7    O     O_R   0.561210 0.617270 0.678540 -0.637161
O8    O     O_R   0.438790 0.321460 0.382720 -0.648313
O9    O     O_R   0.438680 0.617270 0.556010 -0.646740
O10   O     O_R   0.438720 0.616970 0.383270 -0.663068
O11   O     O_R   0.561250 0.444520 0.678220 -0.608212
O12   O     O_R   0.733700 0.616750 0.555460 -0.641895
O13   O     O_R   0.266330 0.321760 0.383040 -0.665564
C1    C     C_R   0.782095 0.640370 0.641141 0.843622
C2    C     C_R   0.218028 0.359092 0.358367 0.831533
C3    C     C_R   0.501022 0.642295 0.360073 0.844803
C4    C     C_R   0.498165 0.359204 0.641251 0.778943
C5    C     C_R   0.497352 0.358955 0.355927 0.815994
C6    C     C_R   0.499646 0.641417 0.641117 0.796128
C7    C     C_3   0.480820 0.675713 0.769708 0.150932
C8    C     C_3   0.407196 0.705123 0.736599 -0.037520
C9    C     C_3   0.500591 0.801331 0.801777 -0.063053
C10   C     C_3   0.573608 0.771129 0.833577 0.246620
C11   C     C_3   0.592432 0.794942 0.761316 -0.187343
C12   C     C_3   0.518015 0.824904 0.728389 -0.207951
C13   C     C_3   0.424252 0.727806 0.662752 -0.228422
C14   C     C_3   0.498695 0.698498 0.697246 -0.056264
H1    H     H_    0.668214 0.831112 0.770514 0.145552
H2    H     H_    0.532947 0.887015 0.711880 0.146012
H3    H     H_    0.362787 0.709339 0.591440 0.165259
C15   C     C_3   0.060916 0.360213 0.272876 -0.397259
H4    H     H_    0.094585 0.406555 0.242920 0.168538
H5    H     H_    0.087761 0.406942 0.333635 0.211432
C16   C     C_3   0.942214 0.301178 0.207806 -0.176249
H6    H     H_    0.922291 0.307216 0.141214 0.083014
C17   C     C_3   0.061103 0.230257 0.216354 -0.021910
C18   C     C_3   0.062756 0.248332 0.354681 -0.005323
C19   C     C_3   0.103060 0.301629 0.300997 -0.021888
H7    H     H_    0.084109 0.199822 0.364362 0.191531
C20   C     C_3   0.898348 0.199012 0.199913 -0.116808
C21   C     C_3   0.938394 0.166378 0.154692 0.137652
C22   C     C_3   0.942291 0.196640 0.298869 -0.244919
H8    H     H_    0.925435 0.233221 0.329598 0.206980
H9    H     H_    0.086980 0.186974 0.244437 0.119729
C23   C     C_3   0.598136 0.361209 0.800053 -0.052004
H10   H     H_    0.664201 0.386448 0.795265 0.203590
C24   C     C_3   0.606868 0.302808 0.862653 0.106519
H11   H     H_    0.388717 0.304660 0.716335 0.124689
H12   H     H_    0.422586 0.246380 0.820728 0.137499
C25   C     C_3   0.396132 0.253644 0.694835 -0.242143
C26   C     C_3   0.504313 0.226885 0.663853 -0.281763
C27   C     C_3   0.498925 0.302062 0.699558 -0.049166
H13   H     H_    0.434028 0.188506 0.593834 0.127358
C28   C     C_3   0.503939 0.199935 0.801938 -0.166831
C29   C     C_3   0.406012 0.203165 0.764413 -0.249396
C30   C     C_3   0.496615 0.158232 0.717676 0.376734
C31   C     C_3   0.939300 0.712756 0.799732 -0.474912
H14   H     H_    0.911175 0.647387 0.811175 0.167662
H15   H     H_    0.907509 0.741568 0.818910 0.200931
C32   C     C_3   0.058832 0.772742 0.860524 0.019726
H16   H     H_    0.085291 0.731331 0.893673 0.188231
H17   H     H_    0.090476 0.678649 0.780253 0.169298
C33   C     C_3   0.941735 0.655408 0.674622 -0.233117
C34   C     C_3   0.936728 0.791503 0.684432 -0.010757
C35   C     C_3   0.897546 0.698630 0.699274 -0.014550
H18   H     H_    0.908881 0.778116 0.613043 0.172537
C36   C     C_3   0.102009 0.802995 0.801740 0.037065
C37   C     C_3   0.061659 0.714720 0.738468 -0.474254
C38   C     C_3   0.057672 0.853954 0.746645 0.024796
H19   H     H_    0.081170 0.909590 0.797309 0.114219
H20   H     H_    0.918974 0.652547 0.605220 0.179362
H21   H     H_    0.094166 0.726984 0.698941 0.223214
C39   C     C_3   0.550750 0.360192 0.252972 -0.005348
H22   H     H_    0.632277 0.406120 0.310170 0.156948
C40   C     C_3   0.537164 0.298053 0.180030 0.367444
C41   C     C_3   0.555947 0.262397 0.353150 -0.282772
C42   C     C_3   0.383320 0.224453 0.221345 -0.424901
C43   C     C_3   0.496869 0.302926 0.296582 -0.074912
H23   H     H_    0.339904 0.189850 0.250409 0.237052
H24   H     H_    0.340974 0.250485 0.176425 0.129180
C44   C     C_3   0.496184 0.200974 0.193378 -0.044339
C45   C     C_3   0.562328 0.207352 0.293408 -0.257848
C46   C     C_3   0.382022 0.158024 0.166429 -0.178720
H25   H     H_    0.330064 0.146686 0.094570 0.104573
H26   H     H_    0.507378 0.213896 0.372917 0.225456
H27   H     H_    0.524328 0.138207 0.295636 0.214974
C47   C     C_3   0.608899 0.787083 0.344749 0.019879
H28   H     H_    0.621633 0.826991 0.401617 0.141584
C48   C     C_3   0.608609 0.840743 0.279578 -0.276848
H29   H     H_    0.656154 0.840616 0.259618 0.208857
H30   H     H_    0.505205 0.618611 0.220790 0.171348
C49   C     C_3   0.453672 0.640191 0.205616 -0.056138
C50   C     C_3   0.427018 0.726574 0.287347 -0.614285
C51   C     C_3   0.498407 0.697368 0.300010 -0.010876
H31   H     H_    0.350637 0.669759 0.269677 0.178681
H32   H     H_    0.460397 0.770200 0.353538 0.197061
C52   C     C_3   0.494358 0.793689 0.191920 -0.089444
C53   C     C_3   0.459378 0.697140 0.139833 0.332808
C54   C     C_3   0.415079 0.776446 0.218194 0.192986
Zn5   Zn    Zn3+2 0.587490 0.956040 0.043570 0.941138
Zn6   Zn    Zn3+2 0.587450 0.131440 0.043900 0.976645
Zn7   Zn    Zn3+2 0.412380 0.956350 0.043900 1.003485
Zn8   Zn    Zn3+2 0.412420 0.956040 0.868500 0.974263
O14   O     O_3   0.499930 0.999970 0.999970 -0.495322
O15   O     O_R   0.438680 0.055440 0.821740 -0.647886
O16   O     O_R   0.561210 0.883000 0.116700 -0.677698
O17   O     O_R   0.733610 0.178210 0.116920 -0.643515
O18   O     O_R   0.266230 0.883210 0.944500 -0.613888
O19   O     O_R   0.561150 0.178510 0.117240 -0.628273
O20   O     O_R   0.438720 0.882700 0.821420 -0.623736
O21   O     O_R   0.438610 0.055960 0.117240 -0.659863
O22   O     O_R   0.561250 0.882700 0.943960 -0.668311
O23   O     O_R   0.733630 0.055440 0.116700 -0.631944
O24   O     O_R   0.266260 0.883000 0.821740 -0.620166
O25   O     O_R   0.561190 0.178210 0.944500 -0.610495
O26   O     O_R   0.438650 0.883210 0.116920 -0.567662
C55   C     C_R   0.501996 0.141357 0.859124 0.782894
C56   C     C_R   0.496908 0.855371 0.137797 0.811612
C57   C     C_R   0.782248 0.141245 0.142753 0.734773
C58   C     C_R   0.217630 0.860024 0.858986 0.830328
C59   C     C_R   0.496552 0.141529 0.137754 0.752094
C60   C     C_R   0.500609 0.858895 0.858707 0.852440
C61   C     C_2   0.302119 0.653260 0.718950 0.374142
H33   H     H_    0.242970 0.586445 0.669430 0.076290
O27   O     O_2   0.282526 0.685170 0.759822 -0.586620
N1    N     N_2   0.109634 0.265415 0.169022 -0.263050
H34   H     H_    0.176382 0.268603 0.193699 0.214482
C62   C     C_3   0.111851 0.337083 0.134663 -0.701273
H35   H     H_    0.181324 0.402989 0.187044 0.206318
H36   H     H_    0.040678 0.333790 0.109248 0.232060
H37   H     H_    0.115884 0.329835 0.076898 0.249584
C63   C     C_2   0.890185 0.167902 0.058018 0.470250
H38   H     H_    0.828084 0.177065 0.026549 0.017339
O28   O     O_2   0.917043 0.155315 0.012634 -0.565586
N2    N     N_2   0.113371 0.307197 0.443473 -0.331243
H39   H     H_    0.102490 0.357393 0.444420 0.256231
C64   C     C_3   0.104555 0.264167 0.507552 -0.692531
H40   H     H_    0.162032 0.315167 0.575743 0.215649
H41   H     H_    0.120194 0.212604 0.507684 0.275419
H42   H     H_    0.025716 0.232357 0.491387 0.270925
C65   C     C_2   0.887693 0.105080 0.307435 0.410643
H43   H     H_    0.805716 0.068285 0.278803 0.100259
O29   O     O_2   0.934105 0.073000 0.349108 -0.553627
N3    N     N_2   0.904979 0.073664 0.151648 -0.301059
H44   H     H_    0.936329 0.066769 0.213568 0.250427
C66   C     C_3   0.905948 0.020476 0.093021 -0.661721
H45   H     H_    0.893252 0.958454 0.109068 0.215392
H46   H     H_    0.981676 0.058589 0.102024 0.245105
H47   H     H_    0.841604 0.999117 0.022133 0.275721
N4    N     N_2   0.618704 0.445504 0.840241 -0.285461
H48   H     H_    0.691743 0.489722 0.898251 0.217245
C67   C     C_3   0.541387 0.458203 0.828892 -0.720523
H49   H     H_    0.581212 0.526494 0.872743 0.239008
H50   H     H_    0.492852 0.410348 0.848099 0.198187
H51   H     H_    0.491813 0.454020 0.759401 0.248524
N5    N     N_2   0.459809 0.592996 0.787989 -0.308886
H52   H     H_    0.406411 0.537616 0.730509 0.210459
C68   C     C_3   0.438684 0.579090 0.854897 -0.834418
H53   H     H_    0.436657 0.519950 0.871178 0.245490
H54   H     H_    0.362301 0.565999 0.829260 0.245021
H55   H     H_    0.499959 0.637951 0.917163 0.249902
N6    N     N_2   0.702389 0.307373 0.896298 -0.289500
H56   H     H_    0.706084 0.285930 0.847370 0.282380
C69   C     C_3   0.804103 0.388946 0.963419 -0.695508
H57   H     H_    0.861982 0.398952 0.951189 0.216086
H58   H     H_    0.831660 0.382888 0.030948 0.260485
H59   H     H_    0.803265 0.449220 0.962457 0.223426
C70   C     C_2   0.614220 0.340419 0.944426 0.482059
H60   H     H_    0.559833 0.353499 0.936927 0.029212
O30   O     O_2   0.681435 0.355981 0.021309 -0.592921
C71   C     C_2   0.589058 0.263484 0.648210 0.419305
H61   H     H_    0.566636 0.250088 0.579854 0.128514
O31   O     O_2   0.681075 0.307684 0.709227 -0.576350
N7    N     N_2   0.579389 0.144529 0.748433 -0.299245
H62   H     H_    0.602172 0.126856 0.805175 0.203965
C72   C     C_3   0.588782 0.107086 0.685489 -0.690701
H63   H     H_    0.576208 0.041650 0.689853 0.203861
H64   H     H_    0.668396 0.152927 0.703333 0.275254
H65   H     H_    0.532124 0.096728 0.615292 0.234231
N8    N     N_2   0.394577 0.071034 0.658177 -0.314114
H66   H     H_    0.335335 0.069703 0.604124 0.253286
C73   C     C_3   0.378687 0.984204 0.647337 -0.682835
H67   H     H_    0.301751 0.932907 0.632563 0.229912
H68   H     H_    0.437634 0.983097 0.708320 0.268195
H69   H     H_    0.378853 0.964895 0.589769 0.217347
C74   C     C_2   0.297463 0.202691 0.599128 0.369134
H70   H     H_    0.283993 0.240003 0.554184 0.106060
O32   O     O_2   0.230034 0.122774 0.571369 -0.594772
N9    N     N_2   0.656893 0.797421 0.925820 -0.300392
H71   H     H_    0.634927 0.788982 0.968679 0.238209
C75   C     C_3   0.719465 0.765116 0.939486 -0.779958
H72   H     H_    0.783867 0.792831 0.011614 0.230494
H73   H     H_    0.753455 0.787198 0.901015 0.248286
H74   H     H_    0.672110 0.690875 0.918507 0.258837
C76   C     C_2   0.306155 0.116502 0.738777 0.535049
H75   H     H_    0.272861 0.054435 0.692069 0.140625
O33   O     O_2   0.261923 0.115275 0.772133 -0.629119
N10   N     N_2   0.096571 0.847655 0.930382 -0.283226
H76   H     H_    0.069096 0.886173 0.907845 0.211746
C77   C     C_3   0.092351 0.825737 0.004756 -0.756915
H77   H     H_    0.114704 0.884475 0.050612 0.224661
H78   H     H_    0.146708 0.807058 0.042708 0.282722
H79   H     H_    0.012605 0.769494 0.980559 0.229024
C78   C     C_2   0.899688 0.560720 0.676037 0.450165
H80   H     H_    0.910830 0.546260 0.736673 0.080370
O34   O     O_2   0.855051 0.499700 0.609249 -0.537003
N11   N     N_2   0.892110 0.833085 0.699425 -0.324716
H81   H     H_    0.912483 0.849835 0.763686 0.224000
C79   C     C_3   0.894261 0.902513 0.661010 -0.764171
H82   H     H_    0.843166 0.917526 0.663338 0.247044
H83   H     H_    0.865649 0.880289 0.590098 0.247910
H84   H     H_    0.974237 0.964702 0.699744 0.247487
N12   N     N_2   0.102276 0.899027 0.699006 -0.280979
H85   H     H_    0.092034 0.949125 0.684522 0.266182
C80   C     C_3   0.091642 0.850222 0.627251 -0.745664
H86   H     H_    0.098203 0.889637 0.582173 0.234870
H87   H     H_    0.016009 0.784337 0.585924 0.217421
H88   H     H_    0.155677 0.841988 0.654768 0.264029
N13   N     N_2   0.517560 0.418300 0.219051 -0.277494
H89   H     H_    0.439481 0.389954 0.177070 0.212547
C81   C     C_3   0.581998 0.491717 0.201663 -0.754174
H90   H     H_    0.549860 0.531480 0.178880 0.211364
H91   H     H_    0.584798 0.466311 0.148439 0.256091
H92   H     H_    0.661451 0.536764 0.263911 0.236837
N14   N     N_2   0.457852 0.288335 0.089674 -0.328801
H93   H     H_    0.394278 0.281449 0.081267 0.224382
C82   C     C_3   0.427594 0.235774 0.007366 -0.776939
H94   H     H_    0.387201 0.255133 0.951158 0.249406
H95   H     H_    0.372797 0.163222 0.991543 0.224560
H96   H     H_    0.494238 0.247365 0.009623 0.268441
N15   N     N_2   0.635936 0.339504 0.188119 -0.280034
H97   H     H_    0.631764 0.352525 0.132128 0.289658
C83   C     C_3   0.738566 0.408880 0.266925 -0.806185
H98   H     H_    0.797681 0.414521 0.259368 0.280683
H99   H     H_    0.753191 0.394156 0.329213 0.232496
H100  H     H_    0.750275 0.474872 0.273103 0.234125
C84   C     C_2   0.659511 0.331043 0.440180 0.541399
H101  H     H_    0.720895 0.387496 0.440116 0.094494
O35   O     O_2   0.675139 0.322740 0.511651 -0.520921
C85   C     C_2   0.669628 0.231945 0.328114 0.327913
H102  H     H_    0.698775 0.247772 0.287262 0.148652
O36   O     O_2   0.722559 0.228553 0.401024 -0.517966
C86   C     C_2   0.329175 0.065364 0.173495 0.406256
H103  H     H_    0.283066 0.006767 0.115756 0.115212
O37   O     O_2   0.338395 0.054938 0.242720 -0.602865
N16   N     N_2   0.697813 0.781003 0.387940 -0.279881
H104  H     H_    0.766119 0.841514 0.434813 0.261321
C87   C     C_3   0.713244 0.733671 0.338823 -0.715434
H105  H     H_    0.792772 0.750455 0.383354 0.221228
H106  H     H_    0.706153 0.752944 0.279839 0.242988
H107  H     H_    0.660602 0.660557 0.319631 0.258140
C88   C     C_2   0.667207 0.940183 0.326875 0.344708
H108  H     H_    0.637184 0.978446 0.296496 0.072365
O38   O     O_2   0.752640 0.980124 0.398146 -0.539106
N17   N     N_2   0.533214 0.696735 0.126600 -0.333811
H109  H     H_    0.508542 0.632121 0.100959 0.214419
C89   C     C_3   0.588855 0.755121 0.093026 -0.738017
H110  H     H_    0.622520 0.726292 0.076918 0.198784
H111  H     H_    0.656719 0.821359 0.144694 0.265775
H112  H     H_    0.537860 0.761199 0.031066 0.268817
N18   N     N_2   0.438028 0.861564 0.259350 -0.274229
H113  H     H_    0.510307 0.902010 0.318663 0.214648
C90   C     C_3   0.361853 0.859561 0.267963 -0.691498
H114  H     H_    0.395797 0.927204 0.308976 0.252059
H115  H     H_    0.337881 0.811163 0.301213 0.207601
H116  H     H_    0.293035 0.842047 0.201586 0.267848
C91   C     C_2   0.301857 0.717208 0.135280 0.477158
H117  H     H_    0.252120 0.646775 0.124666 0.046681
O39   O     O_2   0.265465 0.746106 0.077580 -0.574650
N19   N     N_2   0.349768 0.557986 0.165048 -0.324549
H118  H     H_    0.312531 0.549414 0.195198 0.235087
C92   C     C_3   0.329775 0.475348 0.125889 -0.885597
H119  H     H_    0.246924 0.429619 0.069574 0.255367
H120  H     H_    0.348713 0.443302 0.177288 0.244998
H121  H     H_    0.374847 0.487196 0.097748 0.244500
N20   N     N_2   0.357046 0.650186 0.051894 -0.315067
H122  H     H_    0.315570 0.581468 0.030835 0.261449
C93   C     C_3   0.343161 0.675474 0.973322 -0.688010
H123  H     H_    0.259255 0.643763 0.922419 0.244422
H124  H     H_    0.369035 0.649502 0.943015 0.228025
H125  H     H_    0.381931 0.747941 0.986340 0.239063
C94   C     C_2   0.898127 0.341041 0.232856 0.422420
H126  H     H_    0.846031 0.354548 0.182178 0.119808
O40   O     O_2   0.919753 0.358562 0.308354 -0.610711

loop_
_geom_bond_atom_site_label_1
_geom_bond_atom_site_label_2
_geom_bond_distance
_ccdc_geom_bond_type
C30   N8    1.482214 S    
C94   O40   1.221192 D    
C26   C27   1.580232 S    
C85   O36   1.221271 D    
C18   C19   1.574004 S    
C74   H70   1.083347 S    
C49   C53   1.605814 S    
C21   N3    1.476479 S    
C49   N19   1.467072 S    
C38   H19   1.109494 S    
C44   C59   1.485119 S    
N13   H89   1.027255 S    
C67   H51   1.106227 S    
C7    C10   1.528716 S    
C40   C44   1.623031 S    
C37   H21   1.105136 S    
O5    C4    1.288069 A    
C42   H24   1.110230 S    
C65   H43   1.084111 S    
H12   C29   1.102135 S    
C48   C88   1.521597 S    
C71   O31   1.219274 D    
Zn7   O18   1.946674 S    
C79   H82   1.110131 S    
N8    H66   1.025868 S    
N17   H109  1.033183 S    
C11   C12   1.555797 S    
C93   H123  1.110666 S    
O4    C3    1.282893 A    
C42   C46   1.550593 S    
N10   C77   1.449484 S    
Zn1   O1    1.955605 S    
C80   H87   1.105139 S    
C5    C43   1.478224 S    
Zn6   O19   1.947391 S    
C67   H49   1.109256 S    
C15   H5    1.109565 S    
C70   H60   1.074300 S    
N20   C93   1.452087 S    
C30   N7    1.475942 S    
O18   C58   1.284047 A    
C64   H41   1.108842 S    
C89   H110  1.111020 S    
O20   C60   1.282885 A    
C90   H116  1.107927 S    
C3    C51   1.494638 S    
C22   C65   1.522968 S    
O19   C59   1.279730 A    
C28   C30   1.627043 S    
C91   H117  1.085224 S    
O8    C5    1.284317 A    
C81   H92   1.109310 S    
C53   N17   1.482582 S    
O9    C6    1.277895 A    
C17   H9    1.114826 S    
C84   H101  1.082505 S    
C9    C60   1.472081 S    
C32   C36   1.581935 S    
O7    C6    1.283376 A    
C41   H26   1.116021 S    
C31   H15   1.110678 S    
C15   C19   1.556206 S    
C40   N14   1.487371 S    
C41   C45   1.561522 S    
Zn3   O8    1.947684 S    
C65   O29   1.221556 D    
Zn5   O22   1.948488 S    
C67   H50   1.103510 S    
C39   N13   1.464451 S    
C69   H59   1.107146 S    
H17   C37   1.114965 S    
H30   C49   1.104100 S    
C12   H2    1.109905 S    
O26   C56   1.288420 A    
C62   H35   1.109549 S    
N9    C75   1.445248 S    
C66   H47   1.109902 S    
C49   C51   1.568630 S    
C70   O30   1.220992 D    
N15   C83   1.454492 S    
C18   C22   1.563936 S    
C77   H79   1.110788 S    
C10   N9    1.447020 S    
C12   C13   1.556268 S    
Zn2   O12   1.946630 S    
N18   H113  1.027600 S    
Zn8   O24   1.946646 S    
N4    C67   1.452069 S    
C72   H65   1.110001 S    
C39   H22   1.098364 S    
C50   C51   1.553015 S    
C75   H74   1.109330 S    
C53   N20   1.484300 S    
Zn8   O15   1.955884 S    
C1    C35   1.489977 S    
C69   H58   1.109178 S    
Zn6   O17   1.944883 S    
C76   H75   1.080486 S    
C52   C54   1.629847 S    
O22   C60   1.280070 A    
C83   H98   1.107226 S    
C73   H68   1.107007 S    
N6    C69   1.458412 S    
C18   H7    1.113296 S    
N6    H56   1.019123 S    
C17   N1    1.467329 S    
C50   H31   1.110038 S    
H11   C25   1.099644 S    
N7    H62   1.031022 S    
C68   H54   1.108761 S    
C25   C29   1.567604 S    
C86   O37   1.221770 D    
C85   H102  1.082038 S    
C17   C21   1.584386 S    
O2    C1    1.283695 A    
Zn6   O14   1.961041 S    
C25   C27   1.578102 S    
C80   H88   1.106307 S    
C18   N2    1.463012 S    
N10   H76   1.029923 S    
C13   H3    1.110212 S    
C44   C46   1.592441 S    
O17   C57   1.280796 A    
C71   H61   1.085345 S    
C52   C53   1.634427 S    
O10   C3    1.282155 A    
C36   C58   1.492162 S    
C11   H1    1.110135 S    
C15   C16   1.535450 S    
C7    C14   1.530426 S    
N20   H122  1.027169 S    
Zn4   O2    1.946545 S    
C45   H27   1.112141 S    
C64   H42   1.110602 S    
C48   C52   1.587501 S    
C47   H28   1.116057 S    
C89   H111  1.104206 S    
C45   C85   1.520063 S    
C94   H126  1.085597 S    
C78   H80   1.084251 S    
C41   C84   1.515249 S    
C23   C24   1.574705 S    
C34   C38   1.561647 S    
C44   C45   1.573238 S    
O6    C5    1.278242 A    
C42   C43   1.555401 S    
C88   O38   1.221218 D    
C84   O35   1.220450 D    
C15   H4    1.104972 S    
N5    C68   1.445266 S    
C31   C32   1.542699 S    
N1    C62   1.446826 S    
C61   O27   1.219909 D    
Zn8   O20   1.945153 S    
C16   C20   1.593617 S    
N14   H93   1.027876 S    
Zn3   O5    1.956593 S    
C47   C48   1.549048 S    
C68   H55   1.105636 S    
C23   N4    1.476826 S    
N11   H81   1.029800 S    
C82   H94   1.110278 S    
C92   H121  1.109974 S    
O11   C4    1.279713 A    
C13   C14   1.545856 S    
Zn8   O14   1.962544 S    
C88   H108  1.084419 S    
C28   C55   1.502364 S    
C89   H112  1.102079 S    
N13   C81   1.447684 S    
C81   H90   1.106250 S    
C9    C10   1.538489 S    
C39   C40   1.579186 S    
C38   N12   1.467065 S    
C82   H95   1.108952 S    
C24   C28   1.636146 S    
O24   C58   1.289337 A    
C93   H125  1.098257 S    
C7    C8    1.535484 S    
Zn4   O7    1.945198 S    
N18   C90   1.454458 S    
C26   C71   1.526743 S    
N4    H48   1.030865 S    
C50   C54   1.554919 S    
O25   C55   1.281041 A    
C9    C12   1.545365 S    
C87   H107  1.101085 S    
C78   O34   1.218368 D    
C69   H57   1.112738 S    
N11   C79   1.446862 S    
C77   H78   1.109014 S    
C23   H10   1.106009 S    
N16   C87   1.452249 S    
O3    C2    1.281373 A    
C26   H13   1.110507 S    
C80   H86   1.111398 S    
C66   H46   1.110802 S    
C28   C29   1.592533 S    
Zn2   O1    1.962431 S    
C33   H20   1.113660 S    
O13   C2    1.281448 A    
C61   H33   1.084414 S    
Zn2   O6    1.946834 S    
Zn5   O14   1.955752 S    
C50   H32   1.113867 S    
C72   H63   1.110388 S    
C16   C94   1.523021 S    
C63   O28   1.221898 D    
C87   H106  1.103584 S    
C68   H53   1.109478 S    
C79   H84   1.110134 S    
C31   C35   1.558435 S    
C8    C13   1.547264 S    
C91   O39   1.220480 D    
C32   N10   1.462339 S    
N19   H118  1.028176 S    
C24   C70   1.555139 S    
C21   C63   1.542140 S    
C74   O32   1.218718 D    
C25   C74   1.530433 S    
Zn7   O26   1.954332 S    
Zn1   O3    1.947685 S    
C34   C35   1.567840 S    
C11   C14   1.543237 S    
Zn2   O4    1.954287 S    
C20   C21   1.609617 S    
N3    C66   1.452302 S    
C63   H38   1.084811 S    
Zn3   O1    1.961042 S    
C42   H23   1.112117 S    
C4    C27   1.498006 S    
N7    C72   1.455835 S    
N2    H39   1.029617 S    
C2    C19   1.483670 S    
C46   C86   1.522569 S    
N12   C80   1.452261 S    
C23   C27   1.592250 S    
C48   H29   1.094870 S    
Zn5   O23   1.947537 S    
C20   C57   1.498358 S    
C93   H124  1.108885 S    
C52   C56   1.504197 S    
O21   C59   1.286928 A    
Zn7   O21   1.946733 S    
C90   H114  1.111170 S    
O12   C1    1.286884 A    
C73   H69   1.109563 S    
C83   H99   1.102636 S    
N1    H34   1.032464 S    
O23   C57   1.286982 A    
C79   H83   1.107998 S    
C29   C76   1.522340 S    
C36   C37   1.556327 S    
N14   C82   1.454699 S    
N17   C89   1.449719 S    
C64   H40   1.110331 S    
C8    C9    1.543916 S    
C72   H64   1.109314 S    
Zn5   O16   1.957860 S    
C92   H119  1.106247 S    
N2    C64   1.447637 S    
O15   C55   1.288816 A    
C16   H6    1.109028 S    
Zn7   O14   1.962429 S    
C39   C43   1.571810 S    
Zn4   O11   1.955931 S    
C62   H37   1.106494 S    
C32   H16   1.116730 S    
C17   C19   1.574442 S    
C81   H91   1.109215 S    
C41   C43   1.569897 S    
N8    C73   1.454430 S    
Zn3   O13   1.944736 S    
C82   H96   1.101636 S    
N19   C92   1.447787 S    
N3    H44   1.026854 S    
C54   N18   1.475171 S    
C47   C51   1.572558 S    
C8    C61   1.498669 S    
C31   H14   1.111311 S    
N5    H52   1.030875 S    
N16   H104  1.030984 S    
C22   H8    1.105825 S    
N12   H85   1.031224 S    
N15   H97   1.027812 S    
C40   N15   1.487730 S    
C75   H72   1.109932 S    
C7    N5    1.449196 S    
Zn4   O1    1.962541 S    
Zn1   O9    1.948739 S    
C77   H77   1.109083 S    
C46   H25   1.108473 S    
C62   H36   1.104490 S    
N9    H71   1.025690 S    
C83   H100  1.107611 S    
C36   C38   1.574516 S    
C10   C11   1.538969 S    
C76   O33   1.221783 D    
C34   H18   1.111331 S    
C66   H45   1.110994 S    
Zn6   O25   1.956742 S    
C24   N6    1.482348 S    
C33   C37   1.549282 S    
Zn1   O10   1.957665 S    
C33   C35   1.566355 S    
C73   H67   1.109769 S    
C26   C30   1.594817 S    
C34   N11   1.461799 S    
C92   H120  1.109513 S    
C20   C22   1.585157 S    
O16   C56   1.281629 A    
C33   C78   1.510759 S    
C90   H115  1.110345 S    
C86   H103  1.082645 S    
C6    C14   1.468086 S    
C87   H105  1.111165 S    
C75   H73   1.110303 S    
C47   N16   1.469673 S    
C54   C91   1.539170 S    
