data_mof_unit_2297.cif
_audit_creation_date              2012-12-11T16:58:16-0500
_audit_creation_method            fapswitch 2.2
_symmetry_space_group_name_H-M    P1
_symmetry_Int_Tables_number       1
_space_group_crystal_system       triclinic
_cell_length_a                    16.924524
_cell_length_b                    7.261932
_cell_length_c                    16.826475
_cell_angle_alpha                 89.999588
_cell_angle_beta                  100.147103
_cell_angle_gamma                 89.999957
_cell_volume                      2035.70648354

loop_
_atom_site_label
_atom_site_type_symbol
_atom_type_description
_atom_site_fract_x
_atom_site_fract_y
_atom_site_fract_z
_atom_type_partial_charge
O1    O     O_R   0.413450 0.494370 0.415710 -0.531535
O2    O     O_R   0.586550 0.994370 0.584290 -0.531532
O3    O     O_R   0.578420 0.819350 0.429360 -0.535680
O4    O     O_R   0.421580 0.319350 0.570640 -0.535682
C1    C     C_R   0.604921 0.656927 0.413914 0.738722
C2    C     C_R   0.395076 0.156927 0.586082 0.738722
O5    O     O_R   0.413570 0.823780 0.406240 -0.549485
O6    O     O_R   0.586430 0.323780 0.593760 -0.549477
O7    O     O_R   0.420530 0.998740 0.561000 -0.540290
O8    O     O_R   0.579470 0.498740 0.439000 -0.540284
C3    C     C_R   0.386103 0.655339 0.383974 0.695959
C4    C     C_R   0.613893 0.155338 0.616030 0.695982
O9    O     O_3   0.502480 0.662320 0.550800 -0.382148
O10   O     O_3   0.497520 0.162320 0.449200 -0.382150
V1    V     V_3+5 0.499540 0.935370 0.490580 1.409360
V2    V     V_3+5 0.500460 0.435370 0.509420 1.409367
C5    C     C_R   0.730359 0.989603 0.700745 0.097388
C6    C     C_R   0.269633 0.489604 0.299267 0.097412
C7    C     C_R   0.682412 0.146188 0.684275 -0.124954
C8    C     C_R   0.317574 0.646195 0.315739 -0.124979
C9    C     C_R   0.703478 0.296355 0.737581 -0.205468
C10   C     C_R   0.296492 0.796379 0.262448 -0.205460
H1    H     H_    0.668114 0.421065 0.730451 0.126342
H2    H     H_    0.331848 0.921099 0.269581 0.126340
C11   C     C_R   0.769610 0.285122 0.802442 -0.187459
C12   C     C_R   0.230354 0.785150 0.197595 -0.187445
H3    H     H_    0.782534 0.401967 0.842383 0.128539
H4    H     H_    0.217411 0.902017 0.157671 0.128392
C13   C     C_R   0.816766 0.123017 0.816769 -0.080433
C14   C     C_R   0.183217 0.623023 0.183249 -0.080395
C15   C     C_R   0.793289 0.978628 0.763548 0.029054
C16   C     C_R   0.206702 0.478627 0.236464 0.029056
C17   C     C_3   0.813199 0.786110 0.745018 -0.456597
C18   C     C_3   0.186814 0.286086 0.254975 -0.456607
C19   C     C_3   0.741655 0.797204 0.673937 0.328666
C20   C     C_3   0.258355 0.297184 0.326059 0.328680
H5    H     H_    0.803100 0.690366 0.793483 0.133166
H6    H     H_    0.196924 0.190392 0.206499 0.133103
H7    H     H_    0.872983 0.775701 0.726596 0.204753
H8    H     H_    0.127030 0.275623 0.273395 0.204760
H9    H     H_    0.688843 0.709663 0.679165 0.045548
H10   H     H_    0.311178 0.209685 0.320826 0.045532
C21   C     C_R   0.331727 0.161141 0.637099 -0.162339
C22   C     C_R   0.668266 0.661144 0.362889 -0.162366
C23   C     C_R   0.169531 0.108152 0.864765 -0.184741
C24   C     C_R   0.830459 0.608143 0.135222 -0.184675
C25   C     C_R   0.277943 0.937087 0.818916 -0.189179
C26   C     C_R   0.722060 0.437045 0.181083 -0.189302
C27   C     C_R   0.226106 0.961902 0.874536 0.487897
C28   C     C_R   0.773889 0.461882 0.125446 0.487889
C29   C     C_R   0.170284 0.234550 0.801651 -0.228916
C30   C     C_R   0.829693 0.734564 0.198324 -0.228999
C31   C     C_R   0.223579 0.210993 0.746481 0.020875
C32   C     C_R   0.776400 0.711008 0.253494 0.020860
C33   C     C_R   0.277135 0.059380 0.754702 0.017537
C34   C     C_R   0.722859 0.559364 0.245288 0.017660
C35   C     C_R   0.330083 0.033794 0.699457 -0.197171
C36   C     C_R   0.669918 0.533771 0.300542 -0.197151
C37   C     C_R   0.277707 0.310541 0.629138 -0.233435
C38   C     C_R   0.722271 0.810573 0.370833 -0.233468
C39   C     C_R   0.223928 0.334821 0.682546 0.630154
C40   C     C_R   0.776042 0.834861 0.317419 0.630122
H11   H     H_    0.372240 0.920057 0.707125 0.131814
H12   H     H_    0.627773 0.420009 0.292888 0.131818
H13   H     H_    0.277830 0.411069 0.581569 0.182675
H14   H     H_    0.722143 0.911119 0.418394 0.182675
H15   H     H_    0.318786 0.820863 0.826188 0.131820
H16   H     H_    0.681245 0.320767 0.173845 0.131700
H17   H     H_    0.127292 0.346552 0.793764 0.199232
H18   H     H_    0.872677 0.846586 0.206204 0.199250
O11   O     O_R   0.920630 0.775410 0.061150 -0.539907
O12   O     O_R   0.079370 0.275410 0.938850 -0.539894
O13   O     O_R   0.086500 0.441450 0.093690 -0.542980
O14   O     O_R   0.913500 0.941450 0.906310 -0.542966
C41   C     C_R   0.114087 0.610253 0.115775 0.704995
C42   C     C_R   0.885907 0.110252 0.884231 0.705047
O15   O     O_R   0.921670 0.445960 0.070740 -0.507848
O16   O     O_R   0.078330 0.945960 0.929260 -0.507877
O17   O     O_R   0.913380 0.271130 0.915780 -0.536227
O18   O     O_R   0.086620 0.771130 0.084220 -0.536258
C43   C     C_R   0.894970 0.612610 0.085174 0.723206
C44   C     C_R   0.105025 0.112612 0.914821 0.723001
O19   O     O_3   0.997500 0.603030 0.949220 -0.377212
O20   O     O_3   0.002500 0.103030 0.050780 -0.377220
V3    V     V_3+5 0.000470 0.329940 0.009420 1.482943
V4    V     V_3+5 0.999530 0.829940 0.990580 1.482903
F1    F     F_    0.173479 0.481686 0.672473 -0.679433
F2    F     F_    0.826476 0.981757 0.327474 -0.679431
O21   O     O_3   0.227544 0.834140 0.935665 -0.540701
C45   C     C_3   0.288913 0.883556 0.000090 -0.284646
H19   H     H_    0.275400 0.017665 0.026851 0.119036
H20   H     H_    0.348665 0.888654 0.981086 0.128468
H21   H     H_    0.292419 0.776888 0.047714 0.167869
O22   O     O_3   0.772509 0.334106 0.064323 -0.540678
C46   C     C_3   0.710712 0.382484 0.000139 -0.285065
H22   H     H_    0.723463 0.517170 0.973423 0.119165
H23   H     H_    0.651072 0.385800 0.019402 0.128721
H24   H     H_    0.707522 0.276180 0.952395 0.167893
O23   O     O_3   0.765910 0.794504 0.597893 -0.539199
C47   C     C_3   0.773916 0.609813 0.574670 -0.181098
H25   H     H_    0.714908 0.538424 0.564695 0.132731
H26   H     H_    0.817747 0.533415 0.619922 0.148516
H27   H     H_    0.796855 0.607852 0.516890 0.172090
O24   O     O_3   0.234099 0.294425 0.402102 -0.539202
C48   C     C_3   0.226108 0.109715 0.425308 -0.181134
H28   H     H_    0.285123 0.038357 0.435283 0.132759
H29   H     H_    0.182287 0.033313 0.380047 0.148523
H30   H     H_    0.203164 0.107708 0.483086 0.172090

loop_
_geom_bond_atom_site_label_1
_geom_bond_atom_site_label_2
_ccdc_geom_bond_type
C20   H10   S    
C46   H22   S    
O1    C3    A    
C42   O17   A    
O2    C4    A    
C2    O7    A    
O12   V3    S    
C46   H24   S    
C25   C27   A    
C13   C42   S    
O5    C3    A    
C48   H29   S    
C17   H7    S    
O14   C42   A    
C18   H8    S    
C7    C9    A    
C23   C29   A    
C24   C43   S    
C24   C30   A    
C38   C40   A    
O18   V4    S    
C39   F1    S    
C17   C19   S    
C31   C39   A    
C23   C44   S    
C22   C36   A    
C15   C17   S    
O15   C43   A    
C41   O18   A    
C18   C20   S    
C21   C37   A    
O16   V4    S    
C26   C28   A    
C38   H14   S    
O6    V2    S    
C11   C13   A    
O13   C41   A    
C19   O23   S    
C25   H15   S    
O24   C48   S    
C30   C32   A    
C35   H11   S    
C31   C33   A    
C36   H12   S    
C48   H30   S    
C32   C34   A    
C3    C8    S    
C37   C39   A    
O20   V3    S    
O4    C2    A    
C28   O22   S    
C32   C40   A    
C40   F2    S    
C47   H27   S    
C26   H16   S    
C29   C31   A    
C16   C18   S    
O4    V2    S    
O11   V4    S    
O16   C44   A    
C45   H20   S    
O23   C47   S    
C23   C27   A    
O6    C4    A    
C47   H26   S    
O1    V2    S    
O14   V4    S    
O2    V1    S    
O13   V3    S    
C1    C22   S    
C8    C10   A    
C12   C14   A    
C2    C21   S    
C33   C35   A    
C5    C15   A    
C10   H2    S    
C6    C16   A    
O17   V3    S    
O3    V1    S    
C45   H21   S    
C25   C33   A    
C26   C34   A    
C9    C11   A    
C18   H6    S    
C27   O21   S    
O3    C1    A    
C46   H23   S    
C11   H3    S    
C5    C19   S    
C48   H28   S    
C24   C28   A    
C12   H4    S    
C20   O24   S    
C9    H1    S    
O7    V1    S    
C1    O8    A    
C13   C15   A    
O8    V2    S    
C37   H13   S    
C14   C16   A    
C14   C41   S    
C45   H19   S    
C22   C38   A    
C4    C7    S    
O5    V1    S    
C47   H25   S    
C5    C7    A    
C34   C36   A    
C6    C8    A    
O22   C46   S    
C19   H9    S    
C17   H5    S    
C30   H18   S    
C21   C35   A    
O15   V3    S    
O19   V4    S    
C10   C12   A    
O9    V2    S    
O10   V1    S    
C29   H17   S    
O21   C45   S    
C6    C20   S    
O12   C44   A    
O11   C43   A    
