data_mof_unit_1586.cif
_audit_creation_date              2013-03-05T16:12:26-0500
_audit_creation_method            fapswitch 2.2
_symmetry_space_group_name_H-M    P1
_symmetry_Int_Tables_number       1
_space_group_crystal_system       triclinic
_cell_length_a                    10.773906
_cell_length_b                    9.922568
_cell_length_c                    23.360601
_cell_angle_alpha                 89.851909
_cell_angle_beta                  91.527667
_cell_angle_gamma                 89.754685
_cell_volume                      2496.44110392

loop_
_atom_site_label
_atom_site_type_symbol
_atom_site_description
_atom_site_fract_x
_atom_site_fract_y
_atom_site_fract_z
_atom_type_partial_charge
O1    O     O_R   0.316770 0.614620 0.500000 -0.599739
O2    O     O_R   0.683230 0.385380 0.500000 -0.601540
O3    O     O_R   0.683230 0.614620 0.500000 -0.600919
O4    O     O_R   0.316770 0.385380 0.500000 -0.600549
C1    C     C_R   0.260043 0.500172 0.500137 0.889203
C2    C     C_R   0.739956 0.499827 0.499884 0.883732
O5    O     O_R   0.499970 0.614690 0.416160 -0.584732
O6    O     O_R   0.500030 0.385310 0.583840 -0.586662
O7    O     O_R   0.500030 0.614690 0.583840 -0.585449
O8    O     O_R   0.499970 0.385310 0.416160 -0.588104
C3    C     C_R   0.499764 0.499583 0.389495 0.906548
C4    C     C_R   0.502251 0.500237 0.610475 0.901392
Zn1   Zn    Zn3+2 0.500000 0.653120 0.500000 1.064435
Zn2   Zn    Zn3+2 0.500000 0.346880 0.500000 1.062301
C5    C     C_R   0.636895 0.507039 0.884267 0.628369
C6    C     C_R   0.396960 0.435079 0.116161 0.643243
N1    N     N_R   0.530996 0.487034 0.852165 -0.349007
N2    N     N_R   0.500309 0.469489 0.147643 -0.350735
C7    C     C_R   0.422923 0.446112 0.875790 0.622088
C8    C     C_R   0.610205 0.497760 0.122885 0.604491
C9    C     C_R   0.415495 0.431496 0.935344 -0.146881
C10   C     C_R   0.622117 0.483376 0.063706 -0.155241
C11   C     C_R   0.522754 0.457263 0.969601 -0.096800
C12   C     C_R   0.515218 0.456506 0.029727 -0.098341
C13   C     C_R   0.637132 0.486455 0.943825 -0.177719
C14   C     C_R   0.400801 0.430914 0.055875 -0.172210
C15   C     C_R   0.303800 0.394630 0.961542 0.423133
C16   C     C_R   0.738928 0.490097 0.038152 0.427296
C17   C     C_R   0.295480 0.399876 0.021158 0.254022
C18   C     C_R   0.746704 0.495854 0.978449 0.216048
O9    O     O_2   0.739691 0.551058 0.858445 -0.453591
O10   O     O_2   0.292359 0.403772 0.143621 -0.453540
O11   O     O_2   0.322814 0.422673 0.841347 -0.473983
O12   O     O_2   0.707153 0.540390 0.155793 -0.468147
C19   C     C_R   0.563396 0.376435 0.241884 0.373439
C20   C     C_R   0.460511 0.603544 0.763249 0.376902
C21   C     C_R   0.567601 0.391077 0.301228 -0.192691
C22   C     C_R   0.449364 0.599991 0.703478 -0.201125
H1    H     H_    0.620431 0.319536 0.327299 0.206707
H2    H     H_    0.391371 0.673366 0.680950 0.207638
C23   C     C_R   0.501438 0.494876 0.327380 -0.107648
C24   C     C_R   0.512920 0.502112 0.672523 -0.101749
C25   C     C_R   0.430306 0.585073 0.294180 -0.120664
C26   C     C_R   0.592421 0.411038 0.700790 -0.113117
H3    H     H_    0.373283 0.660447 0.313973 0.230667
H4    H     H_    0.648920 0.341872 0.677106 0.230444
C27   C     C_R   0.428763 0.574706 0.234915 -0.100418
C28   C     C_R   0.601192 0.410253 0.759992 -0.116997
H5    H     H_    0.375813 0.646773 0.209229 0.192891
H6    H     H_    0.658601 0.335047 0.781667 0.191273
C29   C     C_R   0.495392 0.471609 0.208610 0.147992
C30   C     C_R   0.533853 0.503767 0.791484 0.145501
C31   C     C_R   0.064377 0.377498 0.502839 -0.120546
C32   C     C_R   0.935618 0.622499 0.497252 -0.119580
C33   C     C_R   0.936946 0.377252 0.502296 -0.129535
C34   C     C_R   0.063047 0.622746 0.497798 -0.128082
H7    H     H_    0.112982 0.281828 0.505308 0.203069
H8    H     H_    0.887013 0.718172 0.494791 0.203326
H9    H     H_    0.889414 0.281452 0.503954 0.206104
H10   H     H_    0.110572 0.718549 0.496154 0.205555
C35   C     C_R   0.872571 0.499769 0.499718 -0.045405
C36   C     C_R   0.127425 0.500227 0.500351 -0.045909
C37   C     C_R   0.558928 0.070740 0.543073 0.227027
C38   C     C_R   0.440982 0.929204 0.456925 0.222901
C39   C     C_R   0.440307 0.072765 0.457154 0.209640
C40   C     C_R   0.559641 0.927220 0.542843 0.211667
N3    N     N_R   0.500000 0.857200 0.500000 -0.225051
N4    N     N_R   0.500000 0.142800 0.500000 -0.225025
O13   O     O_3   0.198175 0.363909 0.929262 -0.509140
C41   C     C_3   0.196983 0.223657 0.919269 -0.029517
H11   H     H_    0.280131 0.190264 0.895718 0.148213
H12   H     H_    0.113817 0.199227 0.892315 0.221034
H13   H     H_    0.190617 0.165734 0.959863 0.161149
O14   O     O_3   0.847132 0.483531 0.071236 -0.519887
C42   C     C_3   0.869061 0.347170 0.086219 0.046162
H14   H     H_    0.788351 0.299664 0.106950 0.141400
H15   H     H_    0.947280 0.342457 0.117966 0.247767
H16   H     H_    0.894444 0.287723 0.047930 0.164666
N5    N     N_R   0.176758 0.380503 0.045333 0.257173
O15   O     O_R   0.142183 0.260231 0.060146 -0.386380
O16   O     O_R   0.111799 0.485042 0.059885 -0.262801
N6    N     N_R   0.867227 0.501632 0.953929 0.276960
O17   O     O_R   0.943973 0.597055 0.968679 -0.233219
O18   O     O_R   0.906219 0.401831 0.923071 -0.314683
N7    N     N_R   0.626929 0.264948 0.216100 0.216581
O19   O     O_R   0.582898 0.209931 0.169353 -0.375162
O20   O     O_R   0.721985 0.208908 0.242347 -0.333089
N8    N     N_R   0.396966 0.706778 0.794527 0.237562
O21   O     O_R   0.302973 0.770876 0.771044 -0.319516
O22   O     O_R   0.439002 0.745870 0.844489 -0.351005
N9    N     N_R   0.618298 0.139504 0.589690 0.249216
O23   O     O_R   0.576698 0.123483 0.640999 -0.345295
O24   O     O_R   0.727411 0.191866 0.583282 -0.386854
N10   N     N_R   0.381437 0.860333 0.410340 0.252304
O25   O     O_R   0.422271 0.876868 0.358935 -0.338614
O26   O     O_R   0.273034 0.806472 0.416972 -0.377707
N11   N     N_R   0.371959 0.144150 0.413402 0.267723
O27   O     O_R   0.256319 0.175105 0.421242 -0.361969
O28   O     O_R   0.415989 0.153088 0.362240 -0.311494
N12   N     N_R   0.627730 0.855839 0.586680 0.267497
O29   O     O_R   0.743351 0.824613 0.578951 -0.363680
O30   O     O_R   0.583425 0.847000 0.637792 -0.317007

loop_
_geom_bond_atom_site_label_1
_geom_bond_atom_site_label_2
_geom_bond_distance
_ccdc_geom_bond_type
C33   H9    1.082770 S    
C15   C17   1.399033 A    
O3    C2    1.290387 A    
C16   O14   1.382623 S    
N11   O27   1.299739 A    
C27   H5    1.083000 S    
N7    O19   1.301276 A    
C20   N8    1.440982 S    
O5    C3    1.302364 A    
O1    C1    1.291977 A    
C2    C35   1.428887 S    
C19   C21   1.393842 A    
C12   C14   1.413947 A    
C22   C24   1.399780 A    
Zn1   N3    2.024998 S    
C5    C13   1.405635 A    
C40   N12   1.428366 S    
O7    Zn1   1.994353 S    
C4    C24   1.451140 S    
C11   C12   1.409106 A    
C41   H11   1.113393 S    
C20   C30   1.414850 A    
C34   C36   1.397416 A    
C8    O12   1.350396 S    
C28   H6    1.083151 S    
C40   N3    1.367638 A    
C9    C15   1.413638 A    
C37   C40   1.424106 A    
C10   C16   1.408986 A    
O4    Zn2   2.009120 S    
C23   C25   1.395949 A    
O2    C2    1.291951 A    
C24   C26   1.395169 A    
N1    C30   1.427973 S    
N11   O28   1.300526 A    
C26   H4    1.078894 S    
N2    C29   1.426839 S    
C31   C33   1.372662 A    
C6    C14   1.410725 A    
C32   C34   1.372638 A    
O14   C42   1.414032 S    
N7    O20   1.301482 A    
C38   N3    1.373167 A    
C7    O11   1.349667 S    
N9    O23   1.300400 A    
N5    O16   1.299869 A    
C31   H7    1.082847 S    
C27   C29   1.399967 A    
C42   H16   1.112282 S    
C34   H10   1.082753 S    
O3    Zn1   2.009119 S    
C18   N6    1.434435 S    
C42   H14   1.112493 S    
N9    O24   1.299444 A    
C42   H15   1.108397 S    
C31   C36   1.398790 A    
C17   N5    1.425490 S    
C28   C30   1.398138 A    
O6    C4    1.300489 A    
C39   N4    1.368005 A    
C41   H13   1.111436 S    
N12   O30   1.300547 A    
N10   O25   1.300117 A    
N10   O26   1.299322 A    
C25   H3    1.078703 S    
N8    O22   1.301322 A    
N6    O18   1.301176 A    
C9    C11   1.412600 A    
C19   C29   1.411649 A    
C10   C12   1.408032 A    
O1    Zn1   2.012332 S    
C32   H8    1.082860 S    
C13   C18   1.416680 A    
C5    N1    1.364038 A    
C37   N4    1.372997 A    
O6    Zn2   1.996288 S    
C7    C9    1.402831 A    
C8    C10   1.399404 A    
O4    C1    1.290383 A    
C15   O13   1.383828 S    
C5    O9    1.348936 S    
C32   C35   1.398768 A    
C6    O10   1.348530 S    
C38   C39   1.424508 A    
C16   C18   1.400456 A    
C38   N10   1.425916 S    
C21   H1    1.083801 S    
C22   H2    1.083517 S    
C19   N7    1.440145 S    
C33   C35   1.397407 A    
C20   C22   1.398785 A    
N12   O29   1.299744 A    
N1    C7    1.364689 A    
C1    C36   1.428956 S    
C3    C23   1.452520 S    
N2    C8    1.361466 A    
C11   C13   1.416608 A    
C21   C23   1.400833 A    
O13   C41   1.411754 S    
O2    Zn2   2.012330 S    
O7    C4    1.293361 A    
O8    C3    1.292268 A    
C39   N11   1.428383 S    
N5    O15   1.300492 A    
O5    Zn1   1.996290 S    
N8    O21   1.301541 A    
C14   C17   1.412583 A    
C6    N2    1.363142 A    
N6    O17   1.300810 A    
C37   N9    1.425154 S    
Zn2   N4    2.024998 S    
C41   H12   1.109344 S    
C25   C27   1.388209 A    
C26   C28   1.383687 A    
O8    Zn2   1.994355 S    
