data_mof_unit_1175.cif
_audit_creation_date              2012-12-11T17:23:11-0500
_audit_creation_method            fapswitch 2.2
_symmetry_space_group_name_H-M    P1
_symmetry_Int_Tables_number       1
_space_group_crystal_system       triclinic
_cell_length_a                    22.42834
_cell_length_b                    7.093723
_cell_length_c                    19.381458
_cell_angle_alpha                 90.117804
_cell_angle_beta                  99.55102
_cell_angle_gamma                 89.976593
_cell_volume                      3040.84779604

loop_
_atom_site_label
_atom_site_type_symbol
_atom_type_description
_atom_site_fract_x
_atom_site_fract_y
_atom_site_fract_z
_atom_type_partial_charge
O1    O     O_R   0.443980 0.494320 0.557430 -0.534980
O2    O     O_R   0.556020 0.994320 0.442570 -0.535152
O3    O     O_R   0.441210 0.822520 0.414610 -0.536987
O4    O     O_R   0.558790 0.322520 0.585390 -0.537106
C1    C     C_R   0.426704 0.655182 0.388742 0.691653
C2    C     C_R   0.573338 0.155492 0.611230 0.691757
O5    O     O_R   0.436920 0.823940 0.555180 -0.533884
O6    O     O_R   0.563080 0.323940 0.444820 -0.534455
O7    O     O_R   0.551700 0.995760 0.584140 -0.535226
O8    O     O_R   0.448300 0.495760 0.415860 -0.535225
C3    C     C_R   0.421682 0.655536 0.574975 0.714102
C4    C     C_R   0.578367 0.155219 0.425112 0.713954
O9    O     O_3   0.537660 0.661290 0.509340 -0.370140
O10   O     O_3   0.462340 0.161290 0.490660 -0.369658
V1    V     V_3+5 0.493010 0.935560 0.498270 1.432595
V2    V     V_3+5 0.506990 0.435560 0.501730 1.431631
H1    H     H_    0.656621 0.914898 0.227423 0.153807
H2    H     H_    0.337999 0.390968 0.764473 0.151104
C5    C     C_R   0.740676 0.983384 0.192658 0.485985
C6    C     C_R   0.257862 0.475168 0.804777 0.475444
C7    C     C_R   0.793188 0.095721 0.204372 -0.030617
C8    C     C_R   0.207532 0.596887 0.796624 -0.024265
C9    C     C_R   0.802312 0.219002 0.261952 -0.336660
C10   C     C_R   0.201737 0.734931 0.744134 -0.303418
H3    H     H_    0.843154 0.303107 0.272213 0.155020
H4    H     H_    0.163125 0.828957 0.737299 0.155764
C11   C     C_R   0.759077 0.234747 0.306943 0.487378
C12   C     C_R   0.245409 0.752757 0.699786 0.483718
C13   C     C_R   0.706597 0.122260 0.295283 -0.030324
C14   C     C_R   0.294469 0.626281 0.706223 -0.024618
C15   C     C_R   0.697456 0.999036 0.237677 -0.338676
C16   C     C_R   0.300400 0.488803 0.758934 -0.350927
C17   C     C_1   0.838307 0.082869 0.158274 0.034794
C18   C     C_1   0.162026 0.582194 0.842159 0.041619
C19   C     C_1   0.661564 0.134859 0.341510 0.034369
C20   C     C_1   0.339050 0.637587 0.659383 0.034514
C21   C     C_1   0.623860 0.145137 0.379843 -0.185891
C22   C     C_1   0.376447 0.646532 0.620622 -0.185388
C23   C     C_1   0.876135 0.072445 0.120112 -0.185422
C24   C     C_1   0.124007 0.571582 0.880057 -0.181851
C25   C     C_R   0.633013 0.173534 0.804394 -0.155104
C26   C     C_R   0.367593 0.658429 0.195307 -0.160707
H5    H     H_    0.545836 0.197333 0.740154 0.104699
H6    H     H_    0.454784 0.682215 0.259580 0.105015
H7    H     H_    0.715187 0.166833 0.919555 0.135721
H8    H     H_    0.285665 0.644301 0.079978 0.118216
H9    H     H_    0.614562 0.194158 0.852123 0.116535
H10   H     H_    0.386305 0.671980 0.147460 0.111220
C27   C     C_R   0.615756 0.148391 0.678138 -0.037721
C28   C     C_R   0.384345 0.646666 0.321805 -0.037613
C29   C     C_R   0.910081 0.044308 0.760302 -0.162430
C30   C     C_R   0.089621 0.554471 0.239766 -0.163804
C31   C     C_R   0.873485 0.044643 0.694979 -0.111551
C32   C     C_R   0.126089 0.558726 0.305146 -0.111997
C33   C     C_R   0.811197 0.069680 0.688871 -0.152276
C34   C     C_R   0.188516 0.579830 0.311191 -0.152500
C35   C     C_R   0.783518 0.095619 0.748695 0.075087
C36   C     C_R   0.216479 0.597493 0.251237 0.074502
C37   C     C_R   0.821611 0.096399 0.815886 0.066249
C38   C     C_R   0.178552 0.593561 0.183965 0.068369
C39   C     C_R   0.719429 0.120569 0.744065 0.073919
C40   C     C_R   0.280688 0.618810 0.255827 0.073805
C41   C     C_R   0.695362 0.146884 0.806793 0.134347
C42   C     C_R   0.305080 0.636143 0.192953 0.139399
C43   C     C_R   0.733508 0.147045 0.871685 -0.189790
C44   C     C_R   0.267101 0.631483 0.127963 -0.200448
C45   C     C_R   0.795502 0.121995 0.876276 -0.186311
C46   C     C_R   0.204959 0.610507 0.123433 -0.187379
C47   C     C_R   0.678118 0.120962 0.679654 -0.211398
C48   C     C_R   0.321815 0.623913 0.320341 -0.211850
C49   C     C_R   0.593710 0.175076 0.740690 -0.168534
C50   C     C_R   0.406747 0.664157 0.259100 -0.167977
C51   C     C_R   0.885165 0.070268 0.821115 -0.081545
C52   C     C_R   0.114840 0.571900 0.178823 -0.080665
H11   H     H_    0.692778 0.102013 0.629892 0.097120
H12   H     H_    0.306917 0.611563 0.370207 0.096968
H13   H     H_    0.958330 0.023361 0.763488 0.108047
H14   H     H_    0.041228 0.537354 0.236643 0.105558
H15   H     H_    0.786020 0.067867 0.636492 0.115237
H16   H     H_    0.213565 0.581655 0.363632 0.115002
H17   H     H_    0.893606 0.024654 0.648429 0.127387
H18   H     H_    0.105746 0.545230 0.351801 0.126763
H19   H     H_    0.822939 0.123101 0.927816 0.113455
H20   H     H_    0.177649 0.607762 0.071826 0.109821
O11   O     O_R   0.051730 0.724670 0.084120 -0.534026
O12   O     O_R   0.948270 0.224670 0.915880 -0.533840
O13   O     O_R   0.063080 0.393540 0.944820 -0.532569
O14   O     O_R   0.936920 0.893540 0.055180 -0.534038
C53   C     C_R   0.078231 0.562031 0.924944 0.709240
C54   C     C_R   0.921778 0.062303 0.075059 0.709280
O15   O     O_R   0.058800 0.395030 0.085390 -0.536144
O16   O     O_R   0.941200 0.895030 0.914610 -0.535588
O17   O     O_R   0.943980 0.223310 0.057440 -0.535595
O18   O     O_R   0.056020 0.723310 0.942560 -0.534189
C55   C     C_R   0.073036 0.563723 0.111205 0.679310
C56   C     C_R   0.926982 0.063415 0.888761 0.681232
O19   O     O_3   0.962360 0.556290 0.990650 -0.369393
O20   O     O_3   0.037640 0.056290 0.009350 -0.368277
V3    V     V_3+5 0.006980 0.281990 0.001730 1.438867
V4    V     V_3+5 0.993020 0.781990 0.998270 1.438058
O21   O     O_3   0.729568 0.868281 0.134263 -0.546084
C57   C     C_3   0.741819 0.680160 0.155284 -0.238273
H21   H     H_    0.789198 0.663238 0.182830 0.126983
H22   H     H_    0.736450 0.589650 0.107917 0.172686
H23   H     H_    0.709286 0.629006 0.188520 0.125696
O22   O     O_3   0.263423 0.334118 0.854492 -0.549717
C58   C     C_3   0.304354 0.395087 0.913475 -0.249430
H24   H     H_    0.288294 0.526557 0.936030 0.130955
H25   H     H_    0.350457 0.415995 0.900632 0.132342
H26   H     H_    0.307562 0.284424 0.954282 0.165005
O23   O     O_3   0.770131 0.350138 0.365262 -0.544896
C59   C     C_3   0.758082 0.538247 0.344062 -0.235161
H27   H     H_    0.710760 0.555409 0.316352 0.125217
H28   H     H_    0.790760 0.588905 0.310916 0.126211
H29   H     H_    0.763398 0.629026 0.391353 0.173674
O24   O     O_3   0.237996 0.885824 0.647036 -0.550128
C60   C     C_3   0.254504 0.063680 0.676771 -0.210712
H30   H     H_    0.301894 0.063286 0.705327 0.132890
H31   H     H_    0.222905 0.110285 0.712014 0.154568
H32   H     H_    0.251954 0.168708 0.634053 0.166666

loop_
_geom_bond_atom_site_label_1
_geom_bond_atom_site_label_2
_ccdc_geom_bond_type
C36   C40   A    
C44   C46   A    
C41   C43   A    
C45   H19   S    
O21   C57   S    
C11   C13   A    
C5    O21   S    
O23   C59   S    
O1    C3    A    
C5    C15   A    
C2    O7    A    
C59   H28   S    
O5    C3    A    
C17   C23   T    
C18   C24   T    
C5    C7    A    
C10   H4    S    
H8    C44   S    
C30   C52   A    
C60   H31   S    
C35   C37   A    
C7    C17   S    
O22   C58   S    
C36   C38   A    
O16   C56   A    
O24   C60   S    
C40   C48   A    
C57   H23   S    
C31   H17   S    
C38   C52   A    
C4    C21   S    
C39   C41   A    
C28   C50   A    
C40   C42   A    
C12   O24   S    
C37   C45   A    
C43   C45   A    
C58   H24   S    
C47   H11   S    
C9    C11   A    
C24   C53   S    
C14   C16   A    
O17   V3    S    
C23   C54   S    
C6    O22   S    
C25   C49   A    
O5    V1    S    
O2    C4    A    
O6    V2    S    
C27   C47   A    
C58   H25   S    
C30   H14   S    
C59   H27   S    
O19   V3    S    
C30   C32   A    
O13   V3    S    
C31   C33   A    
C7    C9    A    
C8    C18   S    
C32   C34   A    
C46   H20   S    
C10   C12   A    
O4    C2    A    
C60   H32   S    
C29   C31   A    
C42   C44   A    
O4    V2    S    
C3    C22   S    
C29   H13   S    
O12   V3    S    
C33   H15   S    
O18   V4    S    
O6    C4    A    
C26   C50   A    
C25   H9    S    
O1    V2    S    
C26   H10   S    
C57   H22   S    
O2    V1    S    
O14   V4    S    
O12   C56   A    
O14   C54   A    
O20   V4    S    
C33   C35   A    
H7    C43   S    
H1    C15   S    
C58   H26   S    
C8    C10   A    
C1    C28   S    
H2    C16   S    
C25   C41   A    
C26   C42   A    
C32   H18   S    
O19   V4    S    
O3    V1    S    
O16   V4    S    
C54   O17   A    
C6    C16   A    
C39   C47   A    
C37   C51   A    
H5    C49   S    
C19   C21   T    
C52   C55   S    
C29   C51   A    
C6    C8    A    
O3    C1    A    
C53   O18   A    
C35   C39   A    
C13   C19   S    
C34   H16   S    
C14   C20   S    
C12   C14   A    
O7    V1    S    
C1    O8    A    
C13   C15   A    
O11   V4    S    
O8    V2    S    
C60   H30   S    
C48   H12   S    
O11   C55   A    
C20   C22   T    
C34   C36   A    
H6    C50   S    
C9    H3    S    
C2    C27   S    
C28   C48   A    
C57   H21   S    
O15   C55   A    
C38   C46   A    
O20   V3    S    
C27   C49   A    
O9    V2    S    
O13   C53   A    
O10   V1    S    
C51   C56   S    
O15   V3    S    
C11   O23   S    
C59   H29   S    
