data_mof_unit_462.cif
_audit_creation_date              2012-12-11T15:33:38-0500
_audit_creation_method            fapswitch 2.2
_symmetry_space_group_name_H-M    P1
_symmetry_Int_Tables_number       1
_space_group_crystal_system       triclinic
_cell_length_a                    27.139212
_cell_length_b                    7.203472
_cell_length_c                    22.737538
_cell_angle_alpha                 89.990388
_cell_angle_beta                  101.104842
_cell_angle_gamma                 89.990385
_cell_volume                      4361.88165852

loop_
_atom_site_label
_atom_site_type_symbol
_atom_type_description
_atom_site_fract_x
_atom_site_fract_y
_atom_site_fract_z
_atom_type_partial_charge
O1    O     O_R   0.207310 0.594030 0.676830 -0.532035
O2    O     O_R   0.792690 0.405970 0.323170 -0.532036
O3    O     O_R   0.292690 0.094030 0.823170 -0.532051
O4    O     O_R   0.707310 0.905970 0.176830 -0.532051
O5    O     O_R   0.197320 0.262370 0.795700 -0.539847
O6    O     O_R   0.802680 0.737630 0.204300 -0.539847
O7    O     O_R   0.302680 0.762370 0.704300 -0.539846
O8    O     O_R   0.697320 0.237630 0.295700 -0.539845
C1    C     C_R   0.184665 0.432514 0.811941 0.673195
C2    C     C_R   0.815334 0.567486 0.188059 0.673195
C3    C     C_R   0.315336 0.932511 0.688060 0.673260
C4    C     C_R   0.684664 0.067489 0.311940 0.673260
O9    O     O_R   0.201410 0.264250 0.675590 -0.534223
O10   O     O_R   0.798590 0.735750 0.324410 -0.534223
O11   O     O_R   0.298590 0.764250 0.824410 -0.534250
O12   O     O_R   0.701410 0.235750 0.175590 -0.534250
O13   O     O_R   0.296810 0.094940 0.702210 -0.538111
O14   O     O_R   0.703190 0.905060 0.297790 -0.538112
O15   O     O_R   0.203190 0.594940 0.797790 -0.538110
O16   O     O_R   0.796810 0.405060 0.202210 -0.538110
C5    C     C_R   0.189779 0.432553 0.653477 0.686383
C6    C     C_R   0.810220 0.567446 0.346523 0.686383
C7    C     C_R   0.310223 0.932499 0.846527 0.686353
C8    C     C_R   0.689777 0.067501 0.153473 0.686352
O17   O     O_3   0.281300 0.427390 0.758870 -0.372374
O18   O     O_3   0.718700 0.572610 0.241130 -0.372374
O19   O     O_3   0.218700 0.927390 0.741130 -0.372339
O20   O     O_3   0.781300 0.072610 0.258870 -0.372339
V1    V     V_3+5 0.244190 0.152150 0.748350 1.410529
V2    V     V_3+5 0.755810 0.847850 0.251650 1.410529
V3    V     V_3+5 0.255810 0.652150 0.751650 1.410537
V4    V     V_3+5 0.744190 0.347850 0.248350 1.410537
C9    C     C_R   0.654834 0.062621 0.095121 -0.038730
C10   C     C_R   0.345165 0.937379 0.904879 -0.038729
C11   C     C_R   0.845156 0.562292 0.404870 -0.038517
C12   C     C_R   0.154844 0.437707 0.595130 -0.038517
C13   C     C_R   0.639258 0.125946 0.988761 -0.158146
C14   C     C_R   0.360742 0.874054 0.011239 -0.158147
C15   C     C_R   0.860562 0.622784 0.511392 -0.158049
C16   C     C_R   0.139438 0.377216 0.488608 -0.158049
C17   C     C_R   0.672129 0.116831 0.043785 -0.163072
C18   C     C_R   0.327871 0.883169 0.956215 -0.163072
C19   C     C_R   0.827740 0.614565 0.456314 -0.163214
C20   C     C_R   0.172260 0.385435 0.543686 -0.163214
C21   C     C_R   0.603802 0.018020 0.091094 -0.212314
C22   C     C_R   0.396198 0.981980 0.908906 -0.212314
C23   C     C_R   0.896251 0.518765 0.408835 -0.212229
C24   C     C_R   0.103748 0.481235 0.591165 -0.212229
C25   C     C_R   0.569065 0.029523 0.035440 0.085790
C26   C     C_R   0.430935 0.970476 0.964560 0.085790
C27   C     C_R   0.930929 0.529306 0.464552 0.085831
C28   C     C_R   0.069071 0.470694 0.535448 0.085831
C29   C     C_R   0.588137 0.084240 0.984165 0.136233
C30   C     C_R   0.411863 0.915760 0.015835 0.136233
C31   C     C_R   0.911739 0.582018 0.515941 0.136231
C32   C     C_R   0.088261 0.417982 0.484059 0.136231
C33   C     C_R   0.516252 0.991360 0.028852 0.057479
C34   C     C_R   0.483748 0.008639 0.971148 0.057479
C35   C     C_R   0.983785 0.491976 0.471105 0.057470
C36   C     C_R   0.016215 0.508024 0.528895 0.057470
C37   C     C_R   0.505175 0.062884 0.921989 -0.184812
C38   C     C_R   0.494825 0.937115 0.078011 -0.184812
C39   C     C_R   0.994673 0.560256 0.578169 -0.184768
C40   C     C_R   0.005327 0.439744 0.421831 -0.184768
C41   C     C_R   0.556154 0.099360 0.928517 -0.196622
C42   C     C_R   0.443845 0.900640 0.071483 -0.196621
C43   C     C_R   0.943653 0.595981 0.571668 -0.196612
C44   C     C_R   0.056347 0.404019 0.428332 -0.196612
H1    H     H_    0.570711 0.141182 0.889342 0.127724
H2    H     H_    0.429289 0.858817 0.110659 0.127724
H3    H     H_    0.929007 0.636233 0.610936 0.127705
H4    H     H_    0.070993 0.363767 0.389064 0.127705
H5    H     H_    0.407519 0.020399 0.867693 0.096008
H6    H     H_    0.592481 0.979601 0.132307 0.096008
H7    H     H_    0.092349 0.518267 0.632452 0.095833
H8    H     H_    0.907651 0.481732 0.367548 0.095834
H9    H     H_    0.288777 0.846564 0.953560 0.109964
H10   H     H_    0.711223 0.153436 0.046440 0.109964
H11   H     H_    0.211413 0.349743 0.546289 0.109858
H12   H     H_    0.788587 0.650257 0.453711 0.109858
H13   H     H_    0.653778 0.168444 0.949647 0.118461
H14   H     H_    0.346222 0.831556 0.050353 0.118461
H15   H     H_    0.845950 0.663731 0.550596 0.118443
H16   H     H_    0.154050 0.336269 0.449404 0.118443
C45   C     C_R   0.629596 0.881863 0.367738 -0.160349
C46   C     C_R   0.370403 0.118137 0.632262 -0.160349
C47   C     C_R   0.870365 0.381858 0.132208 -0.160347
C48   C     C_R   0.129635 0.618141 0.867792 -0.160347
H17   H     H_    0.644845 0.754306 0.353472 0.124659
H18   H     H_    0.355155 0.245694 0.646528 0.124659
H19   H     H_    0.855088 0.254306 0.146434 0.124670
H20   H     H_    0.144912 0.745694 0.853566 0.124670
C49   C     C_R   0.593691 0.868904 0.404261 -0.140503
C50   C     C_R   0.406309 0.131096 0.595739 -0.140503
C51   C     C_R   0.906269 0.368900 0.095684 -0.140505
C52   C     C_R   0.093731 0.631100 0.904316 -0.140505
H21   H     H_    0.582601 0.732284 0.416750 0.133718
H22   H     H_    0.417399 0.267716 0.583250 0.133718
H23   H     H_    0.917332 0.232285 0.083157 0.133725
H24   H     H_    0.082668 0.767715 0.916843 0.133725
C53   C     C_R   0.572593 0.029382 0.424492 0.020122
C54   C     C_R   0.427407 0.970618 0.575508 0.020122
C55   C     C_R   0.927404 0.529374 0.075504 0.020111
C56   C     C_R   0.072596 0.470626 0.924496 0.020111
C57   C     C_R   0.588348 0.203605 0.406816 -0.134723
C58   C     C_R   0.411652 0.796395 0.593184 -0.134723
C59   C     C_R   0.911685 0.703591 0.093231 -0.134732
C60   C     C_R   0.088315 0.296409 0.906769 -0.134732
H25   H     H_    0.572976 0.330430 0.421430 0.138874
H26   H     H_    0.427024 0.669570 0.578570 0.138874
H27   H     H_    0.927085 0.830412 0.078656 0.138876
H28   H     H_    0.072915 0.169588 0.921344 0.138876
C61   C     C_R   0.624351 0.216708 0.370148 -0.160261
C62   C     C_R   0.375649 0.783292 0.629852 -0.160261
C63   C     C_R   0.875681 0.716693 0.129898 -0.160270
C64   C     C_R   0.124319 0.283307 0.870102 -0.160270
H29   H     H_    0.635617 0.353197 0.357770 0.120813
H30   H     H_    0.364383 0.646803 0.642230 0.120813
H31   H     H_    0.864443 0.853180 0.142315 0.120842
H32   H     H_    0.135557 0.146820 0.857685 0.120842
C65   C     C_R   0.645632 0.055872 0.350147 -0.047184
C66   C     C_R   0.354368 0.944128 0.649853 -0.047184
C67   C     C_R   0.854365 0.555863 0.149849 -0.047207
C68   C     C_R   0.145635 0.444137 0.850150 -0.047207
N1    N     N_R   0.514154 0.168485 0.483909 -0.280034
N2    N     N_R   0.485846 0.831515 0.516091 -0.280034
N3    N     N_R   0.985918 0.668467 0.016189 -0.280045
N4    N     N_R   0.014082 0.331532 0.983811 -0.280045
N5    N     N_R   0.480326 0.154492 0.519192 -0.285326
N6    N     N_R   0.519674 0.845508 0.480808 -0.285326
N7    N     N_R   0.019747 0.654479 0.980909 -0.285329
N8    N     N_R   0.980253 0.345521 0.019091 -0.285329
C69   C     C_R   0.465375 0.985733 0.536132 0.512850
C70   C     C_R   0.534625 0.014267 0.463868 0.512850
C71   C     C_R   0.034627 0.485737 0.963870 0.512866
C72   C     C_R   0.965372 0.514263 0.036130 0.512866
H33   H     H_    0.483486 0.079214 0.877404 0.125838
H34   H     H_    0.516514 0.920786 0.122596 0.125838
H35   H     H_    0.016299 0.575513 0.622828 0.125839
H36   H     H_    0.983701 0.424487 0.377172 0.125839

loop_
_geom_bond_atom_site_label_1
_geom_bond_atom_site_label_2
_ccdc_geom_bond_type
N1    C70   A    
O17   V3    S    
C48   C52   A    
O1    C5    A    
C56   C71   S    
C47   H19   S    
O19   V1    S    
C9    C21   A    
C16   H16   S    
O3    C7    A    
C10   C18   A    
C48   C68   A    
O15   V3    S    
C25   C33   A    
C33   C38   A    
C5    C12   S    
C53   C70   S    
O7    C3    A    
C6    C11   S    
C35   C40   A    
C26   C30   A    
C28   C36   A    
C58   C62   A    
C36   C39   A    
C40   C44   A    
C57   C61   A    
C23   H8    S    
C14   C18   A    
N7    C71   A    
C40   H36   S    
O4    C8    A    
C51   H23   S    
C44   H4    S    
C50   H22   S    
O1    V3    S    
C1    C68   S    
O13   V1    S    
O2    V4    S    
O3    V1    S    
C46   C50   A    
C45   C49   A    
C1    O15   A    
C15   C31   A    
C4    C65   S    
C48   H20   S    
N2    C69   A    
C2    O16   A    
C16   C32   A    
C47   C51   A    
O2    C6    A    
C45   C65   A    
C10   C22   A    
C11   C19   A    
C16   C20   A    
C43   H3    S    
N8    C72   A    
C13   C29   A    
C34   C37   A    
O11   C7    A    
C11   C23   A    
C35   C36   A    
O12   C8    A    
C14   H14   S    
O10   C6    A    
C24   H7    S    
C13   H13   S    
N6    C70   A    
C39   H35   S    
O10   V2    S    
N4    N8    A    
C51   C55   A    
O5    V1    S    
C53   C57   A    
C39   C43   A    
O7    V3    S    
C38   C42   A    
C26   C34   A    
C63   C67   A    
N3    C72   A    
C2    C67   S    
C46   H18   S    
N4    C71   A    
C49   C53   A    
C17   H10   S    
C45   H17   S    
O18   V4    S    
C23   C27   A    
C19   H12   S    
C32   C44   A    
C64   H32   S    
C21   H6    S    
O8    V4    S    
C55   C72   S    
O5    C1    A    
C37   C41   A    
C31   C43   A    
C14   C30   A    
C21   C25   A    
O8    C4    A    
C7    C10   S    
O9    C5    A    
C38   H34   S    
C59   C63   A    
C62   H30   S    
C61   H29   S    
O6    V2    S    
C63   H31   S    
C52   C56   A    
N1    N5    A    
O14   V2    S    
N5    C69   A    
C12   C20   A    
C3    C66   S    
C27   C35   A    
C49   H21   S    
C56   C60   A    
C29   C41   A    
O16   V4    S    
O9    V1    S    
C57   H25   S    
C3    O13   A    
C64   C68   A    
C59   H27   S    
C20   H11   S    
O6    C2    A    
C15   C19   A    
O11   V3    S    
C30   C42   A    
O12   V4    S    
C22   C26   A    
C8    C9    S    
C9    C17   A    
C60   C64   A    
O20   V2    S    
C54   C69   S    
C15   H15   S    
C47   C67   A    
C37   H33   S    
C33   C34   A    
C42   H2    S    
C41   H1    S    
C52   H24   S    
C12   C24   A    
C27   C31   A    
C13   C17   A    
C46   C66   A    
N3    N7    A    
C25   C29   A    
C62   C66   A    
C60   H28   S    
C24   C28   A    
C61   C65   A    
C50   C54   A    
C18   H9    S    
C58   H26   S    
C54   C58   A    
C4    O14   A    
N2    N6    A    
C55   C59   A    
C22   H5    S    
O4    V2    S    
C28   C32   A    
