data_mof_unit_1928.cif
_audit_creation_date              2012-12-11T14:54:39-0500
_audit_creation_method            fapswitch 2.2
_symmetry_space_group_name_H-M    P1
_symmetry_Int_Tables_number       1
_space_group_crystal_system       triclinic
_cell_length_a                    19.00366
_cell_length_b                    10.867243
_cell_length_c                    18.796645
_cell_angle_alpha                 89.982176
_cell_angle_beta                  90.057486
_cell_angle_gamma                 90.171354
_cell_volume                      3881.81458896

loop_
_atom_site_label
_atom_site_type_symbol
_atom_type_description
_atom_site_fract_x
_atom_site_fract_y
_atom_site_fract_z
_atom_type_partial_charge
C1    C     C_R   0.728301 0.373489 0.644199 0.544115
C2    C     C_R   0.307148 0.876941 0.462127 -0.140680
C3    C     C_R   0.043701 0.559314 0.446911 -0.147810
C4    C     C_R   0.208355 0.347809 0.540692 -0.158480
C5    C     C_R   0.807103 0.376781 0.462103 -0.140671
C6    C     C_R   0.710027 0.832416 0.467424 -0.142073
C7    C     C_R   0.302471 0.866859 0.535662 -0.147444
C8    C     C_R   0.210028 0.332415 0.467424 -0.142072
C9    C     C_R   0.802441 0.366714 0.535641 -0.147395
C10   C     C_R   0.750178 0.913234 0.425093 0.025494
C11   C     C_R   0.239886 0.899750 0.569648 0.031939
C12   C     C_R   0.250177 0.413237 0.425092 0.025485
C13   C     C_R   0.269747 0.376714 0.354032 0.542302
C14   C     C_R   0.739898 0.399783 0.569653 0.031946
C15   C     C_R   0.784859 0.013149 0.455631 -0.143428
C16   C     C_R   0.181506 0.937796 0.529447 -0.133808
C17   C     C_R   0.284855 0.513162 0.455628 -0.143428
C18   C     C_R   0.681547 0.438026 0.529475 -0.133819
C19   C     C_R   0.784015 0.027244 0.528251 -0.128926
C20   C     C_R   0.185191 0.942884 0.456778 -0.137762
C21   C     C_R   0.284007 0.527268 0.528247 -0.128931
C22   C     C_R   0.685214 0.443094 0.456807 -0.137734
C23   C     C_R   0.746744 0.943768 0.571308 0.027946
C24   C     C_R   0.228298 0.873482 0.644197 0.544097
C25   C     C_R   0.248836 0.918594 0.422832 0.029285
C26   C     C_R   0.246741 0.443780 0.571307 0.027935
C27   C     C_R   0.748821 0.418606 0.422831 0.029303
C28   C     C_R   0.557048 0.057677 0.979537 -0.131665
C29   C     C_R   0.537543 0.060173 0.050549 -0.128479
C30   C     C_R   0.056965 0.557580 0.979507 -0.131691
C31   C     C_R   0.037452 0.560064 0.050516 -0.128552
C32   C     C_R   0.507444 0.166629 0.079736 0.026845
C33   C     C_R   0.547959 0.161857 0.936842 0.028313
C34   C     C_R   0.007483 0.666601 0.079748 0.026829
C35   C     C_R   0.769747 0.876714 0.354032 0.542293
C36   C     C_R   0.048022 0.661855 0.936856 0.028296
C37   C     C_R   0.503385 0.274133 0.038636 -0.138822
C38   C     C_R   0.523732 0.271854 0.967459 -0.132245
C39   C     C_R   0.003602 0.774198 0.038702 -0.138697
C40   C     C_R   0.023973 0.771940 0.967528 -0.132031
C41   C     C_R   0.564978 0.150902 0.639088 0.564670
C42   C     C_R   0.469033 0.155333 0.353311 0.545076
C43   C     C_R   0.064972 0.650902 0.639087 0.564652
C44   C     C_R   0.969032 0.655333 0.353310 0.545092
C45   C     C_R   0.786610 0.027055 0.973102 -0.125436
C46   C     C_3   0.451719 0.359573 0.474274 -0.258647
C47   C     C_R   0.185677 0.949921 0.040534 -0.136339
C48   C     C_R   0.286658 0.526987 0.973093 -0.125452
C49   C     C_R   0.685590 0.449206 0.040646 -0.136410
C50   C     C_R   0.787717 0.013479 0.045770 -0.136148
C51   C     C_R   0.182171 0.944848 0.967846 -0.133804
C52   C     C_R   0.287752 0.513439 0.045763 -0.136175
C53   C     C_R   0.682013 0.444034 0.967958 -0.133722
C54   C     C_R   0.750449 0.916986 0.076945 0.030872
C55   C     C_R   0.240091 0.903744 0.928134 0.034875
C56   C     C_R   0.250447 0.416998 0.076948 0.030921
C57   C     C_3   0.474113 0.356864 0.551757 -0.261592
C58   C     C_R   0.740019 0.403546 0.928175 0.034805
C59   C     C_R   0.707416 0.839789 0.035213 -0.137656
C60   C     C_R   0.302093 0.868289 0.962589 -0.142225
C61   C     C_R   0.207382 0.339841 0.035223 -0.137607
C62   C     C_R   0.802148 0.368645 0.962551 -0.142424
C63   C     C_R   0.705650 0.854522 0.961942 -0.152820
C64   C     C_R   0.306620 0.878180 0.036114 -0.137784
C65   C     C_R   0.205616 0.354562 0.961952 -0.152763
C66   C     C_R   0.806724 0.378584 0.036068 -0.137835
C67   C     C_R   0.746642 0.946455 0.930638 0.033679
C68   C     C_3   0.951625 0.859481 0.474300 -0.258602
C69   C     C_R   0.248750 0.922288 0.074982 0.031267
C70   C     C_R   0.246647 0.446437 0.930637 0.033729
C71   C     C_R   0.748780 0.422188 0.075006 0.031162
C72   C     C_R   0.740582 0.972744 0.645991 0.543044
C73   C     C_R   0.258430 0.967581 0.352015 0.545125
C74   C     C_R   0.240581 0.472749 0.645990 0.543046
C75   C     C_R   0.758428 0.467580 0.352014 0.545127
C76   C     C_R   0.728236 0.375661 0.853872 0.544912
C77   C     C_R   0.269874 0.378882 0.147858 0.548030
C78   C     C_R   0.228256 0.875711 0.853854 0.544926
C79   C     C_3   0.974014 0.856767 0.551784 -0.261592
C80   C     C_R   0.769875 0.878879 0.147858 0.548028
C81   C     C_R   0.564169 0.153195 0.860922 0.563384
C82   C     C_R   0.469484 0.157364 0.147252 0.548032
C83   C     C_R   0.064188 0.653193 0.860919 0.563461
C84   C     C_R   0.969489 0.657361 0.147252 0.548018
C85   C     C_R   0.740358 0.974974 0.855889 0.545711
C86   C     C_R   0.258530 0.969602 0.146144 0.547429
C87   C     C_R   0.240359 0.474968 0.855888 0.545714
C88   C     C_R   0.758536 0.469594 0.146148 0.547416
C89   C     C_R   0.511038 0.164700 0.418353 0.016391
C90   C     C_R   0.708352 0.847807 0.540692 -0.158475
C91   C     C_R   0.551784 0.158877 0.562556 0.015862
C92   C     C_R   0.011026 0.664708 0.418357 0.016404
C93   C     C_R   0.051763 0.658875 0.562560 0.015880
C94   C     C_R   0.510278 0.271714 0.459647 0.005044
C95   C     C_R   0.530592 0.268937 0.530374 0.012465
C96   C     C_R   0.010221 0.771702 0.459664 0.004993
C97   C     C_R   0.030527 0.768918 0.530392 0.012355
C98   C     C_R   0.563405 0.056293 0.518721 -0.152008
C99   C     C_R   0.543684 0.059287 0.446917 -0.147835
C100  C     C_R   0.063418 0.556316 0.518715 -0.151996
Cr1   Cr    Cr6+3 0.771950 0.169480 0.750100 1.008319
Cr2   Cr    Cr6+3 0.383410 0.010620 0.249390 1.010320
Cr3   Cr    Cr6+3 0.116590 0.510620 0.750610 1.009505
Cr4   Cr    Cr6+3 0.883410 0.510620 0.249390 1.010284
Cr5   Cr    Cr6+3 0.228050 0.169480 0.249900 1.007974
Cr6   Cr    Cr6+3 0.271950 0.669480 0.750100 1.008314
Cr7   Cr    Cr6+3 0.728050 0.669480 0.249900 1.007983
Cr8   Cr    Cr6+3 0.614930 0.323340 0.749170 1.009914
Cr9   Cr    Cr6+3 0.385070 0.323340 0.250830 1.013079
Cr10  Cr    Cr6+3 0.114930 0.823340 0.749170 1.009920
Cr11  Cr    Cr6+3 0.885070 0.823340 0.250830 1.013100
Cr12  Cr    Cr6+3 0.616590 0.010620 0.750610 1.009532
H1    H     H_    0.582894 0.971279 0.541065 0.136224
H2    H     H_    0.132810 0.970411 0.943182 0.130818
H3    H     H_    0.320888 0.574094 0.077104 0.125287
H4    H     H_    0.632558 0.469103 0.943342 0.130939
H5    H     H_    0.678486 0.763780 0.058490 0.137019
H6    H     H_    0.346589 0.833398 0.932882 0.124267
H7    H     H_    0.178427 0.263868 0.058508 0.136877
H8    H     H_    0.846712 0.334212 0.932785 0.124336
H9    H     H_    0.673003 0.794227 0.929910 0.120807
H10   H     H_    0.356113 0.856954 0.061928 0.131533
H11   H     H_    0.172941 0.294299 0.929927 0.120693
H12   H     H_    0.547941 0.975587 0.415962 0.134762
H13   H     H_    0.856311 0.357851 0.061813 0.131771
H14   H     H_    0.898819 0.817978 0.465186 0.163316
H15   H     H_    0.995754 0.946062 0.570631 0.132940
H16   H     H_    0.398895 0.318133 0.465171 0.163329
H17   H     H_    0.495887 0.446143 0.570590 0.132914
H18   H     H_    0.460431 0.450442 0.448527 0.136446
H19   H     H_    0.434117 0.314375 0.587359 0.159839
H20   H     H_    0.960301 0.950372 0.448567 0.136473
H21   H     H_    0.934033 0.814214 0.587377 0.159843
H22   H     H_    0.677833 0.785057 0.573233 0.121759
H23   H     H_    0.082935 0.471316 0.541052 0.136227
H24   H     H_    0.357097 0.858290 0.436686 0.132723
H25   H     H_    0.177838 0.285054 0.573233 0.121787
H26   H     H_    0.857021 0.357966 0.436638 0.132649
H27   H     H_    0.815951 0.076223 0.423802 0.126441
H28   H     H_    0.131739 0.961408 0.553755 0.137523
H29   H     H_    0.315945 0.576240 0.423797 0.126468
H30   H     H_    0.631808 0.461789 0.553799 0.137464
H31   H     H_    0.812273 0.104756 0.550559 0.140522
H32   H     H_    0.139323 0.974228 0.427713 0.131567
H33   H     H_    0.312255 0.604798 0.550554 0.140562
H34   H     H_    0.047987 0.475632 0.415945 0.134763
H35   H     H_    0.639365 0.474578 0.427763 0.131570
H36   H     H_    0.576771 0.972787 0.957211 0.129234
H37   H     H_    0.542141 0.976339 0.081390 0.129000
H38   H     H_    0.076572 0.472625 0.957150 0.129220
H39   H     H_    0.041928 0.476160 0.081314 0.129006
H40   H     H_    0.480441 0.357402 0.060009 0.129266
H41   H     H_    0.517318 0.354331 0.935824 0.128459
H42   H     H_    0.980781 0.857543 0.060115 0.129164
H43   H     H_    0.017701 0.854504 0.935935 0.128453
H44   H     H_    0.683349 0.753546 0.444572 0.139574
H45   H     H_    0.816767 0.101975 0.950344 0.137187
H46   H     H_    0.347366 0.834378 0.565756 0.123605
H47   H     H_    0.183350 0.253539 0.444573 0.139607
H48   H     H_    0.847310 0.334083 0.565715 0.123585
H49   H     H_    0.140133 0.983348 0.069241 0.128744
H50   H     H_    0.316858 0.601849 0.950329 0.137058
H51   H     H_    0.639997 0.482217 0.069422 0.128774
H52   H     H_    0.820827 0.074162 0.077118 0.125350
O1    O     O_R   0.787510 0.042610 0.670410 -0.521017
O2    O     O_R   0.454250 0.051070 0.169440 -0.524980
O3    O     O_R   0.045750 0.551070 0.830560 -0.506064
O4    O     O_R   0.954250 0.551070 0.169440 -0.525083
O5    O     O_R   0.681210 0.959150 0.825320 -0.521603
O6    O     O_R   0.318790 0.959150 0.174680 -0.505769
O7    O     O_R   0.181210 0.459150 0.825320 -0.521608
O8    O     O_R   0.818790 0.459150 0.174680 -0.505849
O9    O     O_3   0.667820 0.167810 0.749960 -0.289601
O10   O     O_3   0.332180 0.167810 0.250040 -0.238806
O11   O     O_3   0.167820 0.667810 0.749960 -0.289596
O12   O     O_R   0.212490 0.042610 0.329590 -0.527613
O13   O     O_3   0.832180 0.667810 0.250040 -0.238806
O14   O     O_R   0.765670 0.292090 0.675090 -0.503863
O15   O     O_R   0.234330 0.292090 0.324910 -0.506748
O16   O     O_R   0.265670 0.792090 0.675090 -0.503866
O17   O     O_R   0.734330 0.792090 0.324910 -0.506752
O18   O     O_R   0.670220 0.409020 0.668560 -0.532574
O19   O     O_R   0.329780 0.409020 0.331440 -0.528080
O20   O     O_R   0.170220 0.909020 0.668560 -0.532585
O21   O     O_R   0.829780 0.909020 0.331440 -0.528087
O22   O     O_R   0.556580 0.251590 0.674980 -0.493189
O23   O     O_R   0.287510 0.542610 0.670410 -0.521008
O24   O     O_R   0.443420 0.251590 0.325020 -0.499556
O25   O     O_R   0.056580 0.751590 0.674980 -0.493200
O26   O     O_R   0.943420 0.751590 0.325020 -0.499565
O27   O     O_R   0.545890 0.049670 0.670030 -0.507969
O28   O     O_R   0.454110 0.049670 0.329970 -0.526284
O29   O     O_R   0.045890 0.549670 0.670030 -0.507954
O30   O     O_R   0.954110 0.549670 0.329970 -0.526247
O31   O     O_R   0.681340 0.957860 0.676500 -0.519605
O32   O     O_R   0.318660 0.957860 0.323500 -0.506751
O33   O     O_R   0.181340 0.457860 0.676500 -0.519608
O34   O     O_R   0.712490 0.542610 0.329590 -0.527648
O35   O     O_R   0.818660 0.457860 0.323500 -0.506721
O36   O     O_R   0.787380 0.044010 0.830940 -0.519245
O37   O     O_R   0.212620 0.044010 0.169060 -0.527478
O38   O     O_R   0.287380 0.544010 0.830940 -0.519272
O39   O     O_R   0.712620 0.544010 0.169060 -0.527404
O40   O     O_R   0.765540 0.293390 0.823910 -0.503815
O41   O     O_R   0.234460 0.293390 0.176090 -0.507122
O42   O     O_R   0.265540 0.793390 0.823910 -0.503820
O43   O     O_R   0.734460 0.793390 0.176090 -0.507123
O44   O     O_R   0.670090 0.410410 0.829090 -0.533061
O45   O     O_R   0.556450 0.252890 0.823790 -0.497582
O46   O     O_R   0.329910 0.410410 0.170910 -0.522859
O47   O     O_R   0.170090 0.910410 0.829090 -0.533098
O48   O     O_R   0.829910 0.910410 0.170910 -0.522819
O49   O     O_R   0.443550 0.252890 0.176210 -0.502811
O50   O     O_R   0.056450 0.752890 0.823790 -0.497506
O51   O     O_R   0.943550 0.752890 0.176210 -0.502759
O52   O     O_R   0.545750 0.051070 0.830560 -0.505985

loop_
_geom_bond_atom_site_label_1
_geom_bond_atom_site_label_2
_ccdc_geom_bond_type
C58   C62   A    
C81   O45   A    
C21   C26   A    
Cr2   O6    S    
C88   O8    A    
C53   C58   A    
C93   C97   A    
C61   H7    S    
C72   O1    A    
C20   H32   S    
Cr1   O9    S    
C2    C7    A    
C4    C8    A    
C72   O31   A    
Cr8   O45   S    
Cr1   O36   S    
C58   C76   S    
C5    H26   S    
C7    H46   S    
Cr10  O11   S    
C7    C11   A    
C50   C54   A    
Cr7   O17   S    
C57   H17   S    
C28   C29   A    
Cr10  O50   S    
C25   C73   S    
Cr11  O51   S    
Cr6   O23   S    
C29   C32   A    
Cr9   O49   S    
C10   C15   A    
C30   C31   A    
C90   H22   S    
C49   C53   A    
C52   H3    S    
C81   O52   A    
Cr4   O4    S    
C20   C25   A    
C36   C83   S    
C65   C70   A    
C11   C24   S    
C92   C96   A    
C76   O44   A    
C17   H29   S    
Cr3   O33   S    
C89   C94   A    
C68   H20   S    
C14   C18   A    
Cr11  O48   S    
C47   C69   A    
Cr1   O14   S    
C44   O26   A    
C4    H25   S    
C5    C27   A    
C3    C100  A    
Cr4   O13   S    
Cr12  O5    S    
C13   O19   A    
Cr5   O12   S    
C12   C17   A    
C24   O16   A    
Cr2   O28   S    
Cr6   O11   S    
C40   H43   S    
C60   H6    S    
C10   C35   S    
C87   O38   A    
Cr7   O43   S    
C44   C92   S    
C100  H23   S    
C16   C20   A    
C76   O40   A    
C80   O48   A    
Cr9   O19   S    
C68   C79   S    
C65   H11   S    
Cr12  O9    S    
Cr10  O20   S    
Cr2   O2    S    
C26   C74   S    
C86   O6    A    
C55   C60   A    
Cr7   O13   S    
Cr3   O7    S    
Cr7   O39   S    
C16   H28   S    
C34   C84   S    
Cr5   O15   S    
C27   C75   S    
C70   C87   S    
Cr6   O16   S    
C63   H9    S    
C57   H19   S    
C15   H27   S    
C54   C59   A    
Cr9   O24   S    
C79   H21   S    
C63   C67   A    
Cr11  O21   S    
C51   H2    S    
C67   C85   S    
C62   C66   A    
C39   H42   S    
C50   H52   S    
C34   C39   A    
C32   C37   A    
C18   H30   S    
C45   H45   S    
C39   C40   A    
C55   C78   S    
C41   O27   A    
Cr9   O10   S    
C46   H18   S    
C98   H1    S    
C47   C51   A    
C64   C69   A    
C9    H48   S    
C6    C90   A    
C83   O3    A    
C42   O28   A    
C85   O5    A    
C56   C77   S    
C3    C92   A    
C84   O51   A    
C21   H33   S    
C15   C19   A    
C9    C14   A    
C78   O42   A    
Cr12  O31   S    
C5    C9    A    
C37   C38   A    
C84   O4    A    
Cr8   O18   S    
C77   O41   A    
Cr6   O38   S    
C82   O49   A    
C31   H39   S    
C1    O14   A    
C85   O36   A    
Cr5   O37   S    
C66   C71   A    
C46   C94   S    
C74   O33   A    
C36   C40   A    
C8    C12   A    
C87   O7    A    
Cr8   O9    S    
Cr3   O11   S    
C23   C90   A    
C68   C96   S    
Cr3   O3    S    
C22   H35   S    
Cr1   O1    S    
C93   C100  A    
C77   O46   A    
Cr11  O26   S    
C41   C91   S    
C89   C99   A    
C28   C33   A    
Cr5   O10   S    
C54   C80   S    
C57   C95   S    
C22   C27   A    
Cr4   O35   S    
C35   O17   A    
C37   H40   S    
Cr9   O46   S    
C68   H14   S    
Cr4   O8    S    
C83   O50   A    
C31   C34   A    
C96   C97   A    
C19   C23   A    
C74   O23   A    
C82   O2    A    
C75   O34   A    
C42   O24   A    
Cr8   O44   S    
C79   H15   S    
C19   H31   S    
C18   C22   A    
C28   H36   S    
C62   H8    S    
C23   C72   S    
C79   C97   S    
C48   C70   A    
Cr1   O40   S    
Cr2   O32   S    
Cr6   O42   S    
Cr7   O34   S    
C4    C26   A    
C1    O18   A    
C53   H4    S    
Cr5   O41   S    
C45   C67   A    
C75   O35   A    
C24   O20   A    
Cr2   O10   S    
C32   C82   S    
C43   O29   A    
Cr10  O25   S    
C59   C63   A    
C33   C38   A    
C66   H13   S    
C30   C36   A    
C60   C64   A    
C42   C89   S    
Cr10  O47   S    
C46   C57   S    
C13   O15   A    
C35   O21   A    
Cr12  O27   S    
C86   O37   A    
C91   C98   A    
C45   C50   A    
C73   O12   A    
C64   H10   S    
C44   O30   A    
C43   C93   S    
C91   C95   A    
C41   O22   A    
C2    C25   A    
C51   C55   A    
Cr12  O52   S    
C88   O39   A    
C94   C95   A    
C2    H24   S    
C46   H16   S    
C49   H51   S    
C11   C16   A    
C30   H38   S    
C6    C10   A    
C29   H37   S    
C71   C88   S    
C47   H49   S    
C61   C65   A    
C48   C52   A    
C80   O43   A    
C48   H50   S    
C12   C13   S    
C43   O25   A    
C3    H34   S    
C59   H5    S    
C98   C99   A    
C49   C71   A    
C73   O32   A    
Cr11  O13   S    
Cr4   O30   S    
C56   C61   A    
C1    C14   S    
Cr3   O29   S    
C38   H41   S    
Cr8   O22   S    
C8    H47   S    
C33   C81   S    
C78   O47   A    
C6    H44   S    
C69   C86   S    
C52   C56   A    
C99   H12   S    
C17   C21   A    
