data_mof_unit_154.cif
_audit_creation_date              2013-03-05T16:35:31-0500
_audit_creation_method            fapswitch 2.2
_symmetry_space_group_name_H-M    P1
_symmetry_Int_Tables_number       1
_space_group_crystal_system       triclinic
_cell_length_a                    15.915504
_cell_length_b                    9.084548
_cell_length_c                    7.80263
_cell_angle_alpha                 89.998557
_cell_angle_beta                  90.963842
_cell_angle_gamma                 89.993517
_cell_volume                      1127.98487826

loop_
_atom_site_label
_atom_site_type_symbol
_atom_site_description
_atom_site_fract_x
_atom_site_fract_y
_atom_site_fract_z
_atom_type_partial_charge
O1    O     O_R   0.500000 0.288400 0.642760 -0.576157
O2    O     O_R   0.500000 0.711600 0.357240 -0.576157
O3    O     O_R   0.500000 0.288400 0.357240 -0.576716
O4    O     O_R   0.500000 0.711600 0.642760 -0.576715
C1    C     C_1   0.500000 0.065405 0.500002 -0.161621
C2    C     C_1   0.500000 0.934595 0.499998 -0.161620
C3    C     C_R   0.500000 0.220102 0.500001 0.839965
C4    C     C_R   0.500000 0.779898 0.499999 0.839966
O5    O     O_R   0.379080 0.500000 0.642760 -0.566066
O6    O     O_R   0.620920 0.500000 0.357240 -0.566065
O7    O     O_R   0.379070 0.500000 0.357190 -0.574873
O8    O     O_R   0.620930 0.500000 0.642810 -0.574874
C5    C     C_R   0.339527 0.500019 0.498483 0.809067
C6    C     C_R   0.660473 0.499980 0.501517 0.809067
Cu1   Cu    Cu3+1 0.500010 0.500000 0.669080 1.032830
Cu2   Cu    Cu3+1 0.499990 0.500000 0.330920 1.032830
N1    N     N_1   0.499990 0.500000 0.076820 -0.035747
N2    N     N_1   0.500010 0.500000 0.923180 -0.035746
C7    C     C_3   0.974248 0.375139 0.575734 0.033578
C8    C     C_3   0.025752 0.624862 0.424264 0.033580
C9    C     C_3   0.025219 0.382539 0.408647 0.029713
C10   C     C_3   0.974781 0.617462 0.591352 0.029717
C11   C     C_1   0.250159 0.500005 0.494355 -0.125986
C12   C     C_1   0.749840 0.499995 0.505645 -0.125983
C13   C     C_3   0.032540 0.492375 0.656844 0.371765
C14   C     C_3   0.967460 0.507625 0.343154 0.371759
C15   C     C_3   0.083507 0.499778 0.491606 -0.064440
C16   C     C_3   0.916493 0.500222 0.508393 -0.064440
C17   C     C_1   0.174896 0.499946 0.491206 0.073724
C18   C     C_1   0.825104 0.500054 0.508794 0.073730
C19   C     C_3   0.055112 0.249765 0.307642 -0.696810
H1    H     H_    0.000289 0.183377 0.263989 0.243749
H2    H     H_    0.090840 0.287279 0.195004 0.285202
H3    H     H_    0.096487 0.180600 0.390463 0.214015
C20   C     C_3   0.944888 0.750233 0.692360 -0.696819
H4    H     H_    0.999711 0.816625 0.736005 0.243751
H5    H     H_    0.903509 0.819396 0.609544 0.214019
H6    H     H_    0.909165 0.712718 0.805004 0.285197
C21   C     C_3   0.944578 0.234321 0.661215 -0.727442
H7    H     H_    0.999624 0.166720 0.700887 0.248649
H8    H     H_    0.907062 0.261722 0.775278 0.272836
H9    H     H_    0.904928 0.170434 0.569555 0.215382
C22   C     C_3   0.055421 0.765678 0.338781 -0.727452
H10   H     H_    0.000374 0.833278 0.299108 0.248644
H11   H     H_    0.095070 0.829568 0.430441 0.215387
H12   H     H_    0.092937 0.738277 0.224719 0.272839
N3    N     N_R   0.928041 0.518706 0.173799 0.162652
O9    O     O_R   0.929455 0.407496 0.069166 -0.352515
O10   O     O_R   0.882683 0.633388 0.135061 -0.374760
N4    N     N_R   0.071960 0.481294 0.826199 0.162674
O11   O     O_R   0.070573 0.592522 0.930807 -0.352533
O12   O     O_R   0.117296 0.366591 0.864955 -0.374750

loop_
_geom_bond_atom_site_label_1
_geom_bond_atom_site_label_2
_geom_bond_distance
_ccdc_geom_bond_type
Cu1   N2    1.982648 S    
N4    O12   1.300137 A    
C9    C14   1.543181 S    
C19   H2    1.108488 S    
O1    Cu1   1.933235 S    
C8    C15   1.547813 S    
C13   C15   1.536223 S    
C9    C19   1.521467 S    
O7    Cu2   1.938812 S    
C14   C16   1.536225 S    
N3    O9    1.299378 A    
O8    Cu1   1.938813 S    
O4    C4    1.275043 A    
C8    C22   1.521522 S    
O4    Cu1   1.933224 S    
C16   C18   1.454567 S    
N4    O11   1.299372 A    
C9    C15   1.547258 S    
C19   H3    1.109773 S    
C21   H8    1.108338 S    
O6    Cu2   1.932151 S    
C10   C20   1.521468 S    
O7    C5    1.278602 A    
C7    C21   1.521523 S    
C14   N3    1.456699 S    
C2    C4    1.405355 S    
C11   C17   1.197692 T    
C7    C9    1.548520 S    
O8    C6    1.278602 A    
N1    N2    1.198801 T    
C21   H9    1.109725 S    
O3    C3    1.275043 A    
C22   H10   1.109617 S    
O5    Cu1   1.932148 S    
C1    C2    1.188345 T    
C7    C13   1.541447 S    
C22   H12   1.108338 S    
C12   C18   1.197692 T    
C15   C17   1.454567 S    
C7    C16   1.547811 S    
C20   H6    1.108490 S    
O2    Cu2   1.933234 S    
C5    C11   1.422153 S    
N3    O10   1.300149 A    
O6    C6    1.280519 A    
C6    C12   1.422153 S    
C21   H7    1.109615 S    
C1    C3    1.405355 S    
O5    C5    1.280520 A    
C13   N4    1.456698 S    
C10   C16   1.547259 S    
C20   H4    1.109595 S    
C20   H5    1.109773 S    
O1    C3    1.275052 A    
C22   H11   1.109725 S    
C19   H1    1.109595 S    
O2    C4    1.275052 A    
O3    Cu2   1.933225 S    
Cu1   Cu2   2.638533 S    
C8    C10   1.548520 S    
Cu2   N1    1.982648 S    
C8    C14   1.541447 S    
C10   C13   1.543180 S    
