data_mof_unit_4992.cif
_audit_creation_date              2012-12-11T17:07:26-0500
_audit_creation_method            fapswitch 2.2
_symmetry_space_group_name_H-M    P1
_symmetry_Int_Tables_number       1
_space_group_crystal_system       triclinic
_cell_length_a                    6.958697
_cell_length_b                    14.524983
_cell_length_c                    16.078185
_cell_angle_alpha                 89.964333
_cell_angle_beta                  89.993002
_cell_angle_gamma                 90.037016
_cell_volume                      1625.10116922

loop_
_atom_site_label
_atom_site_type_symbol
_atom_type_description
_atom_site_fract_x
_atom_site_fract_y
_atom_site_fract_z
_atom_type_partial_charge
O1    O     O_R   0.505720 0.583900 0.413310 -0.537288
O2    O     O_R   0.175940 0.594920 0.586080 -0.543155
O3    O     O_R   0.005640 0.416100 0.586690 -0.534076
C1    C     C_R   0.344859 0.616965 0.614830 0.695805
O4    O     O_R   0.176000 0.594930 0.413930 -0.544175
O5    O     O_R   0.005700 0.416110 0.413310 -0.541606
C2    C     C_R   0.344822 0.616870 0.385120 0.692119
O6    O     O_R   0.505660 0.583890 0.586690 -0.539907
O7    O     O_3   0.339200 0.441330 0.500000 -0.365269
V1    V     V_3+5 0.064350 0.510880 0.500000 1.392312
O8    O     O_R   0.675980 0.405080 0.413920 -0.538601
C3    C     C_R   0.845023 0.383178 0.385049 0.689171
O9    O     O_R   0.675920 0.405070 0.586070 -0.537298
C4    C     C_R   0.844609 0.383186 0.614638 0.698714
V2    V     V_3+5 0.564340 0.489120 0.500000 1.406894
O10   O     O_3   0.839360 0.558670 0.500000 -0.374275
H1    H     H_    0.161439 0.100745 0.518364 0.109451
C5    C     C_R   0.686715 0.422184 0.777748 -0.148592
C6    C     C_R   0.613444 0.444109 0.855878 -0.113642
C7    C     C_R   0.628368 0.381581 0.920954 -0.114121
C8    C     C_R   0.716102 0.296548 0.908298 -0.135086
C9    C     C_R   0.789910 0.271762 0.829303 0.070508
C10   C     C_R   0.775946 0.336186 0.762698 0.070025
C11   C     C_R   0.880088 0.185299 0.816555 -0.186149
C12   C     C_R   0.957201 0.163586 0.737215 0.071618
C13   C     C_R   0.944309 0.228233 0.670744 0.069619
C14   C     C_R   0.854180 0.314707 0.683473 -0.187408
C15   C     C_R   0.044034 0.077097 0.721931 -0.144779
C16   C     C_R   0.117928 0.055292 0.643903 -0.130160
C17   C     C_R   0.105219 0.118281 0.579094 -0.122702
C18   C     C_R   0.018556 0.203538 0.591839 -0.131540
H2    H     H_    0.673176 0.473721 0.729667 0.110883
H3    H     H_    0.545897 0.510285 0.866075 0.122450
H4    H     H_    0.572596 0.399218 0.981764 0.115237
H5    H     H_    0.726843 0.251147 0.961429 0.104599
H6    H     H_    0.054705 0.025020 0.769705 0.102598
H7    H     H_    0.184069 0.988829 0.633558 0.114325
H8    H     H_    0.008903 0.249154 0.538824 0.105932
C19   C     C_R   0.727329 0.182913 0.241233 0.098658
C20   C     C_R   0.881946 0.182613 0.185368 -0.111425
C21   C     C_R   0.033586 0.244469 0.201066 -0.177086
H9    H     H_    0.156115 0.246743 0.159865 0.134990
C22   C     C_R   0.022408 0.308567 0.266654 -0.175966
H10   H     H_    0.137288 0.358018 0.274160 0.129602
C23   C     C_R   0.858896 0.313012 0.318324 -0.112639
C24   C     C_R   0.715828 0.246594 0.305921 0.102302
C25   C     C_3   0.505229 0.259185 0.293830 -0.407068
C26   C     C_3   0.517650 0.189478 0.223644 -0.399990
H11   H     H_    0.469675 0.329816 0.272142 0.167419
H12   H     H_    0.420600 0.234232 0.347999 0.173989
H13   H     H_    0.488631 0.219452 0.161257 0.170107
H14   H     H_    0.440863 0.124059 0.237358 0.165664
C27   C     C_R   0.509587 0.683916 0.740478 0.092489
C28   C     C_R   0.353341 0.682528 0.685447 -0.108815
C29   C     C_R   0.200739 0.743477 0.701787 -0.181288
H15   H     H_    0.077644 0.745217 0.660945 0.133598
C30   C     C_R   0.211473 0.807365 0.767494 -0.177193
H16   H     H_    0.095349 0.855844 0.775614 0.123332
C31   C     C_R   0.375818 0.812795 0.818511 -0.106944
C32   C     C_R   0.520673 0.747596 0.805266 0.114102
C33   C     C_3   0.729951 0.762748 0.791795 -0.404649
C34   C     C_3   0.718190 0.693443 0.721382 -0.409746
H17   H     H_    0.817539 0.738390 0.845275 0.192731
H18   H     H_    0.761463 0.833920 0.770252 0.163737
H19   H     H_    0.799992 0.629337 0.734194 0.171654
H20   H     H_    0.743109 0.724244 0.658980 0.170550
C35   C     C_R   0.504026 0.680908 0.256925 0.085083
C36   C     C_R   0.352733 0.682359 0.314476 -0.100966
C37   C     C_R   0.203128 0.745743 0.300173 -0.181703
H21   H     H_    0.082030 0.748875 0.342189 0.125519
C38   C     C_R   0.214715 0.810221 0.234838 -0.159554
H22   H     H_    0.101892 0.860928 0.228487 0.116774
C39   C     C_R   0.375882 0.813076 0.181696 -0.111660
C40   C     C_R   0.515474 0.744665 0.192222 0.072352
C41   C     C_3   0.727886 0.753562 0.201108 -0.223785
C42   C     C_3   0.715787 0.683060 0.271219 -0.432750
H23   H     H_    0.773011 0.823383 0.221419 0.117493
H24   H     H_    0.752166 0.712140 0.333160 0.165429
H25   H     H_    0.784119 0.615529 0.257408 0.168011
O11   O     O_R   0.229140 0.916090 0.913340 -0.539540
O12   O     O_R   0.558860 0.905090 0.086080 -0.543259
O13   O     O_R   0.729100 0.083920 0.086690 -0.540886
C43   C     C_R   0.389803 0.883196 0.114961 0.697877
O14   O     O_R   0.558860 0.905090 0.913930 -0.538547
O15   O     O_R   0.729100 0.083920 0.913310 -0.537166
C44   C     C_R   0.389740 0.883132 0.885101 0.704810
O16   O     O_R   0.229140 0.916080 0.086720 -0.534862
O17   O     O_3   0.395570 0.058660 0.000020 -0.371264
V3    V     V_3+5 0.670450 0.989140 0.000000 1.417327
O18   O     O_R   0.058810 0.094980 0.913910 -0.539035
C45   C     C_R   0.890040 0.116903 0.885418 0.692451
O19   O     O_R   0.058810 0.094980 0.086060 -0.545148
C46   C     C_R   0.890013 0.117076 0.114754 0.679508
V4    V     V_3+5 0.170450 0.010950 0.999970 1.416315
O20   O     O_3   0.895460 0.941370 0.999990 -0.363877
C47   C     C_1   0.829771 0.719767 0.127026 0.371877
N1    N     N_1   0.910163 0.693384 0.068713 -0.371371

loop_
_geom_bond_atom_site_label_1
_geom_bond_atom_site_label_2
_ccdc_geom_bond_type
C43   O16   A    
C29   H15   S    
C39   C40   A    
C6    C7    A    
C42   H25   S    
C20   C46   S    
C41   C42   S    
O15   C45   A    
C25   H11   S    
C27   C28   A    
C12   C15   A    
C13   C14   A    
O13   V3    S    
C15   C16   A    
C42   H24   S    
O5    C3    A    
C17   C18   A    
C30   C31   A    
V2    O10   S    
O16   V4    S    
C37   C38   A    
C5    C6    A    
C21   H9    S    
C33   H17   S    
O11   C44   A    
C2    C36   S    
C28   C29   A    
O8    V2    S    
C26   H13   S    
C36   C37   A    
O1    V2    S    
C10   C14   A    
C4    C14   S    
O7    V1    S    
O18   C45   A    
C1    O6    A    
O12   V3    S    
C13   C18   A    
O13   C46   A    
C8    C9    A    
H1    C17   S    
C21   C22   A    
C37   H21   S    
O12   C43   A    
C27   C32   A    
C41   C47   S    
O18   V4    S    
C25   H12   S    
O17   V4    S    
C40   C41   S    
C34   H20   S    
C5    C10   A    
C11   C12   A    
C6    H3    S    
C19   C20   A    
C38   C39   A    
O15   V3    S    
C12   C13   A    
C23   C24   A    
C35   C36   A    
C32   C33   S    
V3    O20   S    
C33   H18   S    
O2    C1    A    
C22   H10   S    
C31   C32   A    
C16   C17   A    
C41   H23   S    
C27   C34   S    
C25   C26   S    
C47   N1    T    
O19   V4    S    
V4    O20   S    
C35   C40   A    
O17   V3    S    
C22   C23   A    
O3    C4    A    
C19   C24   A    
C20   C21   A    
O6    V2    S    
O9    V2    S    
C9    C11   A    
C5    H2    S    
O14   V3    S    
O11   V4    S    
O2    V1    S    
C11   C45   S    
O4    C2    A    
C24   C25   S    
C34   H19   S    
C1    C28   S    
O1    C2    A    
O14   C44   A    
C3    C23   S    
O5    V1    S    
O8    C3    A    
C8    H5    S    
C18   H8    S    
C29   C30   A    
O7    V2    S    
C31   C44   S    
C7    H4    S    
O4    V1    S    
O3    V1    S    
V1    O10   S    
C30   H16   S    
O19   C46   A    
C33   C34   S    
C26   H14   S    
C38   H22   S    
C7    C8    A    
C15   H6    S    
C16   H7    S    
C9    C10   A    
C35   C42   S    
O9    C4    A    
C39   C43   S    
C19   C26   S    
