data_mof_unit_890.cif
_audit_creation_date              2012-12-10T18:09:50-0500
_audit_creation_method            fapswitch 2.2
_symmetry_space_group_name_H-M    P1
_symmetry_Int_Tables_number       1
_space_group_crystal_system       triclinic
_cell_length_a                    10.635593
_cell_length_b                    12.597278
_cell_length_c                    13.131468
_cell_angle_alpha                 82.333804
_cell_angle_beta                  90.572778
_cell_angle_gamma                 102.398271
_cell_volume                      1702.64346237

loop_
_atom_site_label
_atom_site_type_symbol
_atom_type_description
_atom_site_fract_x
_atom_site_fract_y
_atom_site_fract_z
_atom_type_partial_charge
C1    C     C_R   0.480301 0.438819 0.691142 0.839705
C2    C     C_R   0.467377 0.447112 0.973487 0.089758
C3    C     C_R   0.435183 0.467477 0.869554 0.084988
C4    C     C_R   0.741875 0.500805 0.499663 0.913323
C5    C     C_R   0.466974 0.529774 0.036281 0.072407
C6    C     C_R   0.415146 0.622482 0.000033 0.171304
C7    C     C_R   0.365937 0.632600 0.901427 -0.230298
C8    C     C_R   0.375661 0.556015 0.836793 -0.202018
C9    C     C_R   0.519036 0.523533 0.133830 -0.218240
C10   C     C_R   0.453733 0.689075 0.164594 -0.133763
C11   C     C_R   0.465499 0.399508 0.800710 -0.110899
C12   C     C_3   0.121714 0.501535 0.496418 0.037788
C13   C     C_R   0.322138 0.088360 0.346034 -0.302231
C14   C     C_R   0.651884 0.799333 0.630322 0.023195
C15   C     C_R   0.682944 0.903788 0.659066 -0.247474
C16   C     C_R   0.513413 0.561087 0.308782 0.955500
C17   C     C_R   0.625308 0.985405 0.609825 -0.199919
C18   C     C_R   0.536023 0.962574 0.530909 0.019737
C19   C     C_R   0.508055 0.854732 0.504354 0.232945
C20   C     C_R   0.473563 0.041835 0.477572 -0.011300
C21   C     C_R   0.384759 0.011618 0.399332 0.188496
C22   C     C_R   0.359580 0.905277 0.374707 -0.290532
C23   C     C_3   0.064867 0.474384 0.390770 0.206854
C24   C     C_R   0.420770 0.828262 0.426346 -0.223295
C25   C     C_R   0.495483 0.150659 0.498226 -0.052997
C26   C     C_R   0.348127 0.194450 0.370259 0.008133
C27   C     C_R   0.258207 0.500058 0.499152 0.892394
C28   C     C_3   0.907303 0.415339 0.583905 -0.499945
C29   C     C_3   0.051208 0.414536 0.583381 -0.492576
C30   C     C_3   0.918685 0.474731 0.391110 0.213449
C31   C     C_3   0.958297 0.616819 0.515245 -0.367212
C32   C     C_3   0.878881 0.502582 0.496894 0.032335
C33   C     C_3   0.100839 0.616258 0.515096 -0.363341
C34   C     C_R   0.411446 0.702743 0.063870 -0.149963
C35   C     C_R   0.503474 0.596915 0.200063 -0.031597
C36   C     C_R   0.499293 0.299982 0.838059 -0.196491
C37   C     C_R   0.511410 0.271450 0.942854 -0.141695
C38   C     C_R   0.498826 0.345050 0.010212 -0.173721
Cl1   Cl    Cl    0.869597 0.562654 0.285215 -0.584948
Cl2   Cl    Cl    0.155594 0.563034 0.285170 -0.610268
H1    H     H_    0.850930 0.332249 0.573576 0.184762
H2    H     H_    0.254255 0.066570 0.286212 0.153437
H3    H     H_    0.561262 0.181500 0.555583 0.120067
H4    H     H_    0.696000 0.735364 0.668439 0.138009
H5    H     H_    0.652486 0.064921 0.635190 0.132266
H6    H     H_    0.751254 0.921430 0.719441 0.153034
H7    H     H_    0.397940 0.748393 0.403407 0.224980
H8    H     H_    0.092311 0.432172 0.659216 0.190927
H9    H     H_    0.063792 0.331302 0.572302 0.191013
H10   H     H_    0.865377 0.390385 0.381753 0.096662
H11   H     H_    0.074894 0.390138 0.380864 0.092460
H12   H     H_    0.151132 0.681438 0.454550 0.220864
H13   H     H_    0.939536 0.681966 0.454663 0.228296
H14   H     H_    0.141031 0.636909 0.590449 0.178000
H15   H     H_    0.322003 0.700774 0.873555 0.149772
H16   H     H_    0.520427 0.245883 0.786072 0.151894
H17   H     H_    0.334841 0.566242 0.761228 0.164158
H18   H     H_    0.292358 0.881402 0.314981 0.177928
H19   H     H_    0.930749 0.637582 0.590620 0.173170
H20   H     H_    0.440919 0.746663 0.215793 0.155237
H21   H     H_    0.371125 0.773336 0.037306 0.138766
H22   H     H_    0.567961 0.459133 0.162204 0.166405
H23   H     H_    0.511072 0.318821 0.090615 0.137165
H24   H     H_    0.536167 0.194077 0.971656 0.145527
H25   H     H_    0.878491 0.433647 0.659884 0.194821
H26   H     H_    0.301136 0.255281 0.329715 0.146388
N1    N     N_R   0.433240 0.222190 0.444680 -0.103749
N2    N     N_R   0.566070 0.776970 0.554790 -0.132469
O1    O     O_R   0.468120 0.366740 0.627160 -0.619203
O2    O     O_R   0.510770 0.544830 0.662520 -0.621206
O3    O     O_R   0.663880 0.410950 0.482330 -0.629750
O4    O     O_R   0.706530 0.589040 0.517700 -0.619415
O5    O     O_R   0.489230 0.455170 0.337480 -0.608912
O6    O     O_R   0.531880 0.633260 0.372840 -0.630149
O7    O     O_R   0.293470 0.410960 0.482300 -0.623873
O8    O     O_R   0.336120 0.589050 0.517670 -0.650476
Zn1   Zn    Zn3+2 0.471520 0.381090 0.476390 0.949092
Zn2   Zn    Zn3+2 0.528480 0.618910 0.523610 0.936518

loop_
_geom_bond_atom_site_label_1
_geom_bond_atom_site_label_2
_ccdc_geom_bond_type
C12   C29   S    
O2    Zn2   S    
O1    Zn1   S    
N1    Zn1   S    
C7    H15   S    
C25   H3    S    
C7    C8    A    
C29   H9    S    
C33   H12   S    
C12   C23   S    
C28   C29   S    
C16   O6    A    
C26   N1    A    
C36   C37   A    
C17   H5    S    
C2    C3    A    
C16   C35   S    
C5    C6    A    
C20   C25   A    
C23   Cl2   S    
C28   H1    S    
C18   C19   A    
C31   H19   S    
O4    Zn2   S    
C25   N1    A    
C31   C33   S    
C10   C35   A    
C9    H22   S    
C30   H10   S    
C21   C22   A    
C27   O7    A    
C13   H2    S    
N2    Zn2   S    
C12   C27   S    
C16   O5    A    
C26   H26   S    
C23   C30   S    
C28   C32   S    
C3    C8    A    
C29   H8    S    
C34   H21   S    
C1    O1    A    
C6    C34   A    
C10   H20   S    
C5    C9    A    
C37   C38   A    
C36   H16   S    
C8    H17   S    
C2    C38   A    
C23   H11   S    
C31   C32   S    
C4    O4    A    
C17   C18   A    
C13   C21   A    
C19   N2    A    
C10   C34   A    
C31   H13   S    
O7    Zn1   S    
C4    C32   S    
C22   C24   A    
C13   C26   A    
C2    C5    A    
C27   O8    A    
O3    Zn1   S    
C37   H24   S    
C14   H4    S    
C38   H23   S    
C33   H14   S    
C15   C17   A    
C11   C36   A    
O5    Zn1   S    
C24   H7    S    
O8    Zn2   S    
C22   H18   S    
C6    C7    A    
C1    O2    A    
C28   H25   S    
C30   C32   S    
C30   Cl1   S    
C19   C24   A    
C18   C20   A    
C3    C11   A    
C20   C21   A    
O6    Zn2   S    
C9    C35   A    
C14   N2    A    
C14   C15   A    
C1    C11   S    
C15   H6    S    
C12   C33   S    
C4    O3    A    
