data_mof_unit_4584.cif
_audit_creation_date              2012-10-26T18:27:04-0400
_audit_creation_method            fapswitch 2.2
_symmetry_space_group_name_H-M    P1
_symmetry_Int_Tables_number       1
_space_group_crystal_system       triclinic
_cell_length_a                    15.070944
_cell_length_b                    10.96859
_cell_length_c                    9.857987
_cell_angle_alpha                 86.75932
_cell_angle_beta                  91.239777
_cell_angle_gamma                 95.285707
_cell_volume                      1619.84874191

loop_
_atom_site_label
_atom_site_type_symbol
_atom_type_description
_atom_site_fract_x
_atom_site_fract_y
_atom_site_fract_z
_atom_type_partial_charge
C1    C     C_R   0.505349 0.265961 0.502934 0.546060
C2    C     C_R   0.176267 0.388219 0.515701 -0.066041
C3    C     C_R   0.232399 0.498376 0.494936 0.017188
C4    C     C_R   0.329196 0.497145 0.498889 0.586138
C5    C     C_R   0.197424 0.612034 0.468220 0.248177
C6    C     C_2   0.508429 0.939073 0.388909 -0.202890
C7    C     C_2   0.480309 0.861884 0.491719 -0.115606
C8    C     C_2   0.502491 0.071447 0.395952 -0.157447
C9    C     C_2   0.524234 0.136036 0.507505 -0.004238
C10   C     C_2   0.452445 0.418800 0.926948 0.142702
C11   C     C_2   0.441546 0.432778 0.079189 0.178850
C12   C     C_R   0.916367 0.625722 0.478645 0.019450
C13   C     C_R   0.494627 0.732992 0.496785 0.571221
C14   C     C_R   0.671057 0.507559 0.500200 0.527832
C15   C     C_R   0.823068 0.625919 0.501066 -0.018059
C16   C     C_R   0.768394 0.513735 0.498195 -0.001823
C17   C     C_R   0.805807 0.404787 0.480912 -0.138354
C18   C     C_R   0.897553 0.401406 0.482726 0.016692
C19   C     C_R   0.953747 0.511567 0.480481 0.006865
C20   C     C_3   0.783483 0.739671 0.544294 -0.217285
C21   C     C_3   0.737512 0.806168 0.425162 -0.271618
C22   C     C_3   0.744495 0.944266 0.440742 -0.454854
C23   C     C_R   0.933471 0.288612 0.488327 -0.131460
C24   C     C_3   0.572325 0.082075 0.631861 -0.264664
C25   C     C_3   0.657138 0.160890 0.673278 -0.301673
C26   C     C_3   0.701835 0.105667 0.799632 -0.468905
C27   C     C_3   0.406265 0.303274 0.872314 -0.209489
C28   C     C_3   0.456721 0.192861 0.920060 -0.300959
C29   C     C_3   0.400184 0.071730 0.903367 -0.479672
C30   C     C_3   0.362335 0.356250 0.146487 -0.249165
C31   C     C_3   0.271752 0.407534 0.114338 -0.321948
C32   C     C_3   0.195767 0.307471 0.092747 -0.457906
C33   C     C_3   0.601904 0.654025 0.111755 0.058705
C34   C     C_R   0.024897 0.283592 0.499508 -0.124391
C35   C     C_3   0.684459 0.695978 0.028040 -0.288269
C36   C     C_3   0.702074 0.835313 0.020010 -0.514324
C37   C     C_3   0.214288 0.271184 0.571912 -0.256632
C38   C     C_3   0.233428 0.186538 0.460225 -0.308877
C39   C     C_3   0.275888 0.074020 0.518674 -0.450044
C40   C     C_3   0.259273 0.783192 0.332589 0.002832
C41   C     C_3   0.260306 0.706345 0.207376 -0.291023
C42   C     C_3   0.269584 0.787983 0.076983 -0.493827
C43   C     C_3   0.938794 0.859754 0.274486 0.005366
C44   C     C_3   0.028211 0.911453 0.213596 -0.279073
C45   C     C_R   0.083330 0.391856 0.497327 0.021342
C46   C     C_3   0.016508 0.965903 0.069057 -0.484267
C47   C     C_R   0.047316 0.506847 0.480720 -0.014228
C48   C     C_R   0.104230 0.616936 0.472416 -0.039605
C49   C     C_R   0.066483 0.728906 0.468457 -0.106821
C50   C     C_R   0.974539 0.734221 0.457388 0.246747
Cu1   Cu    Cu3+1 0.500020 0.500020 0.638630 0.903659
Cu2   Cu    Cu3+1 0.499980 0.499980 0.361370 0.933076
H1    H     H_    0.450222 0.895820 0.579727 0.117860
H2    H     H_    0.700033 0.988692 0.365750 0.142404
H3    H     H_    0.725974 0.962299 0.544685 0.150400
H4    H     H_    0.766051 0.787012 0.326891 0.160557
H5    H     H_    0.666364 0.771503 0.421846 0.152907
H6    H     H_    0.734369 0.714445 0.626004 0.124158
H7    H     H_    0.835361 0.801369 0.594002 0.185588
H8    H     H_    0.656146 0.098594 0.887091 0.151756
H9    H     H_    0.721635 0.013368 0.780217 0.145236
H10   H     H_    0.762697 0.165138 0.826004 0.154220
H11   H     H_    0.704692 0.165313 0.589098 0.147566
H12   H     H_    0.476697 0.116595 0.304434 0.134951
H13   H     H_    0.643093 0.255305 0.694052 0.212116
H14   H     H_    0.525205 0.066388 0.715504 0.139290
H15   H     H_    0.593701 0.990950 0.615111 0.153698
H16   H     H_    0.341286 0.065831 0.970036 0.147449
H17   H     H_    0.376851 0.063695 0.796782 0.150409
H18   H     H_    0.440414 0.994193 0.932479 0.135667
H19   H     H_    0.519413 0.197905 0.863868 0.184902
H20   H     H_    0.477641 0.196413 0.028556 0.152879
H21   H     H_    0.336414 0.290129 0.904130 0.106609
H22   H     H_    0.395147 0.309535 0.763594 0.194946
H23   H     H_    0.517754 0.582350 0.885061 0.234218
H24   H     H_    0.193869 0.236352 0.177144 0.144639
H25   H     H_    0.131194 0.348936 0.088749 0.151693
H26   H     H_    0.202718 0.262889 0.995953 0.142498
H27   H     H_    0.253162 0.457337 0.202038 0.171931
H28   H     H_    0.275689 0.472176 0.023191 0.158416
H29   H     H_    0.359258 0.259255 0.120978 0.108532
H30   H     H_    0.372401 0.343058 0.254835 0.192937
H31   H     H_    0.618119 0.672214 0.218866 0.180712
H32   H     H_    0.545904 0.708295 0.076266 0.104680
H33   H     H_    0.743290 0.654978 0.075193 0.163603
H34   H     H_    0.762884 0.321580 0.469788 0.099754
H35   H     H_    0.675086 0.664166 0.923161 0.177977
H36   H     H_    0.708790 0.871211 0.122996 0.137594
H37   H     H_    0.646116 0.876585 0.965048 0.148086
H38   H     H_    0.764744 0.862510 0.964484 0.145552
H39   H     H_    0.338382 0.102184 0.574251 0.149399
H40   H     H_    0.229335 0.017575 0.587865 0.162564
H41   H     H_    0.292858 0.018607 0.434349 0.141446
H42   H     H_    0.171654 0.156202 0.403813 0.150088
H43   H     H_    0.280124 0.236635 0.387998 0.160358
H44   H     H_    0.276334 0.293700 0.630016 0.138335
H45   H     H_    0.890521 0.203622 0.489868 0.106403
H46   H     H_    0.168745 0.221788 0.647981 0.137655
H47   H     H_    0.322099 0.844260 0.330981 0.161925
H48   H     H_    0.206017 0.845621 0.321685 0.107125
H49   H     H_    0.318440 0.651605 0.215238 0.202913
H50   H     H_    0.197283 0.645921 0.200108 0.144564
H51   H     H_    0.213477 0.846825 0.065083 0.147580
H52   H     H_    0.269156 0.729953 0.988196 0.156582
H53   H     H_    0.333550 0.846834 0.078990 0.142757
H54   H     H_    0.889098 0.925896 0.247036 0.148109
H55   H     H_    0.914166 0.772902 0.226513 0.120346
H56   H     H_    0.048329 0.193475 0.509594 0.120386
H57   H     H_    0.060512 0.983614 0.277786 0.166757
H58   H     H_    0.072097 0.836066 0.209837 0.145650
H59   H     H_    0.984307 0.895262 0.002975 0.148505
H60   H     H_    0.082731 0.999251 0.027215 0.139757
H61   H     H_    0.974993 0.044524 0.068675 0.149094
H62   H     H_    0.107339 0.814707 0.471581 0.146725
H63   H     H_    0.534064 0.905328 0.297330 0.132042
H64   H     H_    0.813557 0.985829 0.425859 0.181767
N1    N     N_2   0.499020 0.498660 0.846910 -0.334075
N2    N     N_2   0.499000 0.498630 0.153040 -0.069097
O1    O     O_R   0.500020 0.321960 0.617040 -0.526981
O2    O     O_3   0.257127 0.717202 0.461524 -0.577227
O3    O     O_3   0.943673 0.846159 0.418716 -0.594187
O4    O     O_R   0.499980 0.321920 0.382900 -0.518576
O5    O     O_R   0.370270 0.499990 0.617090 -0.504137
O6    O     O_R   0.370240 0.499950 0.382940 -0.542483
O7    O     O_R   0.500020 0.678080 0.617100 -0.503631
O8    O     O_R   0.499980 0.678040 0.382960 -0.529462
O9    O     O_R   0.629760 0.500050 0.617060 -0.504276
O10   O     O_R   0.629730 0.500010 0.382910 -0.473761
O11   O     O_3   0.579392 0.527904 0.096536 -0.486798

loop_
_geom_bond_atom_site_label_1
_geom_bond_atom_site_label_2
_ccdc_geom_bond_type
C10   C27   S    
C36   H37   S    
C46   H60   S    
Cu1   O5    S    
C41   C42   S    
C35   C36   S    
H23   N1    S    
C42   H51   S    
C40   H47   S    
Cu2   O10   S    
C31   H28   S    
C22   H2    S    
C36   H36   S    
C21   C22   S    
C28   C29   S    
C26   H9    S    
C25   H11   S    
C30   C31   S    
C19   C47   A    
C33   O11   S    
C15   C16   A    
C14   O10   A    
C41   H50   S    
C4    O6    A    
C18   C19   A    
C1    O1    A    
C1    O4    A    
C39   H41   S    
C32   H24   S    
C24   H15   S    
C33   C35   S    
C32   H25   S    
C35   H35   S    
C31   C32   S    
C11   C30   S    
C8    C9    D    
C38   H43   S    
Cu1   O1    S    
C27   H22   S    
C43   O3    S    
C24   H14   S    
C13   O7    A    
C44   H57   S    
C22   H64   S    
C49   H62   S    
C46   H59   S    
C28   H20   S    
C50   O3    S    
Cu2   O4    S    
C39   H39   S    
C37   H46   S    
C33   H32   S    
C44   C46   S    
C29   H17   S    
C45   C47   A    
C2    C45   A    
C15   C20   S    
C5    C48   A    
C5    O2    S    
Cu1   Cu2   S    
Cu1   O7    S    
C1    C9    S    
C24   C25   S    
Cu2   O8    S    
C16   C17   A    
C6    C8    S    
C25   C26   S    
C14   O9    A    
C17   H34   S    
C37   H44   S    
C43   H54   S    
C30   H30   S    
C43   C44   S    
C21   H5    S    
C37   C38   S    
C29   H16   S    
C47   C48   A    
C12   C15   A    
C23   C34   A    
C38   H42   S    
C17   C18   A    
C25   H13   S    
C34   C45   A    
C43   H55   S    
C20   H7    S    
C33   H31   S    
C22   H3    S    
C8    H12   S    
C13   O8    A    
C48   C49   A    
C23   H45   S    
C14   C16   S    
C28   H19   S    
C7    H1    S    
C20   H6    S    
C3    C4    S    
C39   H40   S    
C29   H18   S    
C36   H38   S    
C40   C41   S    
C46   H61   S    
C40   O2    S    
C3    C5    A    
C42   H52   S    
C40   H48   S    
C21   H4    S    
C12   C50   A    
C9    C24   S    
C31   H27   S    
C6    C7    D    
C34   H56   S    
C30   H29   S    
C2    C3    A    
C26   H10   S    
Cu1   O9    S    
C10   N1    D    
Cu2   O6    S    
C2    C37   S    
C38   C39   S    
C18   C23   A    
C12   C19   A    
Cu1   N1    S    
C41   H49   S    
C42   H53   S    
C6    H63   S    
C10   C11   S    
C32   H26   S    
C35   H33   S    
C7    C13   S    
C20   C21   S    
C4    O5    A    
C49   C50   A    
C27   C28   S    
N2    O11   S    
C27   H21   S    
C11   N2    D    
C26   H8    S    
Cu2   N2    S    
C44   H58   S    
