data_mof_unit_49.cif
_audit_creation_date              2012-12-11T15:14:46-0500
_audit_creation_method            fapswitch 2.2
_symmetry_space_group_name_H-M    P1
_symmetry_Int_Tables_number       1
_space_group_crystal_system       triclinic
_cell_length_a                    22.191915
_cell_length_b                    7.21794
_cell_length_c                    19.524235
_cell_angle_alpha                 89.999948
_cell_angle_beta                  98.330191
_cell_angle_gamma                 90.0
_cell_volume                      3094.39496137

loop_
_atom_site_label
_atom_site_type_symbol
_atom_type_description
_atom_site_fract_x
_atom_site_fract_y
_atom_site_fract_z
_atom_type_partial_charge
O1    O     O_R   0.448470 0.506130 0.415700 -0.548561
O2    O     O_R   0.551530 0.006130 0.584300 -0.548561
O3    O     O_R   0.436320 0.174490 0.555800 -0.529723
O4    O     O_R   0.563680 0.674490 0.444200 -0.529723
C1    C     C_R   0.423323 0.343739 0.577787 0.775768
C2    C     C_R   0.576677 0.843739 0.422213 0.775768
O5    O     O_R   0.441350 0.176340 0.414480 -0.524631
O6    O     O_R   0.558650 0.676340 0.585520 -0.524630
O7    O     O_R   0.556600 0.007100 0.441970 -0.524149
O8    O     O_R   0.443400 0.507100 0.558030 -0.524149
C3    C     C_R   0.425784 0.345261 0.390618 0.749936
C4    C     C_R   0.574216 0.845260 0.609382 0.749936
O9    O     O_3   0.537810 0.339550 0.509190 -0.375905
O10   O     O_3   0.462190 0.839550 0.490810 -0.375904
V1    V     V_3+5 0.492990 0.064280 0.498300 1.517949
V2    V     V_3+5 0.507010 0.564280 0.501700 1.517949
C5    C     C_R   0.867532 0.035647 0.705906 -0.159100
C6    C     C_R   0.132468 0.535644 0.294094 -0.159100
H1    H     H_    0.951783 0.059737 0.772682 0.135858
H2    H     H_    0.048217 0.559734 0.227318 0.135858
H3    H     H_    0.793941 0.015196 0.589388 0.141887
H4    H     H_    0.206058 0.515193 0.410612 0.141887
H5    H     H_    0.887746 0.080410 0.661352 0.132060
H6    H     H_    0.112253 0.580406 0.338648 0.132060
C7    C     C_R   0.881595 0.947649 0.826741 -0.120204
C8    C     C_R   0.118405 0.447648 0.173259 -0.120204
C9    C     C_R   0.588199 0.839702 0.736209 0.399595
C10   C     C_R   0.411801 0.339704 0.263791 0.399595
C11   C     C_R   0.620231 0.889942 0.800421 -0.247274
C12   C     C_R   0.379769 0.389944 0.199579 -0.247274
C13   C     C_R   0.680425 0.952782 0.806395 -0.015955
C14   C     C_R   0.319575 0.452784 0.193605 -0.015954
C15   C     C_R   0.713670 0.926323 0.750228 0.061574
C16   C     C_R   0.286329 0.426324 0.249772 0.061574
C17   C     C_R   0.679935 0.898291 0.682450 -0.093673
C18   C     C_R   0.320065 0.398291 0.317550 -0.093673
C19   C     C_R   0.778891 0.942575 0.758359 0.072797
C20   C     C_R   0.221109 0.442575 0.241641 0.072798
C21   C     C_R   0.805750 0.992145 0.699727 0.059200
C22   C     C_R   0.194249 0.492143 0.300273 0.059200
C23   C     C_R   0.771665 0.986961 0.634296 -0.178139
C24   C     C_R   0.228335 0.486959 0.365704 -0.178138
C25   C     C_R   0.711652 0.923661 0.624705 -0.075915
C26   C     C_R   0.288348 0.423660 0.375295 -0.075915
C27   C     C_R   0.818067 0.900430 0.821499 0.376965
C28   C     C_R   0.181933 0.400431 0.178501 0.376966
C29   C     C_R   0.904267 0.020408 0.769180 -0.190290
C30   C     C_R   0.095733 0.520406 0.230820 -0.190290
C31   C     C_R   0.615985 0.855167 0.676137 -0.186055
C32   C     C_R   0.384015 0.355168 0.323863 -0.186054
H7    H     H_    0.596088 0.894298 0.844790 0.163865
H8    H     H_    0.403912 0.394302 0.155210 0.163864
C33   C     C_3   0.770460 0.807011 0.303958 -0.171432
C34   C     C_3   0.229540 0.307011 0.696042 -0.171432
C35   C     C_3   0.793905 0.992864 0.277679 -0.108366
C36   C     C_3   0.206095 0.492865 0.722321 -0.108366
H9    H     H_    0.833317 0.072930 0.303932 0.159754
H10   H     H_    0.166682 0.572931 0.696068 0.159754
H11   H     H_    0.790083 0.733080 0.351906 0.153270
H12   H     H_    0.209917 0.233080 0.648094 0.153269
H13   H     H_    0.711549 0.204075 0.275633 0.138337
H14   H     H_    0.288450 0.704074 0.724367 0.138337
C37   C     C_1   0.874392 0.940848 0.120139 -0.167859
C38   C     C_1   0.125608 0.440848 0.879861 -0.167859
C39   C     C_1   0.621032 0.852443 0.374479 -0.081922
C40   C     C_1   0.378968 0.352443 0.625521 -0.081921
C41   C     C_3   0.764852 0.729147 0.229623 0.031931
C42   C     C_3   0.235148 0.229147 0.770377 0.031931
C43   C     C_3   0.788141 0.912695 0.203802 0.089813
C44   C     C_3   0.211859 0.412696 0.796198 0.089813
C45   C     C_3   0.698473 0.798450 0.213636 -0.195141
C46   C     C_3   0.301527 0.298450 0.786364 -0.195141
C47   C     C_3   0.704551 0.879179 0.287475 0.109519
C48   C     C_3   0.295448 0.379179 0.712525 0.109519
C49   C     C_3   0.722167 0.984559 0.187536 -0.143233
C50   C     C_3   0.277833 0.484558 0.812463 -0.143233
C51   C     C_3   0.727427 0.064856 0.261956 -0.078125
C52   C     C_3   0.272573 0.564856 0.738044 -0.078126
C53   C     C_1   0.835430 0.929772 0.157708 -0.029113
C54   C     C_1   0.164570 0.429772 0.842292 -0.029114
C55   C     C_1   0.658431 0.863154 0.334973 -0.025692
C56   C     C_1   0.341568 0.363153 0.665027 -0.025692
H15   H     H_    0.702585 0.058437 0.139571 0.144183
H16   H     H_    0.297415 0.558437 0.860429 0.144183
H17   H     H_    0.659254 0.717163 0.187555 0.132051
H18   H     H_    0.340746 0.217163 0.812445 0.132051
O11   O     O_R   0.056650 0.288730 0.942060 -0.536751
O12   O     O_R   0.943350 0.788730 0.057940 -0.536751
O13   O     O_R   0.058660 0.616870 0.085540 -0.534861
O14   O     O_R   0.941340 0.116870 0.914460 -0.534861
C57   C     C_R   0.074818 0.448569 0.108572 0.668797
C58   C     C_R   0.925182 0.948569 0.891428 0.668798
O15   O     O_R   0.063700 0.618520 0.944220 -0.533944
O16   O     O_R   0.936300 0.118520 0.055780 -0.533944
O17   O     O_R   0.948460 0.787610 0.915680 -0.533711
O18   O     O_R   0.051540 0.287610 0.084320 -0.533710
C59   C     C_R   0.078894 0.450188 0.924603 0.689128
C60   C     C_R   0.921106 0.950188 0.075397 0.689128
O19   O     O_3   0.962230 0.453430 0.990860 -0.372441
O20   O     O_3   0.037770 0.953430 0.009140 -0.372441
V3    V     V_3+5 0.007010 0.728750 0.001700 1.447901
V4    V     V_3+5 0.992990 0.228750 0.998300 1.447901
C61   C     C_2   0.785855 0.541529 0.210520 0.730684
O21   O     O_2   0.812763 0.440858 0.255119 -0.574816
O22   O     O_R   0.774887 0.483461 0.141593 -0.668198
H19   H     H_    0.791255 0.354544 0.134988 0.294713
C62   C     C_2   0.214145 0.041530 0.789480 0.730684
O23   O     O_2   0.187236 0.940859 0.744881 -0.574816
O24   O     O_R   0.225113 0.983461 0.858407 -0.668198
H20   H     H_    0.208745 0.854543 0.865012 0.294713
O25   O     O_3   0.795564 0.774815 0.865984 -0.558192
C63   C     C_3   0.808790 0.821886 0.936710 0.050016
H21   H     H_    0.808611 0.974170 0.945658 0.109384
H22   H     H_    0.853089 0.762771 0.958954 0.150308
C64   C     C_3   0.762112 0.730011 0.975822 -0.598322
H23   H     H_    0.769793 0.577973 0.978301 0.210584
H24   H     H_    0.715136 0.755426 0.949619 0.244639
H25   H     H_    0.766534 0.784927 0.029389 0.193988
O26   O     O_3   0.204436 0.274816 0.134016 -0.558191
C65   C     C_3   0.191210 0.321887 0.063290 0.050015
H26   H     H_    0.191389 0.474171 0.054341 0.109385
H27   H     H_    0.146911 0.262771 0.041046 0.150309
C66   C     C_3   0.237888 0.230012 0.024178 -0.598328
H28   H     H_    0.230209 0.077973 0.021702 0.210587
H29   H     H_    0.284864 0.255435 0.050379 0.244639
H30   H     H_    0.233464 0.284921 0.970610 0.193988
O27   O     O_3   0.528431 0.779140 0.731274 -0.554352
C67   C     C_3   0.489802 0.931152 0.738879 0.081493
H31   H     H_    0.499241 0.050625 0.705780 0.111184
H32   H     H_    0.495070 0.976458 0.793872 0.130847
C68   C     C_3   0.423974 0.872068 0.717114 -0.679586
H33   H     H_    0.412698 0.753652 0.749315 0.219876
H34   H     H_    0.392943 0.989158 0.723929 0.169328
H35   H     H_    0.416984 0.829739 0.661822 0.232068
O28   O     O_3   0.471570 0.279142 0.268726 -0.554352
C69   C     C_3   0.510198 0.431154 0.261120 0.081493
H36   H     H_    0.500759 0.550629 0.294218 0.111183
H37   H     H_    0.504930 0.476458 0.206127 0.130847
C70   C     C_3   0.576026 0.372071 0.282887 -0.679582
H38   H     H_    0.587302 0.253652 0.250686 0.219876
H39   H     H_    0.607057 0.489161 0.276070 0.169327
H40   H     H_    0.583016 0.329745 0.338179 0.232067
C71   C     C_2   0.701838 0.082482 0.864270 0.758504
O29   O     O_2   0.677986 0.081661 0.916982 -0.569759
O30   O     O_R   0.746374 0.215108 0.856637 -0.664683
H41   H     H_    0.756314 0.296938 0.898952 0.300385
C72   C     C_2   0.298162 0.582485 0.135730 0.758504
O31   O     O_2   0.322014 0.581666 0.083019 -0.569759
O32   O     O_R   0.253625 0.715109 0.143364 -0.664683
H42   H     H_    0.243685 0.796940 0.101049 0.300386
C73   C     C_2   0.687025 0.877172 0.552936 0.729583
O33   O     O_2   0.683315 0.998297 0.508936 -0.541721
O34   O     O_R   0.674074 0.693577 0.533424 -0.646366
H43   H     H_    0.682212 0.603937 0.573667 0.268437
C74   C     C_2   0.312975 0.377171 0.447064 0.729582
O35   O     O_2   0.316685 0.498296 0.491064 -0.541722
O36   O     O_R   0.325926 0.193576 0.466576 -0.646366
H44   H     H_    0.317788 0.103936 0.426333 0.268437

loop_
_geom_bond_atom_site_label_1
_geom_bond_atom_site_label_2
_ccdc_geom_bond_type
C12   C14   A    
O36   H44   S    
O18   V4    S    
C9    C11   A    
C10   O28   S    
C38   C54   T    
O25   C63   S    
O1    C3    A    
C46   C50   S    
C68   H35   S    
O2    C4    A    
C67   H31   S    
C50   H16   S    
C2    O7    A    
C63   H22   S    
O12   V3    S    
C33   H11   S    
C41   C61   S    
C66   H28   S    
C21   C23   A    
C14   C72   S    
C37   C53   T    
O5    C3    A    
C5    H5    S    
C6    H6    S    
C72   O32   S    
C50   C52   S    
C37   C60   S    
C35   C51   S    
C70   H40   S    
H1    C29   S    
C66   H29   S    
C74   O36   S    
O16   C60   A    
C7    C27   A    
C64   H23   S    
C25   C73   S    
C36   C52   S    
C5    C21   A    
C6    C22   A    
O14   V4    S    
C57   O18   A    
C34   C48   S    
C10   C32   A    
C2    C39   S    
C72   O31   D    
H13   C51   S    
C64   H24   S    
C17   C31   A    
C73   O33   D    
C13   C15   A    
C42   C62   S    
O13   C57   A    
C17   C25   A    
C7    C29   A    
C16   C18   A    
C65   C66   S    
C8    C30   A    
C22   C24   A    
C9    O27   S    
O6    V2    S    
C45   H17   S    
C11   C13   A    
C62   O24   S    
C24   C26   A    
C48   C56   S    
C69   C70   S    
C47   C55   S    
C63   H21   S    
C65   H27   S    
O30   H41   S    
C33   C35   S    
C34   C36   S    
C45   C49   S    
C44   C54   S    
O28   C69   S    
C46   C48   S    
O15   V3    S    
C45   C47   S    
C1    C40   S    
C66   H30   S    
C34   H12   S    
C68   H34   S    
C8    C57   S    
C58   O17   A    
C15   C19   A    
C6    C30   A    
C42   C46   S    
C41   C43   S    
C14   C16   A    
O4    V2    S    
C4    C31   S    
C40   C56   T    
O11   V4    S    
O14   C58   A    
O10   V1    S    
O6    C4    A    
C64   H25   S    
C61   O22   S    
O1    V2    S    
H2    C30   S    
O26   C65   S    
O2    V1    S    
C49   C51   S    
C35   C43   S    
C9    C31   A    
H3    C23   S    
O4    C2    A    
C38   C59   S    
C36   C44   S    
C35   H9    S    
C44   C50   S    
C43   C53   S    
C62   O23   D    
C19   C27   A    
C68   H33   S    
C67   C68   S    
O15   C59   A    
C61   O21   D    
C18   C32   A    
C65   H26   S    
C69   H37   S    
C11   H7    S    
C71   O30   S    
C12   H8    S    
C7    C58   S    
O13   V3    S    
C16   C20   A    
C26   C74   S    
H14   C52   S    
C33   C47   S    
C23   C25   A    
C5    C29   A    
C69   H36   S    
O3    C1    A    
C67   H32   S    
C46   H18   S    
C70   H38   S    
C27   O25   S    
O22   H19   S    
C10   C12   A    
C71   O29   D    
O7    V1    S    
C1    O8    A    
C19   C21   A    
C3    C32   S    
O8    V2    S    
O32   H42   S    
C20   C22   A    
C70   H39   S    
C49   H15   S    
H4    C24   S    
O5    V1    S    
O20   V3    S    
C15   C17   A    
C36   H10   S    
C28   O26   S    
C43   C49   S    
C41   C45   S    
C73   O34   S    
C13   C71   S    
C33   C41   S    
C20   C28   A    
C18   C26   A    
C8    C28   A    
O17   V3    S    
O19   V4    S    
C34   C42   S    
O16   V4    S    
C42   C44   S    
C48   C52   S    
O9    V2    S    
C74   O35   D    
C47   C51   S    
C39   C55   T    
O3    V1    S    
O34   H43   S    
O24   H20   S    
C63   C64   S    
O12   C60   A    
O27   C67   S    
O11   C59   A    
