data_mof_unit_2103.cif
_audit_creation_date              2013-03-05T15:40:43-0500
_audit_creation_method            fapswitch 2.2
_symmetry_space_group_name_H-M    P1
_symmetry_Int_Tables_number       1
_space_group_crystal_system       triclinic
_cell_length_a                    15.152439
_cell_length_b                    14.931093
_cell_length_c                    14.940294
_cell_angle_alpha                 109.644473
_cell_angle_beta                  109.501653
_cell_angle_gamma                 109.516736
_cell_volume                      2593.98766327

loop_
_atom_site_label
_atom_site_type_symbol
_atom_site_description
_atom_site_fract_x
_atom_site_fract_y
_atom_site_fract_z
_atom_type_partial_charge
C1    C     C_R   0.956757 0.773305 0.048344 -0.072781
H1    H     H_    0.917971 0.799712 0.091851 0.094749
N1    N     N_R   0.993980 0.704500 0.053430 -0.043471
C2    C     C_R   0.781400 0.251628 0.686422 -0.153082
H2    H     H_    0.803160 0.243704 0.623431 0.102766
N2    N     N_R   0.850110 0.295520 0.792970 -0.044295
C3    C     C_R   0.096445 0.590536 0.793718 -0.156191
H3    H     H_    0.157786 0.674128 0.826649 0.093087
N3    N     N_R   0.053690 0.556380 0.849240 -0.040810
C4    C     C_R   0.686561 0.408709 0.962799 -0.144936
H4    H     H_    0.626192 0.326180 0.933233 0.085942
N4    N     N_R   0.790390 0.443640 0.997160 -0.034272
C5    C     C_R   0.006839 0.408227 0.703260 -0.123113
H5    H     H_    0.986323 0.324446 0.654543 0.085454
N5    N     N_R   0.998260 0.443670 0.792970 -0.042768
C6    C     C_R   0.777245 0.592536 0.050544 -0.142353
H6    H     H_    0.799473 0.676731 0.098305 0.091348
N6    N     N_R   0.845830 0.556350 0.053430 -0.036827
C7    C     C_R   0.687727 0.245850 0.774698 -0.113581
H7    H     H_    0.621567 0.225598 0.790290 0.088307
N7    N     N_R   0.792820 0.295510 0.849240 -0.046026
C8    C     C_R   0.042893 0.766083 0.951568 -0.108210
H8    H     H_    0.080439 0.781735 0.904257 0.094512
N8    N     N_R   0.051260 0.704510 0.997160 -0.045127
C9    C     C_R   0.981889 0.807993 0.980633 0.119719
C10   C     C_R   0.679788 0.223273 0.673424 0.166905
C11   C     C_R   0.070499 0.499006 0.703375 0.144087
C12   C     C_R   0.675652 0.500553 0.986244 0.004879
C13   C     C_R   0.040599 0.589805 0.314181 0.060133
N9    N     N_R   0.001740 0.556330 0.207030 -0.065711
C14   C     C_R   0.210000 0.408294 0.908388 -0.139939
H9    H     H_    0.181949 0.322660 0.856582 0.092161
N10   N     N_R   0.154170 0.443650 0.946570 -0.034351
C15   C     C_R   0.304604 0.795090 0.213629 -0.138611
H10   H     H_    0.361126 0.821680 0.186428 0.099233
N11   N     N_R   0.207180 0.704490 0.150760 -0.049656
C16   C     C_R   0.904132 0.195301 0.990736 -0.132509
H11   H     H_    0.841584 0.165721 0.010272 0.098090
N12   N     N_R   0.948740 0.295490 0.002840 -0.041398
C17   C     C_R   0.996391 0.196640 0.901855 -0.123707
H12   H     H_    0.017213 0.169203 0.839232 0.087706
N13   N     N_R   0.006020 0.295500 0.946570 -0.041228
C18   C     C_R   0.212599 0.799172 0.303092 -0.065372
H13   H     H_    0.185688 0.832431 0.357289 0.140094
N14   N     N_R   0.149890 0.704480 0.207030 -0.059275
C19   C     C_R   0.957630 0.406332 0.220920 -0.150971
H14   H     H_    0.921169 0.320636 0.198256 0.108369
N15   N     N_R   0.946310 0.443620 0.150760 -0.054089
C20   C     C_R   0.300126 0.591789 0.999836 -0.139904
H15   H     H_    0.355632 0.677349 0.032697 0.087268
N16   N     N_R   0.209610 0.556360 0.002840 -0.034320
Ni1   Ni    Ni4+2 0.997880 0.629240 0.129060 0.239204
Ni2   Ni    Ni4+2 0.002120 0.370760 0.870940 0.207208
Ni3   Ni    Ni4+2 0.129260 0.629260 0.000000 0.214055
Ni4   Ni    Ni4+2 0.870740 0.370740 0.000000 0.207400
C21   C     C_R   0.018676 0.497549 0.325069 0.080083
C22   C     C_R   0.301802 0.500116 0.939487 0.002074
C23   C     C_R   0.309112 0.856329 0.308948 0.189143
C24   C     C_R   0.929606 0.130742 0.924944 0.069408
C25   C     C_3   0.478083 0.399474 0.856995 -0.379714
H16   H     H_    0.470370 0.321044 0.851929 0.150617
H17   H     H_    0.489071 0.402582 0.787840 0.172953
C26   C     C_3   0.372958 0.398260 0.843898 -0.387845
H18   H     H_    0.330453 0.398139 0.766983 0.173106
H19   H     H_    0.319511 0.320660 0.836256 0.155053
H20   H     H_    0.554419 0.420922 0.065212 0.159642
H21   H     H_    0.402344 0.424320 0.048713 0.161350
C27   C     C_3   0.559884 0.496854 0.064293 -0.406500
C28   C     C_3   0.581158 0.606064 0.966954 -0.395085
C29   C     C_3   0.575748 0.500789 0.968666 0.377405
H22   H     H_    0.648522 0.681638 0.045599 0.151466
H23   H     H_    0.595000 0.610771 0.899628 0.166042
C30   C     C_3   0.399330 0.500424 0.945058 0.377441
C31   C     C_3   0.456618 0.498348 0.051356 -0.382033
C32   C     C_3   0.475668 0.604946 0.951123 -0.405876
H24   H     H_    0.435676 0.606601 0.874683 0.164412
H25   H     H_    0.496922 0.681230 0.021651 0.150370
H26   H     H_    0.630076 0.568669 0.144576 0.161607
H27   H     H_    0.477067 0.572014 0.124674 0.161360
C33   C     C_2   0.388433 0.048649 0.454017 0.420598
C34   C     C_2   0.398526 0.964688 0.396211 -0.401029
H28   H     H_    0.477194 0.970741 0.420134 0.140502
C35   C     C_2   0.484776 0.141217 0.558778 -0.211120
C36   C     C_2   0.582938 0.173768 0.568870 -0.249310
H29   H     H_    0.475330 0.170528 0.630086 0.154321
H30   H     H_    0.591078 0.150371 0.496097 0.141087
C37   C     C_2   0.072809 0.409431 0.536264 -0.101394
C38   C     C_2   0.114772 0.500574 0.631197 -0.215822
H31   H     H_    0.026795 0.328232 0.522907 0.123835
H32   H     H_    0.166413 0.580848 0.645702 0.137419
C39   C     C_2   0.061444 0.416531 0.438259 -0.111020
C40   C     C_2   0.047082 0.496791 0.426972 -0.186675
H33   H     H_    0.050487 0.348395 0.369982 0.135150
H34   H     H_    0.053654 0.563240 0.492970 0.142231
C41   C     C_2   0.930013 0.962550 0.836089 -0.180332
C42   C     C_2   0.880144 0.011252 0.874480 0.028024
H35   H     H_    0.989745 0.003775 0.817938 0.123198
C43   C     C_2   0.937798 0.874618 0.854174 -0.117316
C44   C     C_2   0.953171 0.880153 0.950019 -0.172468
H36   H     H_    0.948032 0.816398 0.797502 0.129298
H37   H     H_    0.948011 0.941208 0.009666 0.149316
N17   N     N_R   0.286327 0.046003 0.421831 0.232695
O1    O     O_R   0.270458 0.103679 0.495676 -0.422477
O2    O     O_R   0.217565 0.002841 0.318434 -0.412720
C45   C     C_1   0.787876 0.950486 0.881814 0.059719
N18   N     N_1   0.714375 0.902093 0.887649 -0.101231
C46   C     C_1   0.074125 0.696706 0.398356 -0.014892
N19   N     N_1   0.100089 0.781816 0.466873 -0.079859

loop_
_geom_bond_atom_site_label_1
_geom_bond_atom_site_label_2
_geom_bond_distance
_ccdc_geom_bond_type
C6    C12   1.375392 A    
N15   Ni4   1.834682 S    
H20   C27   1.113961 S    
C42   C45   1.453071 S    
C26   H19   1.110737 S    
C37   C39   1.460488 S    
N10   Ni2   1.878550 S    
C30   C31   1.551538 S    
C7    H7    1.073051 S    
C18   H13   1.074203 S    
C34   H28   1.085652 S    
C41   C43   1.459935 S    
N6    Ni1   1.878550 S    
C3    H3    1.081874 S    
C16   H11   1.081751 S    
C25   C26   1.531725 S    
N5    Ni2   1.842610 S    
N9    N15   1.370103 A    
C7    N7    1.340765 A    
C36   H30   1.087342 S    
C1    H1    1.077465 S    
C13   C46   1.438510 S    
C28   C29   1.555787 S    
N13   Ni2   1.842955 S    
C27   C31   1.520039 S    
C3    C11   1.374975 A    
C25   H17   1.113238 S    
C15   H10   1.081634 S    
C22   C30   1.450469 S    
C28   H22   1.110836 S    
C7    C10   1.387759 A    
C18   C23   1.380248 A    
C9    C44   1.439135 S    
N12   Ni4   1.883325 S    
C41   C42   1.343442 D    
C6    H6    1.075399 S    
C20   N16   1.317284 A    
C8    C9    1.380703 A    
C46   N19   1.157573 T    
C14   N10   1.318283 A    
C17   N13   1.332071 A    
C17   C24   1.381000 A    
C5    H5    1.080817 S    
C1    C9    1.383601 A    
C30   C32   1.552575 S    
N1    N8    1.395433 A    
C11   C38   1.450155 S    
C33   C35   1.470696 S    
N12   N13   1.395434 A    
C27   H26   1.114065 S    
C19   N15   1.332029 A    
C2    N2    1.335505 A    
C23   C34   1.445953 S    
C39   C40   1.340714 D    
N7    Ni4   1.834725 S    
C2    H2    1.080163 S    
C26   C30   1.552473 S    
N14   Ni1   1.877250 S    
N2    N7    1.395560 A    
C33   N17   1.440887 S    
C25   H16   1.110754 S    
C1    N1    1.338031 A    
C28   H23   1.113216 S    
C32   H24   1.113101 S    
C13   N9    1.339897 A    
C39   H33   1.086008 S    
C32   H25   1.110281 S    
C35   C36   1.337640 D    
C25   C29   1.555869 S    
C40   H34   1.084980 S    
N11   N14   1.395560 A    
H21   C31   1.114113 S    
N17   O2    1.301767 A    
C18   N14   1.337593 A    
C16   C24   1.381737 A    
C4    N4    1.320292 A    
C27   C29   1.542295 S    
C17   H12   1.080955 S    
C35   H29   1.084982 S    
C38   H32   1.086886 S    
C43   C44   1.340326 D    
C43   H36   1.086033 S    
C31   H27   1.114133 S    
C5    N5    1.333693 A    
C8    N8    1.329109 A    
C24   C42   1.462222 S    
N2    Ni2   1.877250 S    
N4    N6    1.370102 A    
C4    C12   1.377573 A    
C3    N3    1.338035 A    
N9    Ni1   1.842610 S    
C19   H14   1.080992 S    
C10   C36   1.452024 S    
C44   H37   1.085929 S    
C14   H9    1.079999 S    
C12   C29   1.448902 S    
C33   C34   1.352461 D    
C20   C22   1.376899 A    
C2    C10   1.377351 A    
N1    Ni1   1.842955 S    
C41   H35   1.084180 S    
C13   C21   1.383938 A    
N10   N16   1.370103 A    
C45   N18   1.157382 T    
N16   Ni3   1.884386 S    
C14   C22   1.377100 A    
C37   H31   1.084191 S    
N3    N5    1.370103 A    
C16   N12   1.337268 A    
C28   C32   1.529159 S    
C15   N11   1.333047 A    
N17   O1    1.301267 A    
N4    Ni4   1.884385 S    
N11   Ni3   1.834724 S    
C4    H4    1.077684 S    
C26   H18   1.113099 S    
C21   C40   1.442432 S    
C37   C38   1.337848 D    
C6    N6    1.317075 A    
C20   H15   1.079411 S    
C19   C21   1.379889 A    
C15   C23   1.373519 A    
C8    H8    1.081032 S    
C5    C11   1.375272 A    
N3    Ni3   1.834683 S    
N8    Ni3   1.883324 S    
