data_mof_unit_3586.cif
_audit_creation_date              2012-10-26T18:57:00-0400
_audit_creation_method            fapswitch 2.2
_symmetry_space_group_name_H-M    P1
_symmetry_Int_Tables_number       1
_space_group_crystal_system       triclinic
_cell_length_a                    23.410109
_cell_length_b                    15.824367
_cell_length_c                    14.608717
_cell_angle_alpha                 89.30094
_cell_angle_beta                  90.181517
_cell_angle_gamma                 89.586967
_cell_volume                      5411.22940048

loop_
_atom_site_label
_atom_site_type_symbol
_atom_type_description
_atom_site_fract_x
_atom_site_fract_y
_atom_site_fract_z
_atom_type_partial_charge
C1    C     C_R   0.500139 0.339466 0.500449 0.528466
C2    C     C_R   0.701087 0.581274 0.495291 -0.047389
C3    C     C_R   0.243663 0.399045 0.479177 0.297986
C4    C     C_R   0.761776 0.581735 0.503672 0.272129
C5    C     C_R   0.209676 0.466728 0.511208 0.201682
C6    C     C_R   0.791305 0.503575 0.510615 0.199182
C7    C     C_3   0.545916 0.970005 0.537415 0.025393
C8    C     C_3   0.447712 0.030132 0.463090 0.028481
C9    C     C_3   0.541929 0.027114 0.450774 0.024772
C10   C     C_3   0.451672 0.973063 0.549891 0.028255
C11   C     C_1   0.499206 0.249973 0.501287 -0.046990
C12   C     C_R   0.498924 0.660530 0.499580 0.533725
C13   C     C_1   0.496969 0.750057 0.498884 -0.045566
C14   C     C_3   0.501763 0.025832 0.587819 0.021755
C15   C     C_3   0.491935 0.974298 0.412763 0.020899
C16   C     C_R   0.390814 0.497594 0.499841 0.538483
C17   C     C_R   0.609122 0.501347 0.500106 0.534971
C18   C     C_3   0.497725 0.082685 0.501117 0.013473
C19   C     C_3   0.495825 0.917409 0.499514 0.012964
C20   C     C_1   0.498494 0.174500 0.501491 -0.092129
C21   C     C_1   0.495798 0.825558 0.498958 -0.092939
C22   C     C_3   0.488587 0.578131 0.967303 -0.073987
C23   C     C_R   0.234926 0.541671 0.539598 -0.082660
C24   C     C_3   0.511221 0.421043 0.032644 -0.085979
C25   C     C_3   0.448348 0.524904 0.028949 0.239913
C26   C     C_3   0.551444 0.474331 0.970957 0.250734
C27   C     C_3   0.539751 0.553004 0.029912 0.251003
C28   C     C_3   0.460013 0.446197 0.970011 0.208023
C29   C     C_3   0.499433 0.500306 0.091791 -0.088512
C30   C     C_3   0.500329 0.498922 0.908205 -0.087849
C31   C     C_1   0.499618 0.500363 0.194283 0.241528
C32   C     C_1   0.500251 0.499250 0.805713 0.246009
C33   C     C_R   0.880157 0.482854 0.591836 0.451821
C34   C     C_R   0.761471 0.427723 0.514377 -0.104160
C35   C     C_R   0.119607 0.470279 0.430922 0.489941
C36   C     C_R   0.880983 0.502233 0.430024 0.438474
C37   C     C_R   0.120464 0.454797 0.593242 0.403995
C38   C     C_R   0.940014 0.480816 0.425700 0.006510
C39   C     C_R   0.059939 0.454680 0.595817 0.003020
C40   C     C_R   0.969872 0.472160 0.510463 -0.087007
C41   C     C_R   0.029837 0.462507 0.511391 -0.086825
C42   C     C_R   0.940178 0.478423 0.594609 0.020737
C43   C     C_R   0.059875 0.460252 0.427834 0.034820
C44   C     C_R   0.969840 0.465843 0.341517 -0.026448
C45   C     C_R   0.293898 0.552410 0.536687 -0.040600
C46   C     C_R   0.028559 0.450445 0.679185 0.004260
C47   C     C_R   0.029670 0.448676 0.344561 0.214638
C48   C     C_R   0.970891 0.476845 0.678452 0.252917
C49   C     C_3   0.939185 0.467996 0.248835 -0.184133
C50   C     C_3   0.899463 0.391603 0.236223 -0.278233
C51   C     C_3   0.872043 0.392909 0.141302 -0.395630
C52   C     C_3   0.053389 0.411904 0.767353 -0.183877
C53   C     C_3   0.070920 0.318938 0.754723 -0.314355
C54   C     C_3   0.096900 0.281715 0.842410 -0.398884
C55   C     C_3   0.476932 0.663051 0.918608 -0.218450
C56   C     C_R   0.702113 0.426202 0.511455 -0.037497
C57   C     C_3   0.464329 0.736101 0.983400 -0.257420
C58   C     C_3   0.455482 0.818471 0.929453 -0.475200
C59   C     C_3   0.522716 0.335920 0.080972 -0.233360
C60   C     C_3   0.538148 0.264143 0.016012 -0.270604
C61   C     C_3   0.540938 0.179782 0.067806 -0.481244
C62   C     C_3   0.318362 0.634682 0.571085 -0.253256
C63   C     C_3   0.324646 0.632142 0.675619 -0.260263
C64   C     C_3   0.354000 0.711356 0.710303 -0.458615
C65   C     C_3   0.672961 0.341268 0.520616 -0.262495
C66   C     C_3   0.667446 0.315661 0.621787 -0.260426
C67   C     C_R   0.328420 0.487792 0.499897 0.002783
C68   C     C_3   0.644513 0.226131 0.632400 -0.451962
C69   C     C_3   0.340706 0.345400 0.421297 -0.236896
C70   C     C_3   0.344167 0.363540 0.317880 -0.242173
C71   C     C_3   0.383682 0.300855 0.270490 -0.438409
C72   C     C_3   0.667506 0.662763 0.476743 -0.245453
C73   C     C_3   0.659655 0.677749 0.373328 -0.250552
C74   C     C_3   0.636359 0.766229 0.352528 -0.431271
C75   C     C_3   0.590404 0.069854 0.397342 -0.251181
C76   C     C_3   0.631640 0.006620 0.353557 -0.308975
C77   C     C_3   0.675138 0.051989 0.293379 -0.439130
C78   C     C_R   0.671679 0.502964 0.500916 0.009985
C79   C     C_3   0.402819 0.931971 0.604003 -0.260085
C80   C     C_3   0.362595 0.997039 0.647354 -0.298849
C81   C     C_3   0.317436 0.953988 0.706273 -0.438428
C82   C     C_3   0.598758 0.923846 0.576344 -0.250733
C83   C     C_3   0.644238 0.983792 0.613148 -0.325731
C84   C     C_3   0.697897 0.934992 0.642061 -0.412065
C85   C     C_3   0.395089 0.075958 0.422980 -0.255822
C86   C     C_3   0.349692 0.015485 0.386739 -0.323026
C87   C     C_3   0.296543 0.063868 0.354689 -0.404675
C88   C     C_3   0.486407 0.933235 0.318422 -0.243382
C89   C     C_R   0.303460 0.411487 0.468321 -0.038360
C90   C     C_3   0.484967 0.997499 0.239019 -0.308872
C91   C     C_3   0.476451 0.953304 0.147818 -0.452273
C92   C     C_3   0.508030 0.066578 0.682180 -0.244726
C93   C     C_3   0.509228 0.002078 0.761349 -0.307820
C94   C     C_3   0.520129 0.045559 0.852308 -0.452718
Cu1   Cu    Cu3+1 0.500010 0.500000 0.590220 1.026675
Cu2   Cu    Cu3+1 0.499990 0.500000 0.409780 1.005000
H1    H     H_    0.207898 0.592230 0.564617 0.143802
H2    H     H_    0.135908 0.317020 0.861595 0.207108
H3    H     H_    0.522788 0.888836 0.309016 0.147403
H4    H     H_    0.446939 0.894783 0.317706 0.153280
H5    H     H_    0.562108 0.077849 0.851005 0.158784
H6    H     H_    0.485908 0.092696 0.866064 0.174223
H7    H     H_    0.520575 0.997866 0.908694 0.138695
H8    H     H_    0.467827 0.968898 0.765989 0.162677
H9    H     H_    0.543334 0.954352 0.750648 0.164803
H10   H     H_    0.547915 0.103982 0.682557 0.142274
H11   H     H_    0.472224 0.111875 0.692135 0.161487
H12   H     H_    0.065618 0.284688 0.899326 0.183144
H13   H     H_    0.108813 0.214561 0.831417 0.163636
H14   H     H_    0.032614 0.281667 0.736030 0.166612
H15   H     H_    0.102487 0.312150 0.698905 0.200949
H16   H     H_    0.088950 0.450465 0.794018 0.232426
H17   H     H_    0.021267 0.411005 0.822864 0.206672
H18   H     H_    0.304898 0.616815 0.013437 0.378984
H19   H     H_    0.696313 0.387076 0.985277 0.371453
H20   H     H_    0.494845 0.834900 0.891085 0.159785
H21   H     H_    0.785293 0.368898 0.520560 0.124772
H22   H     H_    0.419398 0.812453 0.880458 0.151777
H23   H     H_    0.445437 0.870520 0.977076 0.147267
H24   H     H_    0.425111 0.723060 0.023152 0.233709
H25   H     H_    0.500307 0.744473 0.031745 0.229535
H26   H     H_    0.514837 0.678785 0.876237 0.178761
H27   H     H_    0.439963 0.654960 0.871773 0.162128
H28   H     H_    0.572515 0.182667 0.124605 0.157957
H29   H     H_    0.498342 0.163900 0.096290 0.146026
H30   H     H_    0.554250 0.128929 0.020678 0.148623
H31   H     H_    0.506087 0.259574 0.960461 0.208592
H32   H     H_    0.846174 0.451447 0.131348 0.196147
H33   H     H_    0.580466 0.275963 0.984878 0.238340
H34   H     H_    0.558325 0.344101 0.130510 0.177886
H35   H     H_    0.483930 0.318891 0.120504 0.137846
H36   H     H_    0.404106 0.268314 0.014218 0.324837
H37   H     H_    0.643090 0.724959 0.019579 0.365886
H38   H     H_    0.022218 0.283269 0.226293 0.350887
H39   H     H_    0.977289 0.586729 0.897988 0.379756
H40   H     H_    0.398460 0.714658 0.684152 0.155553
H41   H     H_    0.330031 0.768549 0.687482 0.148771
H42   H     H_    0.355220 0.709867 0.786256 0.168391
H43   H     H_    0.905413 0.389843 0.087517 0.199108
H44   H     H_    0.281709 0.627365 0.707506 0.192473
H45   H     H_    0.350242 0.575936 0.697376 0.219905
H46   H     H_    0.360309 0.648390 0.539054 0.154317
H47   H     H_    0.289686 0.688050 0.550617 0.140771
H48   H     H_    0.602140 0.221103 0.598987 0.155635
H49   H     H_    0.674476 0.180192 0.601092 0.140025
H50   H     H_    0.639911 0.210052 0.706196 0.168978
H51   H     H_    0.709892 0.318522 0.655958 0.194611
H52   H     H_    0.638048 0.360266 0.656668 0.229040
H53   H     H_    0.630110 0.342105 0.487825 0.151471
H54   H     H_    0.843603 0.337498 0.134195 0.153501
H55   H     H_    0.698388 0.292767 0.483794 0.136742
H56   H     H_    0.366841 0.235812 0.277793 0.145544
H57   H     H_    0.427354 0.303283 0.300154 0.157048
H58   H     H_    0.386191 0.317076 0.196545 0.202763
H59   H     H_    0.300989 0.359735 0.286643 0.240306
H60   H     H_    0.360135 0.428383 0.304759 0.222094
H61   H     H_    0.384142 0.343810 0.451474 0.143405
H62   H     H_    0.325256 0.280337 0.432712 0.203651
H63   H     H_    0.666789 0.814587 0.376893 0.159136
H64   H     H_    0.594500 0.775653 0.386296 0.148459
H65   H     H_    0.923678 0.331680 0.245543 0.183705
H66   H     H_    0.630551 0.774686 0.277519 0.192929
H67   H     H_    0.701137 0.670062 0.337532 0.226739
H68   H     H_    0.629645 0.630567 0.345253 0.217903
H69   H     H_    0.625054 0.660822 0.510255 0.133543
H70   H     H_    0.688391 0.717984 0.507675 0.215714
H71   H     H_    0.139087 0.274296 0.546564 0.345986
H72   H     H_    0.781974 0.694983 0.654191 0.370081
H73   H     H_    0.653153 0.086729 0.236708 0.150563
H74   H     H_    0.700236 0.097208 0.334609 0.158394
H75   H     H_    0.704917 0.004992 0.263421 0.165838
H76   H     H_    0.865055 0.390437 0.288060 0.192366
H77   H     H_    0.655089 0.970637 0.407430 0.167187
H78   H     H_    0.608010 0.961218 0.310815 0.164109
H79   H     H_    0.571179 0.111590 0.343752 0.138675
H80   H     H_    0.614446 0.111315 0.444362 0.134594
H81   H     H_    0.290564 0.912238 0.663647 0.157024
H82   H     H_    0.338022 0.916192 0.762018 0.148240
H83   H     H_    0.289475 0.002627 0.737553 0.175012
H84   H     H_    0.386916 0.040869 0.690987 0.174717
H85   H     H_    0.340471 0.034708 0.593391 0.181382
H86   H     H_    0.378155 0.890762 0.557583 0.138254
H87   H     H_    0.916105 0.528696 0.238602 0.201576
H88   H     H_    0.421623 0.890246 0.657977 0.136083
H89   H     H_    0.687602 0.887851 0.696408 0.178640
H90   H     H_    0.716628 0.901943 0.582434 0.202939
H91   H     H_    0.730014 0.979556 0.669246 0.160900
H92   H     H_    0.656144 0.030845 0.560006 0.161416
H93   H     H_    0.627671 0.017987 0.673361 0.164681
H94   H     H_    0.585092 0.880084 0.631935 0.144046
H95   H     H_    0.617319 0.884303 0.521532 0.138829
H96   H     H_    0.277659 0.099571 0.412280 0.220112
H97   H     H_    0.307416 0.108495 0.298270 0.170765
H98   H     H_    0.969640 0.470405 0.191217 0.215655
H99   H     H_    0.264283 0.018700 0.329170 0.167558
H100  H     H_    0.366766 0.979553 0.328120 0.168231
H101  H     H_    0.336983 0.969833 0.440870 0.168021
H102  H     H_    0.376393 0.116714 0.476645 0.154113
H103  H     H_    0.409231 0.118561 0.366749 0.131507
H104  H     H_    0.511946 0.907897 0.135489 0.170718
H105  H     H_    0.435254 0.918899 0.147630 0.165671
H106  H     H_    0.475739 0.000853 0.091295 0.136730
H107  H     H_    0.449654 0.043560 0.248231 0.161413
H108  H     H_    0.525652 0.032662 0.235814 0.162859
N1    N     N_R   0.852553 0.498454 0.511262 -0.377248
N2    N     N_R   0.148417 0.462314 0.511801 -0.379216
N3    N     N_1   0.499980 0.500000 0.274190 -0.169721
N4    N     N_1   0.500020 0.500000 0.725810 -0.166064
O1    O     O_R   0.500010 0.379080 0.576170 -0.469091
O2    O     O_2   0.148712 0.492194 0.354828 -0.391584
O3    O     O_2   0.851569 0.527618 0.355180 -0.488091
O4    O     O_2   0.151678 0.451505 0.670818 -0.501046
O5    O     O_2   0.349526 0.479871 0.108567 -0.218628
O6    O     O_2   0.387356 0.619272 0.145988 -0.309895
O7    O     O_3   0.341415 0.599365 0.985034 -0.508952
O8    O     O_2   0.612215 0.378317 0.855206 -0.334473
O9    O     O_2   0.648827 0.519636 0.887364 -0.197660
O10   O     O_3   0.659679 0.403430 0.014058 -0.505136
O11   O     O_2   0.359438 0.431609 0.882678 -0.174416
O12   O     O_R   0.499990 0.620920 0.423830 -0.472111
O13   O     O_2   0.431387 0.323139 0.852317 -0.318709
O14   O     O_3   0.378505 0.318233 0.009100 -0.476912
O15   O     O_2   0.567677 0.674608 0.148849 -0.345137
O16   O     O_2   0.641853 0.570478 0.112370 -0.211416
O17   O     O_3   0.616707 0.685312 0.989332 -0.504789
O18   O     O_2   0.085886 0.470110 0.185497 -0.197922
O19   O     O_2   0.116413 0.349775 0.280577 -0.156600
O20   O     O_3   0.023084 0.336437 0.189826 -0.547066
O21   O     O_2   0.902675 0.597047 0.752007 -0.195367
O22   O     O_2   0.911036 0.461420 0.834752 -0.258711
O23   O     O_R   0.500000 0.379080 0.423800 -0.518621
O24   O     O_3   0.995934 0.566120 0.841644 -0.532224
O25   O     O_2   0.221794 0.272302 0.362761 -0.235673
O26   O     O_2   0.242200 0.233805 0.521733 -0.343076
O27   O     O_3   0.142176 0.293659 0.482087 -0.483505
O28   O     O_2   0.863352 0.666743 0.521492 -0.211407
O29   O     O_2   0.789286 0.730790 0.425188 -0.254816
O30   O     O_3   0.776125 0.733515 0.600984 -0.533522
O31   O     O_R   0.500000 0.620920 0.576200 -0.509016
O32   O     O_R   0.417890 0.499980 0.576200 -0.489254
O33   O     O_R   0.582110 0.500020 0.423800 -0.498767
O34   O     O_R   0.417870 0.499970 0.423830 -0.496189
O35   O     O_R   0.582130 0.500030 0.576170 -0.483990
O36   O     O_2   0.849085 0.469015 0.668041 -0.405113
S1    S     S_3+6 0.379928 0.556008 0.071064 0.044230
S2    S     S_3+6 0.619741 0.443669 0.927973 0.045625
S3    S     S_3+6 0.406219 0.378500 0.924947 0.063273
S4    S     S_3+6 0.593004 0.621992 0.074031 0.031453
S5    S     S_3+6 0.065671 0.401256 0.249039 0.061498
S6    S     S_3+6 0.942629 0.525941 0.778437 0.052061
S7    S     S_3+6 0.212646 0.297564 0.460427 0.033744
S8    S     S_3+6 0.800005 0.679044 0.510494 0.054350

loop_
_geom_bond_atom_site_label_1
_geom_bond_atom_site_label_2
_ccdc_geom_bond_type
C53   H14   S    
C44   C49   S    
O18   S5    D    
C66   C68   S    
C64   H40   S    
C59   H34   S    
C34   C56   A    
C93   C94   S    
C23   C45   A    
C82   H95   S    
C27   C29   S    
C37   N2    A    
C14   C18   S    
C84   H90   S    
Cu1   Cu2   S    
C1    C11   S    
C63   H44   S    
O27   S7    S    
C62   H47   S    
C57   C58   S    
C85   H102  S    
C39   C41   A    
C64   H42   S    
C53   C54   S    
C25   C28   S    
H71   O27   S    
C59   H35   S    
C26   C27   S    
C74   H63   S    
C61   H28   S    
H36   O14   S    
C33   C42   A    
O10   S2    S    
C76   H77   S    
C19   C21   S    
C35   O2    S    
C3    S7    S    
C81   H82   S    
O20   S5    S    
C73   H68   S    
C8    C10   S    
C67   C89   A    
C69   C89   S    
C49   H98   S    
C52   H16   S    
O8    S2    D    
C56   C65   S    
C71   H57   S    
C46   C52   S    
C45   C62   S    
C58   H22   S    
C56   C78   A    
C79   H88   S    
C8    C85   S    
C72   H69   S    
Cu2   O23   S    
C1    O23   A    
C24   C29   S    
C17   C78   S    
C6    N1    S    
C92   H11   S    
C93   H9    S    
C5    N2    S    
C49   H87   S    
O16   S4    D    
C7    C14   S    
C71   H56   S    
C94   H5    S    
C77   H74   S    
C22   C25   S    
C45   C67   A    
C69   H61   S    
O29   S8    D    
C70   C71   S    
C32   N4    T    
C35   C43   A    
C36   O3    S    
C66   H52   S    
O21   S6    D    
C44   C47   A    
O19   S5    D    
C86   H100  S    
C53   H15   S    
O17   S4    S    
C40   C42   A    
C55   H26   S    
C17   O33   A    
C59   C60   S    
C51   H54   S    
C82   H94   S    
C50   H65   S    
C58   H20   S    
C36   N1    A    
C41   C43   A    
C84   H89   S    
O28   S8    D    
C2    C72   S    
C88   H3    S    
C93   H8    S    
C85   H103  S    
C50   C51   S    
C90   H108  S    
C64   H41   S    
C12   O31   A    
C73   C74   S    
C25   C29   S    
C37   C39   A    
C55   H27   S    
C11   C20   T    
C63   C64   S    
C1    O1    A    
C70   H59   S    
Cu1   O1    S    
C76   C77   S    
C81   H83   S    
C4    C6    A    
C31   N3    T    
C10   C14   S    
C74   H66   S    
C86   C87   S    
C72   C73   S    
Cu2   N3    S    
H72   O30   S    
O13   S3    D    
C85   C86   S    
C71   H58   S    
C75   H79   S    
C82   C83   S    
C8    C18   S    
C6    C34   A    
C54   H13   S    
C60   C61   S    
C91   H105  S    
C28   S3    S    
H38   O20   S    
C65   H55   S    
C87   H97   S    
C15   C19   S    
C75   C76   S    
C37   O4    S    
C38   C44   A    
C62   C63   S    
C2    C78   A    
C30   C32   S    
O14   S3    S    
C62   H46   S    
C35   N2    A    
C83   C84   S    
C5    C23   A    
C10   C19   S    
C77   H75   S    
Cu2   O34   S    
C7    C82   S    
C69   H62   S    
C63   H45   S    
C13   C21   T    
H19   O10   S    
C16   C67   S    
C42   C48   A    
C80   H85   S    
O9    S2    D    
O5    S1    D    
C51   H43   S    
C4    S8    S    
C66   H51   S    
C88   H4    S    
C57   H24   S    
C91   H104  S    
C92   H10   S    
C40   C41   A    
C23   H1    S    
C14   C92   S    
C94   H7    S    
C26   C30   S    
C8    C15   S    
C7    C19   S    
H39   O24   S    
C39   C46   A    
C22   C27   S    
C70   H60   S    
C83   H92   S    
O24   S6    S    
C51   H32   S    
C80   H84   S    
C68   H50   S    
C52   C53   S    
O25   S7    D    
C90   H107  S    
Cu1   O31   S    
Cu1   N4    S    
C7    C9    S    
C84   H91   S    
C22   C30   S    
O30   S8    S    
C75   H80   S    
C29   C31   S    
C72   H70   S    
H18   O7    S    
C83   H93   S    
C60   H31   S    
C24   C28   S    
C88   C90   S    
C80   C81   S    
C3    C5    A    
C60   H33   S    
C50   H76   S    
C10   C79   S    
O7    S1    S    
C22   C55   S    
C54   H12   S    
O15   S4    D    
C9    C75   S    
O26   S7    D    
C79   H86   S    
C74   H64   S    
C3    C89   A    
C87   H96   S    
C55   C57   S    
C9    C15   S    
C81   H81   S    
C28   C30   S    
C73   H67   S    
Cu2   O12   S    
C27   S4    S    
H37   O17   S    
C38   C40   A    
C24   C26   S    
C90   C91   S    
C34   H21   S    
C24   C59   S    
C52   H17   S    
C2    C4    A    
C17   O35   A    
C36   C38   A    
C92   C93   S    
C68   H48   S    
O6    S1    D    
C18   C20   S    
C76   H78   S    
C65   C66   S    
C48   S6    S    
C69   C70   S    
Cu2   O33   S    
C47   S5    S    
C91   H106  S    
C86   H101  S    
C57   H25   S    
C79   C80   S    
C46   C48   A    
C9    C18   S    
C33   N1    A    
C61   H30   S    
C58   H23   S    
C12   C13   S    
C16   O32   A    
C77   H73   S    
C49   C50   S    
O11   S3    D    
C65   H53   S    
C54   H2    S    
C33   O36   S    
C61   H29   S    
Cu1   O32   S    
C87   H99   S    
O22   S6    D    
C43   C47   A    
C12   O12   A    
C16   O34   A    
C68   H49   S    
C26   S2    S    
C94   H6    S    
Cu1   O35   S    
C15   C88   S    
C25   S1    S    
