data_mof_unit_4717.cif
_audit_creation_date              2012-12-10T17:12:45-0500
_audit_creation_method            fapswitch 2.2
_symmetry_space_group_name_H-M    P1
_symmetry_Int_Tables_number       1
_space_group_crystal_system       triclinic
_cell_length_a                    23.433106
_cell_length_b                    10.648251
_cell_length_c                    9.990113
_cell_angle_alpha                 92.021439
_cell_angle_beta                  90.036509
_cell_angle_gamma                 90.118823
_cell_volume                      2491.19169567

loop_
_atom_site_label
_atom_site_type_symbol
_atom_type_description
_atom_site_fract_x
_atom_site_fract_y
_atom_site_fract_z
_atom_type_partial_charge
C1    C     C_R   0.499167 0.262515 0.497219 0.915662
C2    C     C_R   0.120451 0.622785 0.484470 0.508578
C3    C     C_R   0.237997 0.514264 0.379001 -0.184738
C4    C     C_R   0.389276 0.500195 0.499993 0.904923
C5    C     C_R   0.297163 0.511486 0.378912 -0.211920
C6    C     C_R   0.327026 0.502490 0.499979 -0.113698
C7    C     C_R   0.297006 0.496644 0.621154 -0.317767
C8    C     C_R   0.237536 0.501846 0.621757 0.588647
C9    C     C_R   0.208315 0.508591 0.499769 0.221815
C10   C     C_R   0.761894 0.521872 0.379939 -0.110201
C11   C     C_R   0.702711 0.516662 0.379383 -0.223886
C12   C     C_R   0.969034 0.291262 0.527184 -0.183808
C13   C     C_R   0.672899 0.505026 0.500246 -0.040405
C14   C     C_R   0.702979 0.499156 0.621501 -0.209878
C15   C     C_R   0.762162 0.504123 0.621608 -0.104203
C16   C     C_R   0.504708 0.738291 0.502640 0.803924
C17   C     C_R   0.791466 0.515308 0.500910 0.338321
C18   C     C_2   0.538979 0.934657 0.406236 0.012608
C19   C     C_2   0.519877 0.870979 0.513276 0.304414
C20   C     C_2   0.541449 0.071237 0.423447 -0.089576
C21   C     C_2   0.498812 0.130347 0.487290 -0.273664
C22   C     C_2   0.537064 0.561828 0.927152 -0.144307
C23   C     C_R   0.028189 0.289379 0.526466 -0.164323
C24   C     C_2   0.539530 0.553853 0.077028 -0.134476
C25   C     C_R   0.610704 0.500822 0.500030 0.868204
C26   C     C_R   0.879789 0.629231 0.487996 0.485690
C27   C     C_R   0.880293 0.406545 0.513091 0.496481
C28   C     C_R   0.939568 0.404671 0.513186 0.003863
C29   C     C_R   0.969749 0.518478 0.498835 -0.043112
C30   C     C_R   0.940142 0.633900 0.485212 -0.050113
C31   C     C_3   0.552878 0.873397 0.269314 -0.432962
C32   C     C_3   0.581451 0.960492 0.169518 -0.368838
C33   C     C_3   0.593243 0.891084 0.036080 -0.838023
C34   C     C_R   0.058951 0.400974 0.512270 -0.019162
C35   C     C_3   0.474193 0.918183 0.717336 -0.277804
C36   C     C_3   0.946550 0.876305 0.451959 -0.349027
C37   C     C_3   0.926559 0.891432 0.306995 -0.321908
C38   C     C_3   0.898185 0.018726 0.289821 -0.797982
C39   C     C_3   0.209275 0.608998 0.810279 -0.312420
C40   C     C_R   0.029802 0.515810 0.498468 -0.022254
C41   C     C_R   0.060807 0.627468 0.484335 -0.044074
C42   C     C_R   0.032083 0.741084 0.470403 -0.191328
C43   C     C_R   0.972344 0.747101 0.470374 0.096589
C44   C     C_R   0.118520 0.400858 0.511755 0.566809
H1    H     H_    0.946482 0.203454 0.539076 0.184675
H2    H     H_    0.049661 0.200305 0.537317 0.188128
H3    H     H_    0.464440 0.468049 0.100741 0.162521
H4    H     H_    0.056500 0.826502 0.458250 0.191970
H5    H     H_    0.215048 0.520448 0.285332 0.161136
H6    H     H_    0.319414 0.516281 0.284238 0.173403
H7    H     H_    0.319391 0.487939 0.715262 0.176540
H8    H     H_    0.784887 0.530221 0.286653 0.130821
H9    H     H_    0.622591 0.810945 0.050792 0.248040
H10   H     H_    0.552767 0.855482 0.990833 0.258703
H11   H     H_    0.613476 0.956277 0.965814 0.270293
H12   H     H_    0.680423 0.521970 0.284715 0.156300
H13   H     H_    0.553117 0.041563 0.150405 0.233659
H14   H     H_    0.622611 0.996073 0.211423 0.232687
H15   H     H_    0.582322 0.793340 0.284479 0.216279
H16   H     H_    0.512587 0.838127 0.222653 0.230416
H17   H     H_    0.479276 0.843415 0.791038 0.194980
H18   H     H_    0.435118 0.900408 0.655716 0.124938
H19   H     H_    0.467511 0.007741 0.775280 0.182915
H20   H     H_    0.860837 0.029388 0.357689 0.293712
H21   H     H_    0.929085 0.095887 0.312032 0.255315
H22   H     H_    0.883292 0.025941 0.184844 0.245164
H23   H     H_    0.680907 0.490430 0.715961 0.162163
H24   H     H_    0.963970 0.883798 0.238787 0.212872
H25   H     H_    0.895964 0.816059 0.276375 0.255133
H26   H     H_    0.912292 0.896502 0.526006 0.250656
H27   H     H_    0.978848 0.950889 0.474518 0.166374
H28   H     H_    0.191170 0.685071 0.749515 0.189078
H29   H     H_    0.253465 0.633329 0.842866 0.156547
H30   H     H_    0.182739 0.602771 0.901727 0.202208
H31   H     H_    0.785362 0.498916 0.715054 0.134267
H32   H     H_    0.576272 0.123986 0.380391 0.137247
H33   H     H_    0.461692 0.082279 0.525146 0.138490
H34   H     H_    0.568705 0.619780 0.879477 0.167837
H35   H     H_    0.473123 0.439751 0.895676 0.165977
H36   H     H_    0.575746 0.596979 0.128366 0.157376
N1    N     N_R   0.852143 0.517200 0.500778 -0.354518
N2    N     N_R   0.147659 0.510765 0.498408 -0.340343
N3    N     N_2   0.500610 0.501330 0.852150 -0.192894
N4    N     N_2   0.500630 0.501360 0.147810 -0.190026
O1    O     O_R   0.499990 0.319060 0.613040 -0.595757
O2    O     O_R   0.583840 0.500020 0.613040 -0.611651
O3    O     O_R   0.583850 0.500060 0.386900 -0.625606
O4    O     O_2   0.848258 0.734182 0.479240 -0.576882
O5    O     O_3   0.524744 0.929187 0.640872 -0.591322
O6    O     O_3   0.207480 0.491956 0.739922 -0.596140
O7    O     O_2   0.850632 0.298572 0.524693 -0.568344
O8    O     O_2   0.147272 0.292146 0.524212 -0.540375
O9    O     O_2   0.151182 0.729059 0.471562 -0.569119
O10   O     O_R   0.500010 0.319100 0.386900 -0.610679
O11   O     O_R   0.416150 0.499940 0.613100 -0.622600
O12   O     O_R   0.416160 0.499980 0.386960 -0.616832
O13   O     O_R   0.499990 0.680900 0.613100 -0.588024
O14   O     O_R   0.500010 0.680940 0.386960 -0.642701
Zn1   Zn    Zn3+2 0.499990 0.499970 0.650990 0.952870
Zn2   Zn    Zn3+2 0.500010 0.500030 0.349010 0.931452

loop_
_geom_bond_atom_site_label_1
_geom_bond_atom_site_label_2
_ccdc_geom_bond_type
C33   H11   S    
C15   H31   S    
C1    C21   S    
C37   H25   S    
C41   C42   A    
C32   H14   S    
C10   H8    S    
C3    H5    S    
C7    C8    A    
C12   C23   A    
C37   C38   S    
C12   C28   A    
C3    C9    A    
C36   C37   S    
C44   N2    A    
C5    C6    A    
O11   Zn1   S    
C16   O13   A    
C10   C17   A    
C37   H24   S    
C25   O3    A    
C20   H32   S    
C18   C19   D    
C39   H30   S    
C31   H15   S    
C4    O12   A    
C24   H36   S    
C38   H22   S    
C8    C9    A    
C39   H28   S    
C27   O7    S    
C19   O5    S    
C39   O6    S    
C17   N1    S    
C44   O8    S    
C36   H27   S    
C9    N2    S    
C23   H2    S    
N3    Zn1   S    
C13   C14   A    
C1    O1    A    
C13   C25   S    
C32   H13   S    
O13   Zn1   S    
C36   H26   S    
C38   H20   S    
C33   H9    S    
N4    Zn2   S    
C27   N1    A    
C34   C44   A    
C22   H34   S    
C4    C6    S    
C1    O10   A    
C31   H16   S    
C29   C30   A    
O1    Zn1   S    
C4    O11   A    
C31   C32   S    
C38   H21   S    
O10   Zn2   S    
C14   H23   S    
C23   C34   A    
C35   H17   S    
C42   H4    S    
H3    N4    S    
O2    Zn1   S    
C35   O5    S    
C40   C41   A    
C26   C30   A    
C26   N1    A    
O14   Zn2   S    
C22   C24   S    
C30   C43   A    
C2    N2    A    
C8    O6    S    
C42   C43   A    
O3    Zn2   S    
C33   H10   S    
C15   C17   A    
C28   C29   A    
C2    O9    S    
C12   H1    S    
C3    C5    A    
C6    C7    A    
C22   N3    D    
C24   N4    D    
C7    H7    S    
C32   C33   S    
H35   N3    S    
C11   C13   A    
C16   O14   A    
C16   C19   S    
O12   Zn2   S    
C29   C40   A    
C25   O2    A    
C35   H18   S    
C18   C20   S    
C39   H29   S    
C5    H6    S    
C10   C11   A    
C20   C21   D    
C26   O4    S    
C21   H33   S    
C27   C28   A    
C14   C15   A    
C34   C40   A    
C36   C43   S    
C35   H19   S    
C18   C31   S    
C2    C41   A    
C11   H12   S    
