data_mof_unit_3351.cif
_audit_creation_date              2012-12-11T16:45:51-0500
_audit_creation_method            fapswitch 2.2
_symmetry_space_group_name_H-M    P1
_symmetry_Int_Tables_number       1
_space_group_crystal_system       triclinic
_cell_length_a                    20.10781
_cell_length_b                    17.189155
_cell_length_c                    15.407633
_cell_angle_alpha                 90.474525
_cell_angle_beta                  52.526236
_cell_angle_gamma                 89.988503
_cell_volume                      4226.19997873

loop_
_atom_site_label
_atom_site_type_symbol
_atom_type_description
_atom_site_fract_x
_atom_site_fract_y
_atom_site_fract_z
_atom_type_partial_charge
C1    C     C_R   0.856330 0.686081 0.020494 -0.193966
C2    C     C_R   0.162803 0.314028 0.047288 0.133072
C3    C     C_2   0.787308 0.132252 0.509618 1.158574
C4    C     C_R   0.339956 0.813697 0.947321 0.130904
C5    C     C_R   0.656360 0.812523 0.057382 0.137898
C6    C     C_R   0.898270 0.683926 0.299436 0.067722
C7    C     C_R   0.104524 0.683345 0.700211 0.100304
C8    C     C_R   0.316729 0.148440 0.325043 0.084927
C9    C     C_R   0.609359 0.182297 0.697731 0.051870
C10   C     C_R   0.828831 0.704042 0.491576 0.038835
C11   C     C_R   0.159158 0.709683 0.510325 0.085054
C12   C     C_R   0.214997 0.147801 0.525004 0.057463
C13   C     C_R   0.141677 0.686740 0.982778 -0.194153
C14   C     C_R   0.679192 0.202204 0.506235 0.041202
C15   C     C_R   0.874318 0.735581 0.387805 0.030024
C16   C     C_R   0.131237 0.737016 0.613474 0.054520
C17   C     C_R   0.240051 0.177739 0.425533 0.031933
C18   C     C_R   0.634406 0.233981 0.610450 0.030683
C19   C     C_R   0.193248 0.238217 0.425409 -0.178017
C20   C     C_R   0.634607 0.313842 0.623787 -0.162412
C21   C     C_R   0.873204 0.815400 0.376692 -0.155813
C22   C     C_R   0.158689 0.809992 0.620285 -0.190283
C23   C     C_R   0.129415 0.275289 0.523663 -0.093780
C24   C     C_R   0.364163 0.190165 0.007771 -0.232853
C25   C     C_R   0.694488 0.358820 0.533998 -0.043776
C26   C     C_R   0.810579 0.859932 0.466891 -0.050290
C27   C     C_R   0.236479 0.835043 0.529648 -0.126087
C28   C     C_R   0.119740 0.255956 0.620020 0.013171
C29   C     C_R   0.742126 0.325069 0.426323 -0.000919
C30   C     C_R   0.762681 0.826625 0.573996 0.000034
C31   C     C_R   0.266848 0.805704 0.424806 0.032067
C32   C     C_R   0.779994 0.749555 0.583841 0.191672
C33   C     C_R   0.220069 0.749152 0.417679 0.208881
C34   C     C_R   0.156004 0.187320 0.621729 0.116967
C35   C     C_R   0.636976 0.189163 0.989344 -0.207986
C36   C     C_R   0.726641 0.247525 0.415105 0.190943
C37   C     C_3   0.716956 0.684916 0.643139 -0.517817
C38   C     C_3   0.250953 0.676331 0.348957 -0.555947
C39   C     C_3   0.109993 0.114073 0.678297 -0.470120
C40   C     C_3   0.790974 0.183232 0.353861 -0.518224
C41   C     C_R   0.851922 0.329797 0.221495 -0.106581
C42   C     C_R   0.098650 0.302005 0.791522 -0.088211
C43   C     C_R   0.368813 0.815060 0.219653 -0.099174
C44   C     C_R   0.649674 0.830865 0.778516 -0.112659
C45   C     C_3   0.766245 0.639438 0.537429 -0.311393
C46   C     C_R   0.813816 0.360599 0.326394 0.079977
C47   C     C_3   0.188320 0.631760 0.451586 -0.332889
C48   C     C_3   0.174811 0.070568 0.573206 -0.327828
C49   C     C_3   0.742463 0.137622 0.458336 -0.304561
C50   C     C_2   0.730535 0.221874 0.034302 0.066673
C51   C     C_2   0.272776 0.221690 0.959200 0.084541
C52   C     C_2   0.232431 0.720196 0.031156 0.062113
C53   C     C_2   0.763486 0.717213 0.974269 0.064459
C54   C     C_2   0.297450 0.752359 0.937682 0.082664
C55   C     C_2   0.698811 0.751434 0.067371 0.084755
C56   C     C_2   0.795377 0.252988 0.939357 0.071319
C57   C     C_R   0.105764 0.315993 0.697686 0.064047
C58   C     C_2   0.206758 0.252858 0.053842 0.052167
C59   C     C_R   0.861246 0.388355 0.903636 -0.046870
C60   C     C_R   0.140319 0.388589 0.093767 -0.067563
C61   C     C_R   0.360982 0.888434 0.904090 -0.064097
C62   C     C_R   0.637140 0.888358 0.098281 -0.065898
C63   C     C_R   0.914111 0.607201 0.298885 -0.120758
C64   C     C_R   0.085837 0.607104 0.701529 -0.114773
C65   C     C_R   0.365699 0.088299 0.317365 -0.064703
C66   C     C_R   0.589524 0.106455 0.699083 -0.126440
C67   C     C_R   0.875009 0.300127 0.997245 -0.128829
C68   C     C_R   0.338947 0.838311 0.324255 0.115672
C69   C     C_R   0.129495 0.301270 0.994593 -0.077742
C70   C     C_R   0.372914 0.800834 0.000410 -0.093973
C71   C     C_R   0.623970 0.799651 0.003500 -0.112553
C72   C     C_R   0.902035 0.698216 0.208605 -0.091889
C73   C     C_R   0.098921 0.697368 0.792845 -0.093790
C74   C     C_R   0.355401 0.176385 0.220979 -0.028634
C75   C     C_R   0.604618 0.196589 0.789390 -0.045929
C76   C     C_R   0.862619 0.421709 0.316600 -0.030997
C77   C     C_R   0.093370 0.394930 0.695736 -0.031227
C78   C     C_R   0.379333 0.906461 0.315460 -0.036827
C79   C     C_R   0.688695 0.861548 0.674098 0.084068
C80   C     C_R   0.639066 0.922051 0.684033 -0.034377
C81   C     C_R   0.844557 0.592401 0.926675 -0.054727
C82   C     C_R   0.153494 0.594164 0.076440 -0.052609
C83   C     C_R   0.350138 0.095231 0.917935 -0.041274
C84   C     C_R   0.651628 0.095533 0.079203 -0.043792
C85   C     C_R   0.812866 0.663194 0.982109 0.091625
C86   C     C_R   0.183875 0.665119 0.023002 0.086612
C87   C     C_R   0.322942 0.168414 0.966091 0.076214
C88   C     C_R   0.679455 0.167917 0.029299 0.083556
C89   C     C_2   0.873788 0.767903 0.031352 1.044852
C90   C     C_R   0.841285 0.313099 0.945171 0.151762
C91   C     C_2   0.123274 0.768245 0.972503 1.044964
C92   C     C_2   0.388488 0.271587 0.010627 1.085295
C93   C     C_2   0.609263 0.269582 0.991466 1.074715
C94   C     C_2   0.072804 0.331097 0.524254 1.049675
C95   C     C_2   0.718673 0.427623 0.565548 1.005187
C96   C     C_2   0.784156 0.926249 0.434927 1.008717
C97   C     C_2   0.291733 0.869379 0.553307 0.980796
C98   C     C_2   0.721264 0.634323 0.486233 1.158977
C99   C     C_2   0.233815 0.578838 0.477998 1.091341
C100  C     C_2   0.141972 0.029833 0.518855 1.105519
H1    H     H_    0.719752 0.658213 0.706390 0.207004
H2    H     H_    0.140272 0.602313 0.448986 0.166745
H3    H     H_    0.215664 0.032631 0.580524 0.176003
H4    H     H_    0.716156 0.082560 0.453978 0.151328
H5    H     H_    0.829965 0.282540 0.198956 0.132474
H6    H     H_    0.094897 0.245552 0.824692 0.103540
H7    H     H_    0.353332 0.764795 0.193620 0.112573
H8    H     H_    0.672500 0.784636 0.800853 0.135210
H9    H     H_    0.852171 0.413673 0.847483 0.126163
H10   H     H_    0.148581 0.413243 0.151429 0.138262
H11   H     H_    0.353054 0.913085 0.846528 0.131086
H12   H     H_    0.235975 0.675403 0.290504 0.223148
H13   H     H_    0.644802 0.914026 0.156009 0.126179
H14   H     H_    0.926504 0.578587 0.350052 0.102938
H15   H     H_    0.070393 0.579072 0.652880 0.091458
H16   H     H_    0.356797 0.058490 0.384687 0.094534
H17   H     H_    0.577656 0.078602 0.646513 0.106105
H18   H     H_    0.881328 0.245041 0.025223 0.116856
H19   H     H_    0.126009 0.247079 0.961252 0.119525
H20   H     H_    0.378591 0.745858 0.029147 0.114809
H21   H     H_    0.617161 0.744383 0.975501 0.120111
H22   H     H_    0.902823 0.754720 0.178648 0.162250
H23   H     H_    0.113557 0.099988 0.745662 0.205992
H24   H     H_    0.096121 0.753216 0.826501 0.154301
H25   H     H_    0.336200 0.225563 0.198985 0.097810
H26   H     H_    0.611131 0.252101 0.816238 0.151351
H27   H     H_    0.853330 0.460159 0.378246 0.129170
H28   H     H_    0.087549 0.425818 0.640098 0.125697
H29   H     H_    0.376121 0.938295 0.377766 0.087631
H30   H     H_    0.649514 0.960910 0.622977 0.129107
H31   H     H_    0.831808 0.563956 0.875371 0.114032
H32   H     H_    0.165726 0.566723 0.128407 0.118765
H33   H     H_    0.338421 0.066350 0.865839 0.118850
H34   H     H_    0.788753 0.156299 0.289770 0.206329
H35   H     H_    0.664607 0.067560 0.130113 0.114278
H36   H     H_    0.206277 0.256775 0.349611 0.172398
H37   H     H_    0.600662 0.338059 0.705817 0.174416
H38   H     H_    0.907591 0.839373 0.295154 0.179281
H39   H     H_    0.134561 0.834895 0.699112 0.184198
H40   H     H_    0.773746 0.779309 0.189784 0.306309
H41   H     H_    0.225897 0.779722 0.816031 0.306535
H42   H     H_    0.274145 0.306909 0.143565 0.293232
H43   H     H_    0.718166 0.302097 0.849890 0.301178
H44   H     H_    0.959118 0.383177 0.610833 0.331449
H45   H     H_    0.652315 0.700906 0.673777 0.227449
H46   H     H_    0.793363 0.466958 0.603012 0.315924
H47   H     H_    0.705693 0.962203 0.402306 0.319802
H48   H     H_    0.404800 0.867894 0.522272 0.339580
H49   H     H_    0.653342 0.689045 0.448173 0.353060
H50   H     H_    0.313214 0.568629 0.516205 0.347145
H51   H     H_    0.042717 0.995372 0.526242 0.350868
H52   H     H_    0.856809 0.185876 0.546370 0.355739
H53   H     H_    0.317802 0.662735 0.310583 0.213767
H54   H     H_    0.045068 0.114812 0.703714 0.253890
H55   H     H_    0.855219 0.199925 0.323685 0.229239
H56   H     H_    0.792735 0.584127 0.540569 0.148727
I1    I     I_    0.675415 0.268251 0.194156 -0.386759
I2    I     I_    0.330090 0.267397 0.799553 -0.356039
I3    I     I_    0.169861 0.771181 0.190508 -0.395005
I4    I     I_    0.823373 0.760604 0.812607 -0.413973
I5    I     I_    0.363476 0.695913 0.781660 -0.323930
I6    I     I_    0.634440 0.699757 0.224650 -0.328936
I7    I     I_    0.854077 0.197665 0.783593 -0.357569
I8    I     I_    0.144567 0.197366 0.208820 -0.363248
N1    N     N_R   0.908660 0.628630 0.995840 -0.061803
N2    N     N_R   0.096530 0.421430 0.063580 -0.056287
N3    N     N_R   0.403470 0.921430 0.936420 -0.055108
N4    N     N_R   0.596530 0.921430 0.063580 -0.055030
N5    N     N_R   0.927500 0.575670 0.211370 -0.039476
N6    N     N_R   0.072500 0.575670 0.788630 -0.044117
N7    N     N_R   0.427500 0.075670 0.211370 -0.056680
N8    N     N_R   0.572500 0.075670 0.788630 -0.044519
N9    N     N_R   0.908660 0.365680 0.995820 -0.047571
N10   N     N_R   0.091340 0.365680 0.004180 -0.050912
N11   N     N_R   0.408660 0.865680 0.995820 -0.046885
N12   N     N_R   0.091340 0.628630 0.004160 -0.062502
N13   N     N_R   0.591340 0.865680 0.004180 -0.048089
N14   N     N_R   0.922310 0.631420 0.151980 -0.051562
N15   N     N_R   0.077690 0.631420 0.848020 -0.055687
N16   N     N_R   0.422310 0.131420 0.151980 -0.048735
N17   N     N_R   0.577690 0.131420 0.848020 -0.049583
N18   N     N_R   0.927500 0.426330 0.211360 -0.057322
N19   N     N_R   0.072500 0.426330 0.788640 -0.054621
N20   N     N_R   0.427500 0.926330 0.211360 -0.055379
N21   N     N_R   0.572500 0.926330 0.788640 -0.059361
N22   N     N_R   0.903470 0.570760 0.936440 -0.054792
N23   N     N_R   0.408660 0.128630 0.995840 -0.055295
N24   N     N_R   0.096530 0.570760 0.063560 -0.053828
N25   N     N_R   0.403470 0.070760 0.936440 -0.054094
N26   N     N_R   0.596530 0.070760 0.063560 -0.055132
N27   N     N_R   0.591340 0.128630 0.004160 -0.057151
N28   N     N_R   0.922310 0.368460 0.151950 -0.052625
N29   N     N_R   0.077690 0.368460 0.848050 -0.047841
N30   N     N_R   0.422310 0.868460 0.151950 -0.049804
N31   N     N_R   0.577690 0.868460 0.848050 -0.052931
N32   N     N_R   0.903470 0.421430 0.936420 -0.056651
Ni1   Ni    Ni4+2 1.000000 0.630300 0.000000 0.271425
Ni2   Ni    Ni4+2 0.500000 0.130300 0.000000 0.297501
Ni3   Ni    Ni4+2 0.000000 0.369700 0.000000 0.229972
Ni4   Ni    Ni4+2 0.500000 0.869700 0.000000 0.235422
Ni5   Ni    Ni4+2 0.988090 0.497570 0.863760 0.233799
Ni6   Ni    Ni4+2 0.011910 0.497570 0.136240 0.242772
Ni7   Ni    Ni4+2 0.488090 0.997570 0.863760 0.238545
Ni8   Ni    Ni4+2 0.511910 0.997570 0.136240 0.242380
O1    O     O_2   0.937691 0.798355 0.954463 -0.577930
O2    O     O_R   0.992031 0.344439 0.620669 -0.801788
O3    O     O_2   0.669167 0.481678 0.613220 -0.604304
O4    O     O_R   0.789753 0.422888 0.562050 -0.799492
O5    O     O_2   0.833037 0.979406 0.383694 -0.611443
O6    O     O_R   0.711745 0.919338 0.441797 -0.793691
O7    O     O_2   0.264048 0.917495 0.626877 -0.640010
O8    O     O_R   0.373871 0.841639 0.497259 -0.761790
O9    O     O_2   0.724626 0.574267 0.440715 -0.635030
O10   O     O_R   0.679013 0.699347 0.486929 -0.774606
O11   O     O_2   0.224762 0.508451 0.479209 -0.644156
O12   O     O_R   0.818216 0.811974 0.126074 -0.760236
O13   O     O_R   0.286844 0.610111 0.499351 -0.764622
O14   O     O_2   0.191601 0.999750 0.428689 -0.653923
O15   O     O_R   0.055862 0.024598 0.571534 -0.752608
O16   O     O_2   0.782150 0.073040 0.556659 -0.638966
O17   O     O_R   0.831299 0.196243 0.507548 -0.773388
O18   O     O_2   0.057889 0.798567 0.048344 -0.583793
O19   O     O_R   0.179685 0.812272 0.879630 -0.748897
O20   O     O_2   0.461616 0.290265 0.946722 -0.593440
O21   O     O_R   0.330539 0.328425 0.082676 -0.742050
O22   O     O_2   0.536715 0.288244 0.063843 -0.552052
O23   O     O_R   0.663259 0.324986 0.914166 -0.756776
O24   O     O_2   0.095644 0.363932 0.440147 -0.620764

loop_
_geom_bond_atom_site_label_1
_geom_bond_atom_site_label_2
_ccdc_geom_bond_type
C20   H37   S    
C13   N12   A    
C83   C87   A    
C21   C26   A    
C84   H35   S    
N26   N27   A    
N20   Ni8   S    
C97   O8    S    
N9    Ni3   S    
C5    C55   S    
C81   N22   A    
C11   C47   S    
C94   O2    S    
N27   Ni2   S    
C72   N14   A    
N12   Ni1   S    
C12   C48   S    
C58   I8    S    
C49   H4    S    
C4    C70   A    
C3    C49   S    
C47   C99   S    
C7    C73   A    
C28   C57   S    
N25   Ni7   S    
C6    C72   A    
C65   H16   S    
C56   I7    S    
N10   Ni3   S    
C41   H5    S    
C65   N7    A    
C43   N30   A    
C66   N8    A    
C78   H29   S    
C67   N9    A    
C45   C98   S    
H48   O8    S    
N26   Ni8   S    
C14   C36   A    
C2    C60   A    
C81   H31   S    
C14   C49   S    
C20   C25   A    
N4    N13   A    
C39   H23   S    
N2    Ni6   S    
N28   Ni3   S    
N7    Ni8   S    
C14   C18   A    
H49   O10   S    
N6    Ni5   S    
N19   N29   A    
N5    Ni6   S    
C9    C66   A    
C63   H14   S    
N8    N17   A    
C89   O1    D    
C99   O13   S    
C100  O15   S    
C70   H20   S    
C3    O16   D    
C53   I4    S    
C66   H17   S    
C13   C86   A    
N21   Ni7   S    
C16   C22   A    
C41   C46   A    
C31   C33   A    
C40   H55   S    
C84   N26   A    
C83   H33   S    
N3    Ni7   S    
C30   C32   A    
C2    C69   A    
C70   N11   A    
C18   C20   A    
C50   C88   S    
C4    C54   S    
C52   I3    S    
C53   C55   D    
C6    C15   S    
C28   C34   A    
C8    C65   A    
C3    O17   S    
C64   H15   S    
H52   O17   S    
C13   C91   S    
C95   O3    D    
N18   N28   A    
C21   H38   S    
N21   N31   A    
C64   N6    A    
C76   N18   A    
N17   Ni2   S    
C24   C92   S    
C42   C57   A    
C46   C76   A    
C99   O11   D    
C52   C54   D    
N12   N24   A    
H44   O2    S    
C44   H8    S    
C50   I1    S    
C25   C29   A    
C31   C68   S    
C48   C100  S    
N30   Ni4   S    
C100  O14   D    
N2    N10   A    
C96   O6    S    
N23   Ni2   S    
C27   C31   A    
C34   C39   S    
N19   Ni5   S    
N16   Ni2   S    
C57   C77   A    
C7    C64   A    
C92   O20   D    
C80   H30   S    
C56   C90   S    
C62   H13   S    
H46   O4    S    
C51   C87   S    
C51   C58   D    
C39   H54   S    
C43   C68   A    
N15   Ni1   S    
C19   H36   S    
N29   Ni3   S    
C48   H3    S    
C40   H34   S    
C22   H39   S    
C69   H19   S    
C67   C90   A    
C50   C56   D    
N4    Ni8   S    
N22   Ni5   S    
C82   N24   A    
C61   N3    A    
C59   C90   A    
C6    C63   A    
C12   C17   A    
C42   N29   A    
C19   C23   A    
N1    Ni1   S    
N13   Ni4   S    
C11   C16   A    
C93   O23   S    
C35   C93   S    
C59   H9    S    
C29   C36   A    
C1    N1    A    
C80   N21   A    
C73   H24   S    
N9    N32   A    
C8    C74   A    
C45   H56   S    
C43   H7    S    
C32   C37   S    
C91   O18   D    
C35   N27   A    
C42   H6    S    
C38   C47   S    
C77   H28   S    
H41   O19   S    
C89   O12   S    
C30   C79   S    
C7    C16   S    
N14   Ni1   S    
C92   O21   S    
C25   C95   S    
C22   C27   A    
C24   N23   A    
N8    Ni7   S    
H51   O15   S    
N7    N16   A    
C1    C85   A    
C23   C28   A    
C69   N10   A    
C82   H32   S    
C61   H11   S    
N5    N14   A    
C36   C40   S    
C68   C78   A    
N3    N11   A    
N31   Ni4   S    
C95   O4    S    
C27   C97   S    
C44   N31   A    
C1    C89   S    
C96   O5    D    
C97   O7    D    
C41   N28   A    
C72   H22   S    
N18   Ni6   S    
C98   O9    D    
C83   N25   A    
C44   C79   A    
C84   C88   A    
C55   I6    S    
H43   O23   S    
C74   H25   S    
C2    C58   S    
C26   C30   A    
C11   C33   A    
C94   O24   D    
C59   N32   A    
C67   H18   S    
C29   C46   S    
C51   I2    S    
H42   O21   S    
C23   C94   S    
N6    N15   A    
C10   C15   A    
C75   H26   S    
C26   C96   S    
C52   C86   S    
C5    C71   A    
C82   C86   A    
C8    C17   S    
C37   H1    S    
C71   N13   A    
C62   N4    A    
H47   O6    S    
C12   C34   A    
N20   N30   A    
C4    C61   A    
C10   C32   A    
N24   Ni6   S    
C35   C88   A    
C17   C19   A    
H50   O13   S    
C5    C62   A    
C78   N20   A    
C54   I5    S    
C98   O10   S    
C24   C87   A    
C60   N2    A    
N11   Ni4   S    
N23   N25   A    
C60   H10   S    
H40   O12   S    
C93   O22   D    
C79   C80   A    
C73   N15   A    
C71   H21   S    
C9    C18   S    
C15   C21   A    
C38   H12   S    
C74   N16   A    
C10   C45   S    
C47   H2    S    
C76   H27   S    
C91   O19   S    
C33   C38   S    
C53   C85   S    
C9    C75   A    
C38   H53   S    
C37   H45   S    
N32   Ni5   S    
C37   C45   S    
C77   N19   A    
C81   C85   A    
C40   C49   S    
N1    N22   A    
C39   C48   S    
C63   N5    A    
C75   N17   A    
