data_mof_unit_4515.cif
_audit_creation_date              2012-12-10T18:12:31-0500
_audit_creation_method            fapswitch 2.2
_symmetry_space_group_name_H-M    P1
_symmetry_Int_Tables_number       1
_space_group_crystal_system       triclinic
_cell_length_a                    12.622287
_cell_length_b                    13.134864
_cell_length_c                    15.709183
_cell_angle_alpha                 90.599386
_cell_angle_beta                  102.673431
_cell_angle_gamma                 82.37823
_cell_volume                      2518.08620214

loop_
_atom_site_label
_atom_site_type_symbol
_atom_type_description
_atom_site_fract_x
_atom_site_fract_y
_atom_site_fract_z
_atom_type_partial_charge
C1    C     C_R   0.438869 0.691246 0.492841 0.838935
C2    C     C_R   0.597125 0.200680 0.529329 -0.079367
C3    C     C_R   0.301324 0.836251 0.427893 -0.181599
C4    C     C_R   0.501056 0.500200 0.661924 0.884491
C5    C     C_R   0.273922 0.940250 0.407263 -0.104982
C6    C     C_R   0.347271 0.008485 0.440939 -0.172204
C7    C     C_R   0.447659 0.973757 0.499968 0.078035
C8    C     C_R   0.466653 0.871185 0.530658 0.095919
C9    C     C_R   0.529793 0.037223 0.529839 0.071817
C10   C     C_R   0.620216 0.003271 0.599203 0.158989
C11   C     C_R   0.628450 0.906523 0.637260 -0.196546
C12   C     C_3   0.503461 0.498399 0.917982 0.174912
C13   C     C_R   0.552794 0.840978 0.603308 -0.202357
C14   C     C_R   0.524837 0.133508 0.492066 -0.219304
C15   C     C_R   0.687155 0.167333 0.596858 -0.194958
C16   C     C_R   0.561025 0.308895 0.510458 0.873642
C17   C     C_R   0.399432 0.800891 0.487160 -0.105769
C18   C     C_R   0.088977 0.346230 0.378645 -0.287504
C19   C     C_R   0.800706 0.628264 0.603879 -0.070401
C20   C     C_R   0.905927 0.655487 0.626432 0.440074
C21   C     C_R   0.986381 0.607021 0.585917 -0.273137
C22   C     C_R   0.962462 0.529444 0.524190 -0.021392
C23   C     C_3   0.428576 0.437210 0.013602 -0.148755
C24   C     C_R   0.854525 0.504066 0.504814 0.148075
C25   C     C_R   0.041150 0.476057 0.481612 -0.017694
C26   C     C_R   0.010533 0.397863 0.420677 -0.053884
C27   C     C_R   0.902679 0.373220 0.403555 0.383452
C28   C     C_R   0.499124 0.499443 0.338120 0.915428
C29   C     C_R   0.827388 0.426395 0.445910 -0.270711
C30   C     C_R   0.150117 0.497186 0.497323 -0.129613
C31   C     C_R   0.194610 0.371024 0.397167 0.732449
C32   C     C_3   0.472488 0.594046 0.024412 -0.165024
C33   C     C_3   0.574588 0.558315 0.986999 -0.163743
C34   C     C_3   0.499678 0.497142 0.082606 0.172031
C35   C     C_1   0.503515 0.499952 0.751484 -0.157185
C36   C     C_1   0.497610 0.497976 0.248734 -0.112755
C37   C     C_3   0.401389 0.534131 0.953654 -0.147055
C38   C     C_3   0.530684 0.401461 0.976158 -0.150814
C39   C     C_3   0.601793 0.461387 0.046989 -0.121564
C40   C     C_1   0.504309 0.499328 0.827070 -0.047126
C41   C     C_1   0.497933 0.497186 0.173345 -0.021335
C42   C     C_R   0.699696 0.067818 0.630822 -0.132402
F1    F     F_    0.270394 0.321358 0.356734 -0.662609
H1    H     H_    0.634308 0.607792 0.973997 0.160129
H2    H     H_    0.448564 0.672745 0.046246 0.155051
H3    H     H_    0.066294 0.631230 0.604412 0.183423
H4    H     H_    0.747139 0.405283 0.432128 0.237782
H5    H     H_    0.683614 0.431568 0.087378 0.189028
H6    H     H_    0.554610 0.322777 0.954298 0.155809
H7    H     H_    0.368858 0.387735 0.026605 0.160783
H8    H     H_    0.319513 0.563942 0.913361 0.169262
H9    H     H_    0.743497 0.219653 0.626579 0.168460
H10   H     H_    0.694096 0.881040 0.692612 0.201088
H11   H     H_    0.768415 0.043005 0.684252 0.174724
H12   H     H_    0.461805 0.160650 0.435794 0.185139
H13   H     H_    0.725800 0.225177 0.378919 0.356249
H14   H     H_    0.876524 0.805277 0.817765 0.382244
H15   H     H_    0.247734 0.783131 0.395180 0.167446
H16   H     H_    0.321988 0.088044 0.421431 0.170398
H17   H     H_    0.197730 0.967545 0.362034 0.175980
H18   H     H_    0.561248 0.766837 0.635229 0.161209
H19   H     H_    0.070505 0.286975 0.331674 0.238013
H20   H     H_    0.180811 0.554408 0.542084 0.160448
H21   H     H_    0.737234 0.665093 0.634399 0.172061
N1    N     N_R   0.222180 0.444680 0.455580 -0.152753
N2    N     N_R   0.776980 0.554790 0.543960 -0.145062
O1    O     O_R   0.366730 0.627160 0.478790 -0.621026
O2    O     O_2   0.926702 0.175261 0.357650 -0.300173
O3    O     O_3   0.725240 0.264324 0.325216 -0.543246
O4    O     O_2   0.056102 0.733276 0.748301 -0.289121
O5    O     O_2   0.909520 0.853896 0.659589 -0.315458
O6    O     O_3   0.860901 0.745772 0.780022 -0.590235
O7    O     O_R   0.544830 0.662520 0.507160 -0.610348
O8    O     O_R   0.410960 0.482330 0.609040 -0.613066
O9    O     O_R   0.589060 0.517690 0.637410 -0.616027
O10   O     O_R   0.455170 0.337480 0.492840 -0.562002
O11   O     O_R   0.633270 0.372840 0.521210 -0.644464
O12   O     O_R   0.410940 0.482310 0.362590 -0.562288
O13   O     O_R   0.589040 0.517670 0.390960 -0.622121
O14   O     O_2   0.869036 0.304540 0.239916 -0.272325
S1    S     S_3+6 0.857426 0.276479 0.329609 0.019739
S2    S     S_3+6 0.936464 0.750355 0.704640 -0.001401
Zn1   Zn    Zn3+2 0.381080 0.476390 0.481050 1.007639
Zn2   Zn    Zn3+2 0.618920 0.523610 0.518950 0.952552

loop_
_geom_bond_atom_site_label_1
_geom_bond_atom_site_label_2
_ccdc_geom_bond_type
O1    Zn1   S    
C8    C13   A    
C20   S2    S    
C10   C42   A    
C32   H2    S    
C19   C20   A    
C18   C26   A    
O8    Zn1   S    
C7    C8    A    
C38   H6    S    
C26   C27   A    
C33   C39   S    
C31   F1    S    
C29   H4    S    
O2    S1    D    
C5    C6    A    
C37   H8    S    
O9    Zn2   S    
N1    Zn1   S    
C27   C29   A    
C19   N2    A    
C31   N1    A    
C16   O11   A    
C12   C37   S    
C28   O13   A    
C24   C29   A    
C4    O9    A    
O12   Zn1   S    
C22   C25   A    
C2    C16   S    
C9    C10   A    
O7    Zn2   S    
C4    O8    A    
C11   H10   S    
C24   N2    A    
O5    S2    D    
C14   H12   S    
C4    C35   S    
C21   C22   A    
C36   C41   T    
C34   C41   S    
C2    C14   A    
O10   Zn1   S    
C32   C37   S    
C34   C39   S    
C27   S1    S    
C18   H19   S    
C23   H7    S    
O11   Zn2   S    
C25   C26   A    
C23   C37   S    
C32   C34   S    
C12   C40   S    
C9    C14   A    
O13   Zn2   S    
C19   H21   S    
C23   C34   S    
C15   H9    S    
C2    C15   A    
C22   C24   A    
C28   O12   A    
C21   H3    S    
C25   C30   A    
C7    C9    A    
C5    H17   S    
C16   O10   A    
C33   H1    S    
C6    H16   S    
C15   C42   A    
O14   S1    D    
C3    C5    A    
C6    C7    A    
C23   C38   S    
C1    C17   S    
C8    C17   A    
C1    O7    A    
C32   C33   S    
C35   C40   T    
C42   H11   S    
C11   C13   A    
C38   C39   S    
C1    O1    A    
C3    C17   A    
H14   O6    S    
C12   C38   S    
O4    S2    D    
C30   N1    A    
O3    S1    S    
C10   C11   A    
N2    Zn2   S    
C3    H15   S    
C13   H18   S    
C20   C21   A    
C28   C36   S    
H13   O3    S    
C18   C31   A    
C12   C33   S    
C30   H20   S    
O6    S2    S    
C39   H5    S    
