data_mof_unit_3214.cif
_audit_creation_date              2013-03-05T15:49:43-0500
_audit_creation_method            fapswitch 2.2
_symmetry_space_group_name_H-M    P1
_symmetry_Int_Tables_number       1
_space_group_crystal_system       triclinic
_cell_length_a                    12.081475
_cell_length_b                    12.900653
_cell_length_c                    13.068823
_cell_angle_alpha                 85.205328
_cell_angle_beta                  112.567618
_cell_angle_gamma                 93.835822
_cell_volume                      1872.99776107

loop_
_atom_site_label
_atom_site_type_symbol
_atom_site_description
_atom_site_fract_x
_atom_site_fract_y
_atom_site_fract_z
_atom_type_partial_charge
O1    O     O_R   0.579910 0.341070 0.505280 -0.619480
O2    O     O_R   0.388440 0.353740 0.492580 -0.621254
C1    C     C_R   0.476477 0.299878 0.495760 0.900033
O3    O     O_R   0.643280 0.490550 0.663120 -0.623360
O4    O     O_R   0.451810 0.503220 0.650420 -0.591560
C2    C     C_R   0.564969 0.488326 0.708233 0.939939
Zn1   Zn    Zn3+2 0.627850 0.491540 0.508480 0.977765
Zn2   Zn    Zn3+2 0.372150 0.508460 0.491520 0.977855
O5    O     O_R   0.611560 0.646260 0.507420 -0.601044
O6    O     O_R   0.420090 0.658930 0.494720 -0.635607
O7    O     O_R   0.548190 0.496780 0.349580 -0.645069
O8    O     O_R   0.356720 0.509450 0.336880 -0.599349
C3    C     C_R   0.523790 0.700398 0.503857 0.919540
C4    C     C_R   0.434062 0.501817 0.291469 0.886886
C5    C     C_R   0.250905 0.415495 0.003394 0.343607
H1    H     H_    0.208364 0.447027 0.143716 0.229013
H2    H     H_    0.242917 0.326405 0.818986 0.172915
C6    C     C_R   0.394391 0.483862 0.173729 -0.132050
C7    C     C_R   0.726579 0.492378 0.894633 -0.241770
C8    C     C_R   0.765239 0.484961 0.010242 0.383527
C9    C     C_R   0.679174 0.465738 0.057719 -0.289294
C10   C     C_R   0.556507 0.447713 0.990299 0.026034
C11   C     C_R   0.526513 0.429332 0.878750 0.071246
C12   C     C_R   0.462515 0.447603 0.029324 0.065548
C13   C     C_R   0.344660 0.412027 0.963492 0.002290
C14   C     C_R   0.326409 0.367849 0.863528 -0.249783
C15   C     C_R   0.418549 0.372012 0.822890 0.213453
C16   C     C_R   0.482750 0.487423 0.130316 -0.236954
C17   C     C_R   0.277780 0.449070 0.110173 -0.213125
C18   C     C_R   0.606670 0.467508 0.828417 -0.203345
H3    H     H_    0.569226 0.520250 0.178391 0.167788
H4    H     H_    0.790028 0.516610 0.856276 0.227754
H5    H     H_    0.709816 0.462249 0.146997 0.175225
C19   C     C_R   0.539357 0.812257 0.507140 -0.186014
C20   C     C_R   0.461250 0.188972 0.488044 -0.065729
C21   C     C_R   0.340113 0.030289 0.463051 -0.179784
C22   C     C_R   0.349586 0.137726 0.467132 -0.202213
C23   C     C_R   0.562255 0.133670 0.502907 -0.244945
C24   C     C_R   0.554481 0.027197 0.502358 0.111283
C25   C     C_R   0.442759 0.974963 0.482010 0.185199
C26   C     C_R   0.435713 0.868193 0.482385 -0.300507
C27   C     C_R   0.652576 0.864629 0.531765 0.317130
C28   C     C_R   0.658067 0.972609 0.525620 -0.270358
H6    H     H_    0.348618 0.828970 0.463982 0.173162
H7    H     H_    0.253779 0.990513 0.447292 0.148945
H8    H     H_    0.744151 0.013728 0.544026 0.174251
H9    H     H_    0.270633 0.180281 0.454615 0.170130
H10   H     H_    0.648434 0.172963 0.517342 0.189798
N1    N     N_R   0.798200 0.480260 0.519790 -0.169352
N2    N     N_R   0.201820 0.519740 0.480210 -0.098237
C29   C     C_R   0.033122 0.626682 0.437503 -0.223296
C30   C     C_R   0.147305 0.611359 0.439181 0.050337
C31   C     C_R   0.146527 0.442423 0.523780 0.024134
C32   C     C_R   0.030749 0.454865 0.523843 -0.006164
C33   C     C_R   0.969687 0.545588 0.473783 0.092608
C34   C     C_R   0.847583 0.552463 0.461850 0.291770
C35   C     C_R   0.863076 0.395987 0.578490 0.367479
C36   C     C_R   0.977103 0.380213 0.575710 -0.264276
H11   H     H_    0.997410 0.703014 0.410571 0.184926
H12   H     H_    0.027471 0.312607 0.618179 0.158453
H13   H     H_    0.193183 0.673963 0.409175 0.130246
H14   H     H_    0.192769 0.371625 0.559307 0.102221
N3    N     N_R   0.762575 0.810647 0.568164 0.217649
O9    O     O_R   0.792338 0.747969 0.657055 -0.357693
O10   O     O_R   0.843533 0.840641 0.527917 -0.398608
N4    N     N_2   0.776771 0.633989 0.389509 -0.270048
H15   H     H_    0.691361 0.636105 0.384917 0.290396
C37   C     C_3   0.779898 0.656716 0.279706 -0.810442
H16   H     H_    0.687805 0.660112 0.215462 0.223859
H17   H     H_    0.828438 0.597753 0.258076 0.275799
H18   H     H_    0.821839 0.735199 0.275276 0.265974
N5    N     N_2   0.814360 0.325707 0.642265 -0.273614
H19   H     H_    0.787059 0.361370 0.695543 0.271610
C38   C     C_3   0.868731 0.226807 0.687749 -0.779086
H20   H     H_    0.810578 0.178950 0.723196 0.247102
H21   H     H_    0.957851 0.239047 0.755176 0.286527
H22   H     H_    0.877410 0.183390 0.621462 0.228861
N6    N     N_R   0.128980 0.386554 0.936921 0.201584
O11   O     O_R   0.061020 0.336795 0.983053 -0.369284
O12   O     O_R   0.079995 0.425515 0.835262 -0.410204
N7    N     N_R   0.890193 0.500603 0.078721 0.217428
O13   O     O_R   0.965613 0.540328 0.035587 -0.352282
O14   O     O_R   0.930862 0.469931 0.183556 -0.423937
N8    N     N_2   0.409118 0.306199 0.737116 -0.295797
H23   H     H_    0.323871 0.275527 0.696219 0.213693
C39   C     C_3   0.496669 0.225757 0.771498 -0.772454
H24   H     H_    0.476771 0.172291 0.704057 0.240837
H25   H     H_    0.493197 0.179249 0.845837 0.249459
H26   H     H_    0.588465 0.260201 0.790245 0.244098

loop_
_geom_bond_atom_site_label_1
_geom_bond_atom_site_label_2
_geom_bond_distance
_ccdc_geom_bond_type
N4    C37   1.454783 S    
C33   C34   1.430723 A    
N3    O10   1.301255 A    
C4    C6    1.459360 S    
C7    C8    1.396498 A    
C19   C27   1.416300 A    
N7    O13   1.301595 A    
C31   C32   1.418909 A    
Zn1   O7    1.922096 S    
C14   C15   1.401837 A    
C38   H21   1.110405 S    
H2    C14   1.082304 S    
C21   C22   1.386866 A    
C20   C22   1.399858 A    
N8    C39   1.449749 S    
C30   H13   1.080393 S    
O4    C2    1.301867 A    
Zn2   O6    1.987426 S    
O7    C4    1.296984 A    
C39   H25   1.111779 S    
C5    C13   1.421613 A    
C5    N6    1.436093 S    
C9    H5    1.078107 S    
C36   H12   1.081615 S    
N1    C35   1.377636 A    
O5    C3    1.292334 A    
C37   H16   1.108212 S    
C38   H22   1.110786 S    
N2    C30   1.358469 A    
C11   C15   1.418249 A    
C22   H9    1.083184 S    
C23   H10   1.082218 S    
N4    H15   1.012469 S    
O1    Zn1   1.987428 S    
C8    N7    1.439819 S    
C19   C26   1.401516 A    
O3    Zn1   1.956028 S    
C7    H4    1.083193 S    
N7    O14   1.301450 A    
C5    C17   1.405293 A    
N2    C31   1.368650 A    
C38   H20   1.110563 S    
C29   C30   1.398255 A    
C11   C18   1.408552 A    
C21   C25   1.400611 A    
C20   C23   1.395429 A    
C6    C16   1.384746 A    
N8    H23   1.030179 S    
Zn1   N1    2.020321 S    
N5    C38   1.448566 S    
C24   C25   1.406923 A    
C39   H24   1.107775 S    
C24   C28   1.394501 A    
H1    C17   1.083269 S    
C39   H26   1.109572 S    
O1    C1    1.289300 A    
C31   H14   1.077112 S    
C1    C20   1.437278 S    
Zn2   O8    1.956028 S    
N6    O12   1.301012 A    
C21   H7    1.083905 S    
C6    C17   1.398473 A    
C12   C13   1.420055 A    
O3    C2    1.290436 A    
C25   C26   1.374060 A    
C2    C18   1.460539 S    
O8    C4    1.297191 A    
C26   H6    1.084405 S    
C10   C12   1.412016 A    
C29   H11   1.077995 S    
C27   C28   1.387220 A    
Zn2   N2    2.020082 S    
C32   C36   1.396983 A    
Zn1   O5    2.017112 S    
C32   C33   1.399675 A    
C15   N8    1.427779 S    
N6    O11   1.301697 A    
C16   H3    1.071016 S    
O2    Zn2   2.017112 S    
C12   C16   1.383665 A    
N5    H19   1.027329 S    
O6    C3    1.294708 A    
O4    Zn2   1.922096 S    
N1    C34   1.396944 A    
O2    C1    1.294590 A    
C13   C14   1.402386 A    
C3    C19   1.444807 S    
C35   C36   1.420454 A    
C23   C24   1.370919 A    
C37   H18   1.108737 S    
C34   N4    1.437090 S    
C29   C33   1.412567 A    
C35   N5    1.428943 S    
C28   H8    1.084622 S    
N3    O9    1.301499 A    
C8    C9    1.400926 A    
C37   H17   1.106917 S    
C10   C11   1.397713 A    
C9    C10   1.418666 A    
C7    C18   1.404443 A    
C27   N3    1.435469 S    
