data_mof_unit_27.cif
_audit_creation_date              2012-12-10T17:09:53-0500
_audit_creation_method            fapswitch 2.2
_symmetry_space_group_name_H-M    P1
_symmetry_Int_Tables_number       1
_space_group_crystal_system       triclinic
_cell_length_a                    10.823524
_cell_length_b                    13.056643
_cell_length_c                    11.728372
_cell_angle_alpha                 98.699871
_cell_angle_beta                  95.340039
_cell_angle_gamma                 91.45955
_cell_volume                      1629.94217422

loop_
_atom_site_label
_atom_site_type_symbol
_atom_type_description
_atom_site_fract_x
_atom_site_fract_y
_atom_site_fract_z
_atom_type_partial_charge
C1    C     C_R   0.507425 0.299280 0.479997 0.896795
C2    C     C_R   0.074363 0.553092 0.600960 0.035537
C3    C     C_R   0.129150 0.521714 0.497720 -0.080862
C4    C     C_R   0.053549 0.484961 0.395650 -0.177866
C5    C     C_R   0.926250 0.475465 0.398125 -0.129422
C6    C     C_R   0.874229 0.489853 0.504441 -0.037976
C7    C     C_R   0.481859 0.810722 0.525889 -0.013552
C8    C     C_R   0.520345 0.185453 0.470405 -0.262806
C9    C     C_R   0.558264 0.017778 0.359018 -0.283911
C10   C     C_R   0.563013 0.125838 0.370482 0.343996
C11   C     C_R   0.489637 0.133535 0.562622 0.322826
C12   C     C_R   0.263161 0.510124 0.499611 0.752808
C13   C     C_R   0.472031 0.025324 0.543551 0.037306
C14   C     C_R   0.513402 0.967565 0.444256 0.043983
C15   C     C_R   0.518563 0.860329 0.436020 -0.190645
C16   C     C_R   0.427515 0.866798 0.618075 -0.130264
C17   C     C_R   0.422290 0.973743 0.626917 -0.161613
C18   C     C_R   0.406561 0.383072 0.022780 -0.248566
C19   C     C_R   0.412202 0.397886 0.144387 0.195337
C20   C     C_R   0.533380 0.552415 0.157325 0.105097
C21   C     C_R   0.526277 0.541996 0.035153 -0.036645
C22   C     C_R   0.461021 0.457634 0.965348 -0.072900
C23   C     C_R   0.495712 0.699809 0.519595 0.813023
C24   C     C_R   0.455583 0.449639 0.841202 0.541096
C25   C     C_R   0.590175 0.601283 0.862621 0.519838
C26   C     C_R   0.587322 0.613412 0.983093 -0.325397
C27   C     C_R   0.738334 0.494278 0.501172 0.885468
C28   C     C_R   0.137315 0.616391 0.697443 -0.252455
C29   C     C_R   0.092936 0.621509 0.805585 -0.281794
C30   C     C_R   0.993772 0.555554 0.820734 0.413011
C31   C     C_R   0.925737 0.496967 0.721169 0.356420
C32   C     C_R   0.954058 0.514818 0.609434 -0.057711
Cu1   Cu    Cu3+1 0.509250 0.507730 0.615930 1.086079
Cu2   Cu    Cu3+1 0.490750 0.492270 0.384070 1.001475
H1    H     H_    0.092484 0.463456 0.313981 0.192479
H2    H     H_    0.384038 0.016372 0.701284 0.174409
H3    H     H_    0.362899 0.311862 0.976003 0.164092
H4    H     H_    0.636045 0.679017 0.038212 0.194984
H5    H     H_    0.366895 0.341223 0.186477 0.145817
H6    H     H_    0.585683 0.617011 0.210608 0.120120
H7    H     H_    0.222760 0.658947 0.690383 0.170665
H8    H     H_    0.145355 0.667813 0.879500 0.180773
H9    H     H_    0.869008 0.453909 0.316773 0.214876
H10   H     H_    0.556410 0.816088 0.362230 0.145225
H11   H     H_    0.390708 0.828130 0.683821 0.161632
H12   H     H_    0.592146 0.972216 0.284032 0.195931
N1    N     N_R   0.523180 0.519350 0.790130 -0.249041
N2    N     N_R   0.476820 0.480650 0.209890 -0.198642
O1    O     O_R   0.506570 0.354460 0.582000 -0.474183
O2    O     O_R   0.490940 0.341410 0.386200 -0.558151
O3    O     O_R   0.327470 0.506530 0.597920 -0.602675
O4    O     O_R   0.311840 0.493480 0.402120 -0.599965
O5    O     O_R   0.509060 0.658590 0.613800 -0.532518
O6    O     O_R   0.493430 0.645540 0.418000 -0.623470
O7    O     O_R   0.688160 0.506520 0.597880 -0.509608
O8    O     O_R   0.672530 0.493470 0.402080 -0.577730
S1    S     S_3+6 0.639186 0.179973 0.264563 0.024011
O9    O     O_2   0.543916 0.204487 0.172302 -0.287706
O10   O     O_2   0.713425 0.277017 0.317684 -0.283621
O11   O     O_3   0.735594 0.094470 0.201818 -0.504530
H13   H     H_    0.801398 0.086780 0.264183 0.353659
O12   O     O_3   0.488087 0.186648 0.674177 -0.529566
C33   C     C_3   0.597371 0.164251 0.741674 0.089687
H14   H     H_    0.679066 0.204056 0.715717 0.219735
H15   H     H_    0.616527 0.080222 0.731655 0.141173
C34   C     C_3   0.586402 0.198640 0.869908 -0.599078
H16   H     H_    0.664885 0.169327 0.922115 0.229340
H17   H     H_    0.497826 0.167459 0.894269 0.237398
H18   H     H_    0.590805 0.284082 0.890133 0.273719
O13   O     O_3   0.394522 0.364885 0.771584 -0.520219
C35   C     C_3   0.264166 0.372726 0.768303 0.085673
H19   H     H_    0.235312 0.452059 0.761234 0.149162
H20   H     H_    0.227371 0.351309 0.846689 0.169211
C36   C     C_3   0.203072 0.298225 0.664723 -0.640070
H21   H     H_    0.219453 0.216949 0.677608 0.243178
H22   H     H_    0.101654 0.309326 0.654900 0.239285
H23   H     H_    0.242023 0.311920 0.583897 0.228270
S2    S     S_3+6 0.680642 0.703991 0.820858 0.046127
O14   O     O_2   0.786177 0.737022 0.912935 -0.246522
O15   O     O_2   0.736414 0.679710 0.708457 -0.266614
O16   O     O_3   0.590442 0.806169 0.815117 -0.545117
H24   H     H_    0.570574 0.827915 0.895759 0.336693
S3    S     S_3+6 0.970555 0.542276 0.965702 0.066196
O17   O     O_2   0.839061 0.509378 0.977174 -0.195939
O18   O     O_2   0.055600 0.462308 0.004637 -0.312611
O19   O     O_3   0.004596 0.656212 0.052772 -0.494605
H25   H     H_    0.092846 0.653395 0.082882 0.339671
S4    S     S_3+6 0.850134 0.377254 0.732941 -0.008414
O20   O     O_2   0.728059 0.397099 0.780978 -0.282409
O21   O     O_2   0.828727 0.309816 0.616490 -0.355360
O22   O     O_3   0.938903 0.313939 0.822581 -0.509553
H26   H     H_    0.886029 0.254226 0.834624 0.369015

loop_
_geom_bond_atom_site_label_1
_geom_bond_atom_site_label_2
_ccdc_geom_bond_type
Cu1   O7    S    
C6    C32   A    
C21   C26   A    
C33   H15   S    
Cu2   O8    S    
C29   H8    S    
C1    C8    S    
C11   C13   A    
C34   H17   S    
C11   O12   S    
O16   H24   S    
C24   O13   S    
O12   C33   S    
C36   H22   S    
C28   C29   A    
C18   H3    S    
C15   H10   S    
C30   C31   A    
C20   H6    S    
S2    O15   D    
S1    O10   D    
C34   H18   S    
Cu1   O1    S    
C28   H7    S    
C2    C32   A    
C18   C19   A    
C30   S3    S    
C3    C12   S    
C19   N2    A    
C31   C32   A    
C16   C17   A    
C36   H23   S    
O13   C35   S    
C17   H2    S    
C1    O2    A    
C25   N1    A    
C6    C27   S    
C7    C15   A    
C34   H16   S    
C5    H9    S    
C4    H1    S    
C9    H12   S    
C13   C14   A    
C12   O4    A    
C23   O5    A    
Cu1   O5    S    
Cu2   O2    S    
C36   H21   S    
C25   S2    S    
C10   S1    S    
O22   H26   S    
C35   H20   S    
C27   O8    A    
C26   H4    S    
S1    O11   S    
C25   C26   A    
O11   H13   S    
C9    C14   A    
C29   C30   A    
S3    O17   D    
S4    O22   S    
Cu1   Cu2   S    
C20   C21   A    
C20   N2    A    
C19   H5    S    
C7    C16   A    
S3    O18   D    
S4    O21   D    
Cu2   O6    S    
Cu1   N1    S    
C22   C24   A    
Cu2   N2    S    
C3    C4    A    
C12   O3    A    
O19   H25   S    
C23   O6    A    
C9    C10   A    
C31   S4    S    
C18   C22   A    
C24   N1    A    
C4    C5    A    
C16   H11   S    
C35   C36   S    
Cu1   O3    S    
Cu2   O4    S    
C13   C17   A    
C2    C3    A    
C35   H19   S    
S2    O14   D    
S2    O16   S    
S1    O9    D    
C5    C6    A    
C8    C11   A    
C7    C23   S    
C27   O7    A    
C33   C34   S    
C33   H14   S    
S3    O19   S    
S4    O20   D    
C8    C10   A    
C14   C15   A    
C2    C28   A    
C21   C22   A    
C1    O1    A    
