data_mof_unit_4968.cif
_audit_creation_date              2012-12-10T17:24:45-0500
_audit_creation_method            fapswitch 2.2
_symmetry_space_group_name_H-M    P1
_symmetry_Int_Tables_number       1
_space_group_crystal_system       triclinic
_cell_length_a                    23.500838
_cell_length_b                    10.773988
_cell_length_c                    9.592457
_cell_angle_alpha                 90.057173
_cell_angle_beta                  90.060534
_cell_angle_gamma                 92.735614
_cell_volume                      2426.01796302

loop_
_atom_site_label
_atom_site_type_symbol
_atom_type_description
_atom_site_fract_x
_atom_site_fract_y
_atom_site_fract_z
_atom_type_partial_charge
C1    C     C_R   0.497725 0.262524 0.499963 0.794315
C2    C     C_R   0.965909 0.286644 0.466469 -0.161664
C3    C     C_R   0.025271 0.286835 0.467732 -0.165655
C4    C     C_R   0.057868 0.398372 0.486168 -0.015687
C5    C     C_R   0.030255 0.510558 0.503646 -0.019563
C6    C     C_R   0.062555 0.622983 0.521833 -0.033792
C7    C     C_R   0.034558 0.734227 0.539748 -0.163328
C8    C     C_R   0.975169 0.733907 0.539540 -0.160125
C9    C     C_R   0.117581 0.400925 0.487114 0.521089
C10   C     C_R   0.122206 0.620955 0.521484 0.597375
C11   C     C_R   0.239584 0.552637 0.383240 0.388744
C12   C     C_R   0.391075 0.501597 0.499850 0.819468
C13   C     C_R   0.299445 0.554886 0.383550 0.301318
C14   C     C_R   0.328593 0.507130 0.499472 -0.192351
C15   C     C_R   0.297540 0.465605 0.616778 -0.295741
C16   C     C_R   0.238397 0.468129 0.618073 -0.180429
C17   C     C_R   0.209293 0.511382 0.502003 0.222536
C18   C     C_R   0.761476 0.519666 0.626287 -0.103379
C19   C     C_R   0.702099 0.516830 0.626248 -0.219078
C20   C     C_R   0.671731 0.503928 0.500253 -0.040451
C21   C     C_R   0.701869 0.494441 0.374427 -0.219940
C22   C     C_R   0.761242 0.496637 0.374912 -0.104192
C23   C     C_R   0.497960 0.737056 0.500053 0.761478
C24   C     C_R   0.791156 0.509152 0.500766 0.362027
C25   C     C_R   0.408149 0.119982 0.650950 -0.187102
C26   C     C_R   0.366780 0.050784 0.725312 -0.127143
C27   C     C_R   0.367019 0.921735 0.726107 -0.123659
C28   C     C_R   0.408587 0.861071 0.652405 -0.197641
C29   C     C_R   0.451613 0.929310 0.578085 0.095152
C30   C     C_R   0.451455 0.060604 0.577633 0.099263
C31   C     C_R   0.493550 0.128280 0.499604 -0.103781
C32   C     C_R   0.532735 0.067348 0.418271 -0.189155
C33   C     C_R   0.532795 0.939392 0.418359 -0.203105
C34   C     C_R   0.609031 0.501081 0.500046 0.784079
C35   C     C_R   0.493735 0.870365 0.499967 -0.093063
C36   C     C_R   0.575867 0.665395 0.144418 -0.153921
C37   C     C_R   0.612932 0.746242 0.072357 -0.208552
C38   C     C_R   0.612923 0.746282 0.928713 -0.199602
C39   C     C_R   0.575823 0.665523 0.856256 -0.145329
C40   C     C_R   0.537261 0.581372 0.925352 0.209584
C41   C     C_R   0.537270 0.581303 0.074971 0.198127
C42   C     C_R   0.464339 0.423008 0.073743 -0.033237
C43   C     C_R   0.464367 0.423002 0.925808 -0.055810
C44   C     C_R   0.882791 0.619715 0.520185 0.531708
C45   C     C_R   0.878291 0.400013 0.483264 0.533890
C46   C     C_R   0.937924 0.397946 0.483955 -0.016143
C47   C     C_R   0.970196 0.510295 0.502922 -0.015845
C48   C     C_R   0.942549 0.622366 0.521129 -0.014545
Cu1   Cu    Cu3+1 0.500000 0.499990 0.640660 0.927487
Cu2   Cu    Cu3+1 0.500000 0.500010 0.359340 0.941877
H1    H     H_    0.942067 0.199057 0.451853 0.190859
H2    H     H_    0.680074 0.524930 0.724712 0.162950
H3    H     H_    0.679647 0.484745 0.275759 0.164719
H4    H     H_    0.564406 0.119382 0.356995 0.158494
H5    H     H_    0.333929 0.097493 0.780994 0.138698
H6    H     H_    0.334370 0.868263 0.782461 0.145270
H7    H     H_    0.405696 0.760719 0.652245 0.154864
H8    H     H_    0.564505 0.894009 0.357102 0.143392
H9    H     H_    0.045491 0.199397 0.453995 0.188568
H10   H     H_    0.579511 0.673183 0.254279 0.195352
H11   H     H_    0.641909 0.809371 0.128732 0.157543
H12   H     H_    0.641914 0.809397 0.872658 0.162157
H13   H     H_    0.579420 0.673361 0.746384 0.198271
H14   H     H_    0.435169 0.359858 0.870411 0.129884
H15   H     H_    0.058414 0.821850 0.553975 0.189317
H16   H     H_    0.954944 0.821291 0.553654 0.188037
H17   H     H_    0.318984 0.429747 0.707189 0.180648
H18   H     H_    0.214977 0.435651 0.709203 0.163807
N1    N     N_R   0.852117 0.509719 0.501292 -0.471639
N2    N     N_R   0.148312 0.511122 0.503880 -0.442380
N3    N     N_R   0.500540 0.501210 0.147910 -0.203509
N4    N     N_R   0.500560 0.501290 0.852040 -0.198547
O1    O     O_R   0.500000 0.319640 0.618810 -0.574755
O2    O     O_2   0.846643 0.293314 0.465557 -0.529871
O3    O     O_2   0.144806 0.294439 0.470356 -0.549526
O4    O     O_2   0.153922 0.727580 0.538980 -0.529602
O5    O     O_R   0.500000 0.319660 0.381240 -0.576965
O6    O     O_R   0.417880 0.499950 0.618810 -0.600472
O7    O     O_R   0.417880 0.499980 0.381240 -0.530723
O8    O     O_R   0.500000 0.680340 0.618760 -0.598908
O9    O     O_R   0.500000 0.680360 0.381190 -0.598598
O10   O     O_R   0.582120 0.500020 0.618760 -0.594157
O11   O     O_R   0.582120 0.500050 0.381190 -0.598945
O12   O     O_2   0.855504 0.726071 0.537231 -0.532975
H19   H     H_    0.784083 0.488616 0.277583 0.139059
H20   H     H_    0.404942 0.219706 0.649455 0.136679
H21   H     H_    0.435124 0.359890 0.128844 0.142868
O13   O     O_3   0.210676 0.598417 0.270248 -0.558928
C49   C     C_3   0.203156 0.502933 0.170092 0.079747
H22   H     H_    0.177613 0.422315 0.213658 0.160636
H23   H     H_    0.244916 0.471025 0.132911 0.169123
C50   C     C_3   0.171311 0.552142 0.045223 -0.750349
H24   H     H_    0.196164 0.631628 0.997933 0.257224
H25   H     H_    0.164972 0.477689 0.965789 0.192466
H26   H     H_    0.129038 0.583375 0.078407 0.254760
O14   O     O_3   0.328870 0.598904 0.267504 -0.566499
C51   C     C_3   0.342540 0.726870 0.286233 0.126904
H27   H     H_    0.366850 0.744616 0.384625 0.116940
H28   H     H_    0.303150 0.780378 0.288013 0.174224
C52   C     C_3   0.379612 0.773608 0.165519 -0.741497
H29   H     H_    0.356159 0.760657 0.065563 0.237912
H30   H     H_    0.391211 0.873940 0.179912 0.197256
H31   H     H_    0.419255 0.721574 0.161189 0.264765
H32   H     H_    0.784487 0.529251 0.723862 0.138949

loop_
_geom_bond_atom_site_label_1
_geom_bond_atom_site_label_2
_ccdc_geom_bond_type
C8    H16   S    
C43   N4    A    
C1    O5    A    
C19   C20   A    
Cu2   O7    S    
C51   H27   S    
C7    C8    A    
C28   H7    S    
C2    C46   A    
C5    C47   A    
C26   C27   A    
C33   H8    S    
C18   C24   A    
C28   C29   A    
C37   C38   A    
C5    C6    A    
C15   C16   A    
C12   O7    A    
C1    C31   S    
C24   N1    S    
Cu1   O6    S    
C18   C19   A    
C22   H19   S    
C32   H4    S    
C42   N3    A    
C10   O4    S    
C19   H2    S    
C11   C17   A    
C31   C32   A    
C16   C17   A    
Cu1   N4    S    
C12   O6    A    
Cu2   O11   S    
C16   H18   S    
C23   O8    A    
C49   H23   S    
C40   N4    A    
C41   N3    A    
C20   C34   S    
C17   N2    S    
C21   C22   A    
C26   H5    S    
C36   C41   A    
C52   H30   S    
C51   H28   S    
C43   H14   S    
C38   C39   A    
C13   O14   S    
C45   N1    A    
C9    N2    A    
C39   C40   A    
C27   H6    S    
C44   O12   S    
C25   C26   A    
C45   C46   A    
C52   H31   S    
C45   O2    S    
Cu1   O10   S    
Cu2   N3    S    
C8    C48   A    
C29   C30   A    
C7    H15   S    
C25   H20   S    
C47   C48   A    
C11   O13   S    
C15   H17   S    
O14   C51   S    
C50   H25   S    
C44   N1    A    
C18   H32   S    
O13   C49   S    
C49   C50   S    
C10   N2    A    
C40   C41   A    
C12   C14   S    
C23   C35   S    
C22   C24   A    
C34   O11   A    
C3    C4    A    
Cu2   O5    S    
C51   C52   S    
C25   C30   A    
C46   C47   A    
C36   C37   A    
C34   O10   A    
C23   O9    A    
C4    C5    A    
C36   H10   S    
C6    C10   A    
C37   H11   S    
C6    C7    A    
C39   H13   S    
C29   C35   A    
Cu1   O8    S    
C1    O1    A    
C32   C33   A    
C2    C3    A    
C4    C9    A    
C21   H3    S    
C11   C13   A    
C30   C31   A    
C50   H24   S    
C33   C35   A    
Cu1   O1    S    
C50   H26   S    
C2    H1    S    
C20   C21   A    
Cu1   Cu2   S    
C42   C43   A    
C27   C28   A    
C14   C15   A    
C52   H29   S    
C42   H21   S    
C9    O3    S    
C49   H22   S    
C13   C14   A    
C44   C48   A    
Cu2   O9    S    
C38   H12   S    
C3    H9    S    
