data_mof_unit_937.cif
_audit_creation_date              2012-12-10T16:43:22-0500
_audit_creation_method            fapswitch 2.2
_symmetry_space_group_name_H-M    P1
_symmetry_Int_Tables_number       1
_space_group_crystal_system       triclinic
_cell_length_a                    10.739634
_cell_length_b                    8.702729
_cell_length_c                    7.477458
_cell_angle_alpha                 103.113634
_cell_angle_beta                  94.6009
_cell_angle_gamma                 92.839677
_cell_volume                      676.801745927

loop_
_atom_site_label
_atom_site_type_symbol
_atom_type_description
_atom_site_fract_x
_atom_site_fract_y
_atom_site_fract_z
_atom_type_partial_charge
C1    C     C_R   0.495918 0.200040 0.453052 0.733418
C2    C     C_R   0.078003 0.643926 0.619871 0.078263
C3    C     C_R   0.129755 0.514713 0.506041 -0.069287
C4    C     C_R   0.053378 0.394507 0.385512 -0.172896
C5    C     C_R   0.925047 0.396290 0.381711 -0.186298
C6    C     C_R   0.871482 0.518296 0.498480 -0.066779
C7    C     C_2   0.493351 0.032451 0.425160 0.454029
C8    C     C_2   0.505344 0.968002 0.570843 -0.482921
C9    C     C_R   0.262979 0.504506 0.502341 0.747865
C10   C     C_R   0.503736 0.800187 0.546443 0.848129
C11   C     C_R   0.737388 0.506383 0.499313 0.745575
C12   C     C_R   0.153440 0.773426 0.732196 -0.145068
C13   C     C_R   0.099288 0.900343 0.840153 -0.108167
C14   C     C_R   0.969683 0.902151 0.836220 -0.131877
C15   C     C_R   0.893463 0.777041 0.724298 -0.129803
C16   C     C_R   0.946352 0.645783 0.615834 0.088167
Cu1   Cu    Cu3+1 0.513920 0.517380 0.684380 1.121859
Cu2   Cu    Cu3+1 0.486080 0.482620 0.315620 1.156132
H1    H     H_    0.093552 0.297122 0.296192 0.156907
H2    H     H_    0.254330 0.779791 0.735794 0.158571
H3    H     H_    0.158146 0.998627 0.925487 0.173078
H4    H     H_    0.927980 0.001858 0.918465 0.147829
H5    H     H_    0.793322 0.786141 0.721208 0.154408
H6    H     H_    0.867177 0.299665 0.290913 0.154730
H7    H     H_    0.516743 0.039828 0.711315 0.183688
N1    N     N_2   0.465100 0.456430 0.038520 0.236225
N2    N     N_2   0.534900 0.543570 0.961480 0.254095
O1    O     O_R   0.509050 0.286130 0.619770 -0.584451
O2    O     O_R   0.485540 0.256780 0.308360 -0.538251
O3    O     O_R   0.331410 0.514680 0.655740 -0.546430
O4    O     O_R   0.307900 0.485330 0.344330 -0.568228
O5    O     O_R   0.514460 0.743220 0.691640 -0.581419
O6    O     O_R   0.490950 0.713870 0.380230 -0.474162
O7    O     O_R   0.692100 0.514670 0.655670 -0.580255
O8    O     O_R   0.668590 0.485320 0.344260 -0.547663
F1    F     F_    0.620887 0.643223 0.074568 -0.519768
F2    F     F_    0.478547 0.944955 0.247788 -0.603084
F3    F     F_    0.379376 0.356432 0.925326 -0.556163

loop_
_geom_bond_atom_site_label_1
_geom_bond_atom_site_label_2
_ccdc_geom_bond_type
C1    O1    A    
C8    H7    S    
N2    F1    S    
C2    C16   A    
Cu2   O8    S    
Cu2   N1    S    
C2    C12   A    
C12   H2    S    
C11   O8    A    
C2    C3    A    
C7    F2    S    
C13   H3    S    
C7    C8    D    
Cu2   O2    S    
C13   C14   A    
Cu1   O3    S    
Cu1   O1    S    
C14   H4    S    
N1    N2    D    
C5    H6    S    
C9    O3    A    
C3    C9    S    
C15   H5    S    
Cu1   Cu2   S    
C10   O6    A    
C5    C6    A    
Cu2   O6    S    
Cu1   O7    S    
C1    O2    A    
C6    C16   A    
C3    C4    A    
Cu1   N2    S    
C10   O5    A    
C12   C13   A    
C8    C10   S    
C6    C11   S    
Cu1   O5    S    
C9    O4    A    
C14   C15   A    
N1    F3    S    
Cu2   O4    S    
C1    C7    S    
C4    H1    S    
C11   O7    A    
C15   C16   A    
C4    C5    A    
