data_mof_unit_2108.cif
_audit_creation_date              2012-12-11T17:08:28-0500
_audit_creation_method            fapswitch 2.2
_symmetry_space_group_name_H-M    P1
_symmetry_Int_Tables_number       1
_space_group_crystal_system       triclinic
_cell_length_a                    6.980651
_cell_length_b                    14.610358
_cell_length_c                    16.013776
_cell_angle_alpha                 89.988472
_cell_angle_beta                  90.082595
_cell_angle_gamma                 89.783658
_cell_volume                      1633.22859992

loop_
_atom_site_label
_atom_site_type_symbol
_atom_type_description
_atom_site_fract_x
_atom_site_fract_y
_atom_site_fract_z
_atom_type_partial_charge
O1    O     O_R   0.505700 0.583890 0.413310 -0.533027
O2    O     O_R   0.175960 0.594920 0.586080 -0.542704
O3    O     O_R   0.005660 0.416110 0.586690 -0.535372
C1    C     C_R   0.344670 0.616757 0.614923 0.696939
O4    O     O_R   0.175980 0.594920 0.413930 -0.547389
O5    O     O_R   0.005680 0.416110 0.413310 -0.540095
C2    C     C_R   0.344247 0.615525 0.384201 0.704171
O6    O     O_R   0.505680 0.583890 0.586690 -0.535643
O7    O     O_3   0.339200 0.441330 0.500000 -0.371207
V1    V     V_3+5 0.064350 0.510880 0.500000 1.379480
O8    O     O_R   0.675960 0.405080 0.413920 -0.540487
C3    C     C_R   0.845055 0.384481 0.384272 0.693852
O9    O     O_R   0.675940 0.405080 0.586070 -0.542435
C4    C     C_R   0.844957 0.383103 0.614753 0.697966
V2    V     V_3+5 0.564340 0.489120 0.500000 1.386774
O10   O     O_3   0.839360 0.558670 0.500000 -0.371054
C5    C     C_R   0.007421 0.316350 0.741472 0.100141
C6    C     C_R   0.853104 0.317544 0.685428 -0.113521
C7    C     C_R   0.701192 0.256740 0.701204 -0.179998
H1    H     H_    0.578594 0.255300 0.659996 0.134398
C8    C     C_R   0.711952 0.192663 0.766858 -0.181220
H2    H     H_    0.596853 0.144053 0.774343 0.126925
C9    C     C_R   0.875294 0.187180 0.818546 -0.107528
C10   C     C_R   0.018542 0.252656 0.806174 0.102804
C11   C     C_3   0.228407 0.239481 0.794091 -0.410854
C12   C     C_3   0.216379 0.309220 0.723882 -0.398654
H3    H     H_    0.263532 0.169272 0.772064 0.165291
H4    H     H_    0.312902 0.263709 0.848607 0.173878
H5    H     H_    0.245214 0.279661 0.661164 0.170327
H6    H     H_    0.293260 0.373922 0.737948 0.168531
C13   C     C_R   0.730900 0.184411 0.241947 0.091805
C14   C     C_R   0.881296 0.184536 0.184030 -0.154943
C15   C     C_R   0.030811 0.247409 0.198057 -0.183669
H7    H     H_    0.151987 0.249545 0.156163 0.125246
C16   C     C_R   0.020521 0.311636 0.263776 -0.173921
H8    H     H_    0.134534 0.360986 0.270693 0.121520
C17   C     C_R   0.858937 0.315857 0.316536 -0.111691
C18   C     C_R   0.718430 0.249380 0.305168 0.071287
C19   C     C_3   0.506615 0.258716 0.296436 -0.387505
C20   C     C_3   0.519168 0.184503 0.229349 -0.042793
H9    H     H_    0.466280 0.326750 0.270681 0.134806
H10   H     H_    0.429157 0.239969 0.354327 0.184014
H11   H     H_    0.479706 0.209580 0.166030 0.108606
C21   C     C_R   0.507314 0.682813 0.741767 0.102604
C22   C     C_R   0.352574 0.682020 0.685856 -0.113632
C23   C     C_R   0.200557 0.743186 0.701873 -0.181843
H12   H     H_    0.077553 0.744922 0.660889 0.133572
C24   C     C_R   0.211802 0.807330 0.767418 -0.178343
H13   H     H_    0.096440 0.856193 0.775058 0.126990
C25   C     C_R   0.375769 0.812565 0.818771 -0.109490
C26   C     C_R   0.518891 0.746558 0.806376 0.103626
C27   C     C_3   0.728720 0.758846 0.794149 -0.408408
C28   C     C_3   0.716291 0.688985 0.724098 -0.399715
H14   H     H_    0.813428 0.734422 0.848629 0.177456
H15   H     H_    0.763912 0.828854 0.771936 0.164150
H16   H     H_    0.792960 0.623982 0.738311 0.168688
H17   H     H_    0.745167 0.718251 0.661301 0.170041
C29   C     C_R   0.515392 0.738339 0.305263 -0.042562
C30   C     C_R   0.352910 0.684280 0.316341 -0.083915
C31   C     C_R   0.201730 0.695755 0.259058 -0.207735
H18   H     H_    0.077830 0.651933 0.262562 0.131534
C32   C     C_R   0.215826 0.759052 0.192824 -0.107780
H19   H     H_    0.103899 0.762104 0.146561 0.198731
C33   C     C_R   0.378672 0.814198 0.182791 -0.130477
C34   C     C_R   0.527520 0.802694 0.240525 -0.005353
C35   C     C_3   0.732359 0.777094 0.224177 0.828097
C36   C     C_3   0.717224 0.706208 0.296028 -0.553083
H20   H     H_    0.798177 0.718492 0.354266 0.157704
H21   H     H_    0.725137 0.632937 0.278448 0.142461
O11   O     O_R   0.229000 0.916070 0.913330 -0.542187
O12   O     O_R   0.558770 0.905070 0.086080 -0.508453
O13   O     O_R   0.729000 0.083900 0.086690 -0.542254
C37   C     C_R   0.390028 0.881916 0.113882 0.708782
O14   O     O_R   0.558720 0.905070 0.913930 -0.540220
O15   O     O_R   0.728960 0.083900 0.913310 -0.544734
C38   C     C_R   0.389703 0.882993 0.885266 0.677849
O16   O     O_R   0.229050 0.916070 0.086710 -0.529897
O17   O     O_3   0.395460 0.058650 0.000020 -0.384603
V3    V     V_3+5 0.670340 0.989120 0.000000 1.460674
O18   O     O_R   0.058670 0.094960 0.913900 -0.543273
C39   C     C_R   0.889369 0.116846 0.885145 0.676250
O19   O     O_R   0.058720 0.094960 0.086050 -0.545925
C40   C     C_R   0.889694 0.117547 0.114328 0.708425
V4    V     V_3+5 0.170330 0.010930 0.999970 1.409296
O20   O     O_3   0.895340 0.941350 0.999980 -0.347906
C41   C     C_3   0.426067 0.091789 0.250845 -0.277001
C42   C     C_3   0.462719 0.055859 0.339662 -0.782569
H22   H     H_    0.613589 0.065548 0.359145 0.233994
H23   H     H_    0.367040 0.090636 0.385029 0.220199
H24   H     H_    0.431619 0.981483 0.342190 0.209335
H25   H     H_    0.269554 0.098297 0.240942 0.183146
H26   H     H_    0.479648 0.040074 0.205866 0.182413
O21   O     O_3   0.856067 0.853595 0.235706 -0.544030
C43   C     C_3   0.882958 0.882905 0.319004 0.039968
H27   H     H_    0.980220 0.835268 0.352752 0.138411
H28   H     H_    0.745052 0.891151 0.352828 0.119311
C44   C     C_3   0.984112 0.974139 0.317143 -0.713262
H29   H     H_    0.896256 0.024485 0.282591 0.222243
H30   H     H_    0.010106 0.999208 0.381604 0.176354
H31   H     H_    0.122254 0.965256 0.284259 0.232274
O22   O     O_3   0.759994 0.743342 0.141115 -0.549790
C45   C     C_3   0.682247 0.656271 0.122818 0.022444
H32   H     H_    0.542203 0.644050 0.153449 0.132329
H33   H     H_    0.785790 0.602104 0.141694 0.120305
C46   C     C_3   0.651280 0.649148 0.029011 -0.693386
H34   H     H_    0.789447 0.658339 0.995804 0.216770
H35   H     H_    0.592260 0.580836 0.013178 0.170192
H36   H     H_    0.548734 0.702762 0.007963 0.212157

loop_
_geom_bond_atom_site_label_1
_geom_bond_atom_site_label_2
_ccdc_geom_bond_type
C42   H22   S    
O21   C43   S    
C4    C6    S    
C7    H1    S    
O18   V4    S    
O12   V3    S    
C44   H29   S    
C19   H9    S    
C22   C23   A    
C21   C22   A    
C11   H4    S    
C46   H35   S    
O22   C45   S    
O14   C38   A    
C5    C12   S    
C7    C8    A    
C17   C18   A    
O13   V3    S    
C41   H25   S    
O5    C3    A    
C18   C19   S    
V2    O10   S    
C13   C20   S    
C45   C46   S    
C31   C32   A    
C6    C7    A    
C20   C41   S    
C3    C17   S    
C32   C33   A    
O8    V2    S    
C21   C28   S    
C20   H11   S    
C16   H8    S    
C33   C37   S    
O1    V2    S    
O11   V4    S    
O7    V1    S    
C27   H15   S    
C1    O6    A    
C43   H28   S    
C24   C25   A    
C35   C36   S    
C30   C31   A    
O9    C4    A    
C35   O22   S    
C43   H27   S    
C2    C30   S    
C44   H30   S    
C27   H14   S    
C15   H7    S    
C19   H10   S    
C1    C22   S    
C46   H36   S    
C23   C24   A    
C5    C10   A    
C26   C27   S    
C10   C11   S    
C19   C20   S    
O12   C37   A    
C28   H17   S    
C41   C42   S    
O15   C39   A    
C43   C44   S    
C25   C26   A    
C11   C12   S    
O19   C40   A    
C36   H20   S    
C31   H18   S    
C36   H21   S    
O2    C1    A    
C32   H19   S    
C25   C38   S    
C29   C34   A    
C13   C14   A    
C9    C10   A    
C5    C6    A    
V4    O20   S    
C45   H33   S    
O3    C4    A    
C35   O21   S    
C21   C26   A    
C24   H13   S    
C12   H6    S    
O6    V2    S    
O19   V4    S    
O14   V3    S    
O9    V2    S    
O11   C38   A    
O2    V1    S    
V3    O20   S    
C44   H31   S    
C27   C28   S    
O4    C2    A    
C28   H16   S    
C14   C40   S    
C23   H12   S    
C9    C39   S    
C16   C17   A    
O1    C2    A    
O18   C39   A    
O5    V1    S    
O8    C3    A    
C11   H3    S    
C46   H34   S    
O16   V4    S    
C13   C18   A    
C14   C15   A    
C8    C9    A    
C29   C30   A    
O4    V1    S    
O3    V1    S    
V1    O10   S    
C33   C34   A    
O17   V3    S    
C15   C16   A    
O7    V2    S    
C45   H32   S    
O13   C40   A    
O17   V4    S    
C29   C36   S    
C12   H5    S    
C34   C35   S    
C42   H24   S    
C42   H23   S    
C37   O16   A    
C41   H26   S    
C8    H2    S    
O15   V3    S    
