data_mof_unit_3046.cif
_audit_creation_date              2013-03-05T15:54:37-0500
_audit_creation_method            fapswitch 2.2
_symmetry_space_group_name_H-M    P1
_symmetry_Int_Tables_number       1
_space_group_crystal_system       triclinic
_cell_length_a                    17.348845
_cell_length_b                    24.301391
_cell_length_c                    14.867533
_cell_angle_alpha                 89.632076
_cell_angle_beta                  125.526347
_cell_angle_gamma                 90.236831
_cell_volume                      5101.23250486

loop_
_atom_site_label
_atom_site_type_symbol
_atom_site_description
_atom_site_fract_x
_atom_site_fract_y
_atom_site_fract_z
_atom_type_partial_charge
C1    C     C_R   0.807853 0.622548 0.905333 -0.129920
C2    C     C_R   0.149191 0.652118 0.093922 -0.074867
C3    C     C_R   0.308047 0.122911 0.905038 -0.131825
C4    C     C_R   0.652496 0.151667 0.093855 -0.129636
H1    H     H_    0.748551 0.623337 0.820350 0.140792
H2    H     H_    0.183597 0.665907 0.177958 0.084334
H3    H     H_    0.248953 0.124113 0.819883 0.142148
H4    H     H_    0.689343 0.165126 0.178065 0.144021
N1    N     N_R   0.892620 0.603790 0.941770 -0.052872
N2    N     N_R   0.107380 0.603790 0.058230 -0.047653
N3    N     N_R   0.392620 0.103790 0.941770 -0.050302
N4    N     N_R   0.607380 0.103790 0.058230 -0.052154
C5    C     C_R   0.903111 0.378185 0.094396 -0.051117
C6    C     C_R   0.052050 0.348874 0.906533 -0.170356
C7    C     C_R   0.401415 0.881959 0.094075 -0.095579
C8    C     C_R   0.552826 0.848635 0.907518 -0.168358
H5    H     H_    0.929685 0.375063 0.179848 0.135854
H6    H     H_    0.000291 0.334781 0.823815 0.145987
H7    H     H_    0.425871 0.882285 0.178888 0.066092
H8    H     H_    0.500981 0.834226 0.825189 0.137266
N5    N     N_R   0.952270 0.397640 0.058010 -0.049994
N6    N     N_R   0.047730 0.397640 0.941990 -0.047246
N7    N     N_R   0.452270 0.897640 0.058010 -0.040988
N8    N     N_R   0.547730 0.897640 0.941990 -0.048952
C9    C     C_R   0.049634 0.546443 0.304526 -0.108099
C10   C     C_R   0.019835 0.546770 0.751490 -0.075920
C11   C     C_R   0.550804 0.046698 0.304612 -0.056132
C12   C     C_R   0.523389 0.046898 0.756503 -0.116716
H9    H     H_    0.066890 0.588588 0.331859 0.145975
H10   H     H_    0.031648 0.589357 0.741626 0.112516
H11   H     H_    0.572601 0.088472 0.332343 0.097877
H12   H     H_    0.541972 0.089120 0.757705 0.129268
N9    N     N_R   0.026310 0.529110 0.206760 -0.048727
N10   N     N_R   0.973690 0.529110 0.793240 -0.052217
N11   N     N_R   0.526310 0.029110 0.206760 -0.051349
N12   N     N_R   0.473690 0.029110 0.793240 -0.047371
C13   C     C_R   0.741976 0.454958 0.697307 -0.095633
C14   C     C_R   0.268800 0.454158 0.252108 -0.122463
C15   C     C_R   0.241803 0.954235 0.698885 -0.073468
C16   C     C_R   0.769314 0.954741 0.251856 -0.138356
H13   H     H_    0.727541 0.412837 0.668852 0.119181
H14   H     H_    0.290474 0.411566 0.268209 0.108230
H15   H     H_    0.228407 0.911922 0.671722 0.103017
H16   H     H_    0.792369 0.912376 0.268826 0.117097
N13   N     N_R   0.818570 0.472310 0.793020 -0.047074
N14   N     N_R   0.181430 0.472310 0.206980 -0.046982
N15   N     N_R   0.318570 0.972310 0.793020 -0.048107
N16   N     N_R   0.681430 0.972310 0.206980 -0.045403
C17   C     C_R   0.051841 0.455099 0.306283 -0.141862
C18   C     C_R   0.018401 0.454578 0.750533 -0.111132
C19   C     C_R   0.550941 0.955515 0.306453 -0.157131
C20   C     C_R   0.518639 0.955049 0.750097 -0.099059
H17   H     H_    0.071382 0.413114 0.334929 0.130754
H18   H     H_    0.028157 0.411882 0.740173 0.075602
H19   H     H_    0.570458 0.913622 0.335888 0.104498
H20   H     H_    0.528645 0.912426 0.739352 0.074523
N17   N     N_R   0.026930 0.472300 0.207330 -0.047477
N18   N     N_R   0.973070 0.472300 0.792670 -0.046707
N19   N     N_R   0.526930 0.972300 0.207330 -0.044998
N20   N     N_R   0.473070 0.972300 0.792670 -0.047011
C21   C     C_R   0.742214 0.546530 0.696101 -0.098343
C22   C     C_R   0.270049 0.546533 0.252680 -0.088989
C23   C     C_R   0.241363 0.045874 0.695741 -0.121740
C24   C     C_R   0.769630 0.047080 0.253038 -0.103322
H21   H     H_    0.729082 0.588594 0.666574 0.123629
H22   H     H_    0.293263 0.588839 0.270174 0.154418
H23   H     H_    0.226753 0.087732 0.664886 0.145962
H24   H     H_    0.792047 0.089534 0.270180 0.139661
N21   N     N_R   0.817960 0.529130 0.792460 -0.046864
N22   N     N_R   0.182040 0.529130 0.207540 -0.055065
N23   N     N_R   0.317960 0.029130 0.792460 -0.045588
N24   N     N_R   0.682040 0.029130 0.207540 -0.049163
C25   C     C_R   0.810882 0.376184 0.910061 -0.037496
C26   C     C_R   0.149021 0.348668 0.089438 -0.078731
C27   C     C_R   0.311382 0.875490 0.910599 -0.013333
C28   C     C_R   0.650527 0.849280 0.090330 -0.085518
H25   H     H_    0.753385 0.369257 0.824901 0.141524
H26   H     H_    0.192320 0.334867 0.174389 0.141356
H27   H     H_    0.254398 0.866623 0.825975 0.126632
H28   H     H_    0.695023 0.836538 0.175766 0.142151
N25   N     N_R   0.894850 0.397640 0.943830 -0.059285
N26   N     N_R   0.105150 0.397640 0.056170 -0.049582
N27   N     N_R   0.394850 0.897640 0.943830 -0.055524
N28   N     N_R   0.605150 0.897640 0.056170 -0.050327
C29   C     C_R   0.900234 0.625941 0.089850 -0.106700
C30   C     C_R   0.059873 0.652976 0.910406 -0.108237
C31   C     C_R   0.400087 0.126247 0.089544 -0.110253
C32   C     C_R   0.560050 0.153009 0.910577 -0.095278
H29   H     H_    0.926462 0.632550 0.174952 0.129466
H30   H     H_    0.015521 0.667821 0.826109 0.105680
H31   H     H_    0.426215 0.133075 0.174404 0.159889
H32   H     H_    0.514182 0.167907 0.826500 0.132053
N29   N     N_R   0.950040 0.603780 0.055950 -0.051551
N30   N     N_R   0.049960 0.603780 0.944050 -0.048778
N31   N     N_R   0.450040 0.103780 0.055950 -0.052818
N32   N     N_R   0.549960 0.103780 0.944050 -0.055114
C33   C     C_R   0.810056 0.637999 0.995451 0.094422
C34   C     C_R   0.122321 0.683772 0.003548 0.134055
C35   C     C_R   0.310131 0.138612 0.994928 0.096123
C36   C     C_R   0.624575 0.183789 0.003246 0.135432
C37   C     C_R   0.812822 0.365341 0.003513 0.116182
C38   C     C_R   0.115568 0.317102 0.996138 0.094884
C39   C     C_R   0.313666 0.865889 0.004568 0.124564
C40   C     C_R   0.617519 0.817187 0.997871 0.102087
C41   C     C_R   0.067498 0.500823 0.369482 0.076120
C42   C     C_R   0.050160 0.500665 0.725564 0.053094
C43   C     C_R   0.565817 0.001471 0.369214 0.099007
C44   C     C_R   0.552010 0.001488 0.727231 0.058857
C45   C     C_R   0.693756 0.500840 0.636756 0.062584
C46   C     C_R   0.325169 0.500016 0.280470 0.068998
C47   C     C_R   0.192961 0.999618 0.637809 0.053253
C48   C     C_R   0.825148 0.001073 0.280403 0.053824
Ni1   Ni    Ni4+2 0.934160 0.565860 0.869070 0.232267
Ni2   Ni    Ni4+2 0.065840 0.565860 0.130930 0.237165
Ni3   Ni    Ni4+2 0.434160 0.065860 0.869070 0.234188
Ni4   Ni    Ni4+2 0.565840 0.065860 0.130930 0.230986
Ni5   Ni    Ni4+2 0.067260 0.435560 0.132230 0.260392
Ni6   Ni    Ni4+2 0.932740 0.435560 0.867770 0.243391
Ni7   Ni    Ni4+2 0.567260 0.935560 0.132230 0.243670
Ni8   Ni    Ni4+2 0.432740 0.935560 0.867770 0.241936
C49   C     C_3   0.521381 0.473236 0.531294 -0.091531
C50   C     C_3   0.486239 0.447641 0.419170 -0.152441
C51   C     C_3   0.040305 0.947488 0.479366 -0.123896
C52   C     C_3   0.005325 0.972150 0.365338 -0.147882
C53   C     C_3   0.461111 0.524822 0.474369 -0.114755
C54   C     C_3   0.568148 0.475428 0.422176 -0.165545
C55   C     C_3   0.959805 0.976421 0.475441 -0.119515
C56   C     C_3   0.068527 0.023812 0.422596 -0.125860
H33   H     H_    0.415876 0.545041 0.494910 0.166303
H34   H     H_    0.615099 0.455386 0.404108 0.157338
H35   H     H_    0.913723 0.957090 0.496079 0.159967
H36   H     H_    0.116228 0.043029 0.404377 0.160104
H37   H     H_    0.529317 0.451240 0.601935 0.199540
H38   H     H_    0.462629 0.404436 0.394450 0.149484
H39   H     H_    0.063389 0.904315 0.506013 0.153169
H40   H     H_    0.995913 0.949644 0.294849 0.142404
C57   C     C_3   0.426291 0.499369 0.362679 0.100662
C58   C     C_3   0.601478 0.501007 0.533080 0.086262
C59   C     C_3   0.926098 0.001129 0.363044 0.105484
C60   C     C_3   0.100796 0.999043 0.534241 0.110413
C61   C     C_3   0.505753 0.527246 0.363194 -0.073116
C62   C     C_3   0.541753 0.552710 0.476408 -0.069273
C63   C     C_3   0.986899 0.052662 0.417917 -0.109051
C64   C     C_3   0.020925 0.027805 0.530738 -0.083598
H41   H     H_    0.496516 0.548931 0.291599 0.192257
H42   H     H_    0.565523 0.595897 0.500825 0.199065
H43   H     H_    0.964248 0.095915 0.391561 0.186608
H44   H     H_    0.028860 0.050046 0.600642 0.190574
C65   C     C_R   0.771853 0.311392 0.108767 0.063206
C66   C     C_R   0.125975 0.244471 0.889849 0.062745
C67   C     C_R   0.279054 0.805204 0.110892 -0.036054
C68   C     C_R   0.622487 0.741566 0.891829 0.056490
C69   C     C_R   0.739900 0.338406 0.009148 -0.143165
C70   C     C_R   0.137191 0.260378 0.987399 -0.119351
C71   C     C_R   0.246197 0.834812 0.013257 -0.041941
C72   C     C_R   0.639741 0.760011 0.991411 -0.115991
C73   C     C_R   0.651836 0.323016 0.911841 0.338218
C74   C     C_R   0.179162 0.222297 0.076752 0.336228
C75   C     C_R   0.152310 0.824321 0.919606 0.343027
C76   C     C_R   0.688093 0.723861 0.084289 0.361819
C77   C     C_R   0.106827 0.775598 0.917829 -0.263245
C78   C     C_R   0.737231 0.678618 0.082123 -0.242823
C79   C     C_R   0.610788 0.273025 0.910952 -0.210384
C80   C     C_R   0.230875 0.177762 0.076434 -0.229800
H45   H     H_    0.039171 0.764253 0.843335 0.177416
H46   H     H_    0.782963 0.654419 0.156415 0.188204
H47   H     H_    0.546949 0.259107 0.834731 0.196967
H48   H     H_    0.272004 0.151591 0.148564 0.224450
C81   C     C_R   0.151910 0.740236 0.010142 0.050403
C82   C     C_R   0.733972 0.667959 0.987500 -0.035990
C83   C     C_R   0.652727 0.240955 0.007416 -0.088856
C84   C     C_R   0.234136 0.169561 0.985346 -0.051634
C85   C     C_R   0.232382 0.759358 0.108639 -0.023390
C86   C     C_R   0.665002 0.694710 0.888791 0.103310
C87   C     C_R   0.729474 0.262299 0.107599 0.130931
C88   C     C_R   0.169732 0.198261 0.887314 0.094225
C89   C     C_3   0.319042 0.733627 0.209018 0.152453
C90   C     C_3   0.667461 0.716528 0.795318 0.108881
C91   C     C_3   0.727616 0.279434 0.203384 0.015703
C92   C     C_3   0.179700 0.222498 0.800868 0.099200
C93   C     C_3   0.771985 0.333873 0.203555 -0.337119
C94   C     C_3   0.133008 0.274708 0.805106 -0.327538
C95   C     C_3   0.373070 0.784561 0.211937 -0.317456
C96   C     C_3   0.622566 0.769414 0.800077 -0.311993
H49   H     H_    0.312708 0.730141 0.279192 0.105260
H50   H     H_    0.740544 0.721694 0.817965 0.097047
H51   H     H_    0.654215 0.282167 0.180716 0.071042
H52   H     H_    0.254863 0.227406 0.830486 0.098394
C97   C     C_R   0.097904 0.550850 0.622430 -0.058335
C98   C     C_R   0.100800 0.551121 0.530852 0.023679
C99   C     C_R   0.614236 0.051963 0.634377 0.053279
C100  C     C_R   0.611275 0.051668 0.539554 -0.017678
C101  C     C_R   0.094593 0.501120 0.667607 0.114544
C102  C     C_R   0.102115 0.501393 0.485036 0.018399
C103  C     C_R   0.600532 0.002694 0.673124 0.034333
C104  C     C_R   0.602169 0.002381 0.485827 0.069518
C105  C     C_R   0.107704 0.451644 0.630067 -0.080922
C106  C     C_R   0.111631 0.451751 0.539493 -0.124014
C107  C     C_R   0.616030 0.953174 0.637244 -0.101806
C108  C     C_R   0.617185 0.952999 0.543983 -0.135517
H53   H     H_    0.106368 0.412411 0.663466 0.137466
H54   H     H_    0.113643 0.412465 0.507279 0.150797
H55   H     H_    0.613893 0.913983 0.670183 0.156999
H56   H     H_    0.617712 0.913603 0.511041 0.152707
C109  C     C_3   0.175877 0.594908 0.580051 0.056140
C110  C     C_3   0.171971 0.594899 0.679341 0.067446
C111  C     C_3   0.565269 0.107378 0.502751 0.047908
C112  C     C_3   0.569497 0.108131 0.607521 0.050912
H57   H     H_    0.244082 0.580852 0.596659 0.148044
H58   H     H_    0.144024 0.633364 0.690765 0.137787
H59   H     H_    0.609860 0.138949 0.498743 0.140737
H60   H     H_    0.498074 0.109737 0.590538 0.129733
N33   N     N_R   0.604022 0.357547 0.814967 0.228989
O1    O     O_R   0.613258 0.410784 0.824993 -0.404278
O2    O     O_R   0.542965 0.336728 0.717706 -0.368347
N34   N     N_R   0.172264 0.228940 0.167815 0.234691
O3    O     O_R   0.238322 0.209874 0.265275 -0.322093
O4    O     O_R   0.093736 0.246538 0.150074 -0.364049
N35   N     N_R   0.104680 0.860919 0.825787 0.225871
O5    O     O_R   0.120479 0.913647 0.839610 -0.401652
O6    O     O_R   0.037359 0.842785 0.728381 -0.384512
N36   N     N_R   0.691758 0.733381 0.181786 0.230278
O7    O     O_R   0.766495 0.719615 0.278628 -0.368269
O8    O     O_R   0.615340 0.747539 0.172595 -0.370357
N37   N     N_R   0.350592 0.681962 0.189045 0.242082
O9    O     O_R   0.418121 0.654172 0.273452 -0.407010
O10   O     O_R   0.322880 0.667665 0.090186 -0.306189
N38   N     N_R   0.606375 0.685468 0.692353 0.245632
O11   O     O_R   0.601692 0.700153 0.605013 -0.358401
O12   O     O_R   0.560307 0.641956 0.688116 -0.373188
N39   N     N_R   0.789423 0.245818 0.303034 0.259819
O13   O     O_R   0.785857 0.251993 0.387374 -0.348297
O14   O     O_R   0.850807 0.211756 0.310698 -0.344313
N40   N     N_R   0.122552 0.193653 0.694617 0.246941
O15   O     O_R   0.129592 0.207840 0.615156 -0.346293
O16   O     O_R   0.064828 0.154157 0.678287 -0.374836
C113  C     C_2   0.870761 0.344514 0.307659 0.702555
H61   H     H_    0.880707 0.373643 0.368629 0.021698
O17   O     O_2   0.939369 0.318807 0.327224 -0.545867
C114  C     C_2   0.038804 0.288438 0.697480 0.685219
H62   H     H_    0.036863 0.315455 0.637767 0.021973
O18   O     O_2   0.964983 0.267971 0.674562 -0.513948
C115  C     C_2   0.449332 0.771838 0.194998 0.734015
H63   H     H_    0.523233 0.772215 0.265125 0.064917
O19   O     O_2   0.428823 0.759338 0.104039 -0.491286
C116  C     C_2   0.525314 0.781676 0.695746 0.658690
H64   H     H_    0.518490 0.809205 0.633706 0.055470
O20   O     O_2   0.454359 0.759759 0.678405 -0.523501
C117  C     C_2   0.704856 0.382120 0.168931 0.480830
H65   H     H_    0.631100 0.377780 0.099444 0.065134
O21   O     O_2   0.732036 0.426230 0.216675 -0.563417
C118  C     C_2   0.201426 0.322624 0.850380 0.376043
H66   H     H_    0.224389 0.341907 0.927703 0.068851
O22   O     O_2   0.232757 0.339950 0.800325 -0.537534
C119  C     C_2   0.408809 0.819480 0.312628 0.385957
H67   H     H_    0.379577 0.860172 0.304100 0.060768
O23   O     O_2   0.471205 0.802386 0.404636 -0.530816
C120  C     C_2   0.690101 0.817492 0.836928 0.358438
H68   H     H_    0.713659 0.840176 0.911237 0.064361
O24   O     O_2   0.719610 0.831269 0.782954 -0.545468
N41   N     N_R   0.141786 0.646492 0.517241 0.240432
O25   O     O_R   0.193681 0.672284 0.493439 -0.355666
O26   O     O_R   0.059266 0.666452 0.482655 -0.372334
N42   N     N_R   0.259934 0.575878 0.781304 0.256335
O27   O     O_R   0.295168 0.603131 0.872354 -0.297140
O28   O     O_R   0.303368 0.531969 0.782600 -0.348146
N43   N     N_R   0.466972 0.106794 0.404643 0.235869
O29   O     O_R   0.430515 0.152152 0.348724 -0.386468
O30   O     O_R   0.411227 0.065487 0.385103 -0.389733
N44   N     N_R   0.634644 0.150007 0.685771 0.253229
O31   O     O_R   0.603412 0.187779 0.718569 -0.381620
O32   O     O_R   0.723130 0.150883 0.721086 -0.340400

loop_
_geom_bond_atom_site_label_1
_geom_bond_atom_site_label_2
_geom_bond_distance
_ccdc_geom_bond_type
N13   Ni6   1.843795 S    
C28   C40   1.386017 A    
C111  N43   1.464658 S    
C32   N32   1.342165 A    
C7    H7    1.071657 S    
C67   C85   1.363648 A    
N16   Ni7   1.842777 S    
C31   H31   1.078075 S    
C60   C64   1.528077 S    
C62   H42   1.109339 S    
C52   C59   1.529564 S    
C66   C88   1.370998 A    
C3    N3    1.318373 A    
C64   H44   1.109745 S    
C21   C45   1.364151 A    
C10   C42   1.388081 A    
N38   O12   1.302386 A    
C94   C114  1.516988 S    
C51   C52   1.547860 S    
C16   C48   1.380403 A    
C109  C110  1.516580 S    
N22   Ni2   1.868521 S    
N10   Ni1   1.858894 S    
C63   H43   1.109929 S    
C88   C92   1.508758 S    
N21   Ni1   1.867549 S    
N9    Ni2   1.849191 S    
C18   H18   1.078320 S    
C27   H27   1.078391 S    
N7    N27   1.381603 A    
C13   H13   1.081564 S    
C1    H1    1.069765 S    
N6    N26   1.381602 A    
C15   N15   1.327516 A    
C55   H35   1.110902 S    
N34   O4    1.301636 A    
C118  O22   1.220961 D    
C70   C74   1.420206 A    
C3    H3    1.070576 S    
N13   N21   1.380821 A    
N7    Ni7   1.867128 S    
N41   O25   1.300539 A    
C101  C105  1.402590 A    
N29   Ni2   1.878121 S    
C6    C38   1.368578 A    
C91   H51   1.114109 S    
N2    N30   1.381604 A    
C74   N34   1.436887 S    
C63   C64   1.538230 S    
C27   C39   1.392632 A    
C3    C35   1.372321 A    
N18   Ni6   1.850224 S    
C89   H49   1.113448 S    
C22   N22   1.329665 A    
N6    Ni6   1.868274 S    
C78   C82   1.400534 A    
C111  H59   1.112973 S    
C94   C118  1.512618 S    
C50   H38   1.109806 S    
N5    Ni5   1.867128 S    
C30   N30   1.341530 A    
C78   H46   1.082777 S    
C34   C81   1.446852 S    
C59   C63   1.532543 S    
C10   N10   1.334780 A    
C9    C41   1.378052 A    
C32   H32   1.080473 S    
C73   N33   1.438202 S    
C96   C116  1.515996 S    
N42   O27   1.300492 A    
C115  O19   1.221835 D    
C31   N31   1.344993 A    
C106  H54   1.080574 S    
N19   Ni7   1.859911 S    
C14   C46   1.376199 A    
C75   C77   1.412002 A    
N32   Ni3   1.876998 S    
C105  H53   1.078525 S    
C109  H57   1.113778 S    
C68   C96   1.519593 S    
C20   N20   1.337558 A    
C4    H4    1.075409 S    
C86   C90   1.507810 S    
C66   C70   1.403338 A    
C103  C107  1.408068 A    
N2    Ni2   1.850472 S    
C104  C108  1.408214 A    
C52   C56   1.555853 S    
N8    N28   1.381602 A    
C77   C81   1.405976 A    
C119  O23   1.221114 D    
C97   C110  1.499882 S    
C7    N7    1.324955 A    
C92   N40   1.469038 S    
C107  C108  1.398325 A    
C8    N8    1.322902 A    
C113  H61   1.085362 S    
C36   C83   1.460343 S    
C107  H55   1.078472 S    
C55   C64   1.532532 S    
C48   C59   1.440867 S    
C28   N28   1.339465 A    
C2    H2    1.080115 S    
N40   O16   1.302136 A    
C26   N26   1.342646 A    
C56   H36   1.109966 S    
C25   N25   1.339094 A    
N38   O11   1.300699 A    
N30   Ni1   1.876998 S    
C92   C94   1.529298 S    
C47   C60   1.437578 S    
C42   C101  1.452120 S    
C31   C35   1.397070 A    
N33   O2    1.301497 A    
C9    H9    1.079414 S    
C41   C102  1.453792 S    
C49   H37   1.110446 S    
N11   N19   1.380582 A    
C116  O20   1.221895 D    
C117  O21   1.221421 D    
N8    Ni8   1.868274 S    
C22   H22   1.079397 S    
C71   C75   1.422037 A    
C111  C112  1.516459 S    
C18   N18   1.332392 A    
C68   C72   1.405298 A    
C12   H12   1.071388 S    
C1    N1    1.319268 A    
N34   O3    1.301369 A    
C79   C83   1.404015 A    
C66   C94   1.519291 S    
C30   H30   1.081064 S    
C54   H34   1.110000 S    
C1    C33   1.372743 A    
N35   O5    1.301649 A    
N41   O26   1.302400 A    
C23   C47   1.369175 A    
C29   H29   1.080114 S    
C52   H40   1.109885 S    
C15   H15   1.081065 S    
C35   C84   1.453528 S    
C53   C57   1.532730 S    
C37   C69   1.466840 S    
N33   O1    1.301775 A    
N1    N29   1.381603 A    
C110  N42   1.465908 S    
N25   Ni6   1.845409 S    
C65   C93   1.513485 S    
C96   C120  1.512905 S    
C33   C82   1.453239 S    
C99   C100  1.380622 A    
N14   Ni5   1.842777 S    
C51   H39   1.109885 S    
C45   C58   1.439122 S    
C65   C87   1.393693 A    
C76   C78   1.405964 A    
N27   Ni8   1.845409 S    
C50   C54   1.547884 S    
C79   H47   1.080945 S    
C23   H23   1.081859 S    
C49   C53   1.532952 S    
C97   C101  1.395976 A    
C108  H56   1.080670 S    
N35   O6    1.301462 A    
C110  H58   1.113184 S    
C98   C109  1.501700 S    
C51   C55   1.536588 S    
C29   N29   1.343179 A    
C100  C104  1.400614 A    
N42   O28   1.302403 A    
C11   C43   1.377091 A    
N31   Ni4   1.878121 S    
C8    H8    1.073924 S    
C114  O18   1.222070 D    
N37   O9    1.300189 A    
C117  H65   1.086161 S    
N23   Ni3   1.867549 S    
N11   Ni4   1.849191 S    
N39   O14   1.302806 A    
C40   C72   1.462062 S    
C44   C103  1.463927 S    
N36   O8    1.298974 A    
N15   N23   1.380821 A    
C49   C50   1.538351 S    
C32   C36   1.387350 A    
C92   H52   1.113831 S    
N3    N31   1.381603 A    
C80   H48   1.081380 S    
C39   C71   1.457509 S    
N15   Ni8   1.843795 S    
N5    N25   1.381603 A    
C10   H10   1.079723 S    
C112  N44   1.464272 S    
C8    C40   1.374767 A    
C113  O17   1.221903 D    
C11   H11   1.079150 S    
C58   C62   1.531265 S    
C100  C111  1.503701 S    
N44   O32   1.302274 A    
C80   C84   1.403394 A    
C53   C62   1.536447 S    
C4    N4    1.328707 A    
N40   O15   1.300598 A    
N16   N24   1.380841 A    
C13   N13   1.331937 A    
C119  H67   1.085803 S    
C2    N2    1.319337 A    
C24   H24   1.079560 S    
C120  O24   1.220936 D    
C18   C42   1.386715 A    
N14   N22   1.380841 A    
N3    Ni3   1.860328 S    
C5    C37   1.385068 A    
C20   H20   1.079068 S    
N17   Ni5   1.859910 S    
C76   N36   1.433813 S    
C82   C86   1.400532 A    
C21   N21   1.329284 A    
C97   C98   1.391316 A    
C16   N16   1.331012 A    
C2    C34   1.369731 A    
C57   C61   1.529548 S    
C116  H64   1.085429 S    
C54   C58   1.530256 S    
N9    N17   1.380584 A    
C25   C37   1.393561 A    
N24   Ni4   1.868521 S    
C13   C45   1.368601 A    
C6    H6    1.074959 S    
C46   C57   1.442188 S    
C73   C79   1.401909 A    
C28   H28   1.078247 S    
C50   C57   1.532764 S    
C23   N23   1.332453 A    
N12   N20   1.380602 A    
C49   C58   1.528640 S    
C93   C113  1.522545 S    
C17   N17   1.334379 A    
C17   C41   1.380469 A    
N43   O29   1.299649 A    
C67   C95   1.522599 S    
C72   C76   1.423571 A    
C74   C80   1.410403 A    
N4    Ni4   1.850472 S    
C87   C91   1.504523 S    
C54   C61   1.555745 S    
C75   N35   1.438772 S    
C67   C71   1.406445 A    
C95   C115  1.516942 S    
C5    H5    1.072728 S    
C26   C38   1.387013 A    
C11   N11   1.329572 A    
C109  N41   1.463722 S    
C6    N6    1.320065 A    
C95   C119  1.509586 S    
C4    C36   1.374766 A    
C120  H68   1.082916 S    
C56   C60   1.530020 S    
C68   C86   1.374396 A    
C43   C104  1.460732 S    
C89   C95   1.535056 S    
C38   C70   1.456369 S    
C5    N5    1.331575 A    
C114  H62   1.085503 S    
C15   C47   1.363647 A    
N43   O30   1.302520 A    
C27   N27   1.340255 A    
C102  C106  1.404245 A    
C83   C87   1.399935 A    
C90   N38   1.469389 S    
C12   C44   1.384026 A    
N28   Ni7   1.855349 S    
C17   H17   1.080169 S    
C65   C69   1.402940 A    
C51   C60   1.530945 S    
C112  H60   1.112351 S    
C61   H41   1.109810 S    
N37   O10   1.302336 A    
C22   C46   1.380867 A    
C77   H45   1.082039 S    
N20   Ni8   1.850224 S    
C19   H19   1.080533 S    
C99   C112  1.505524 S    
C24   N24   1.326911 A    
C21   H21   1.081434 S    
C69   C73   1.414414 A    
C105  C106  1.387291 A    
C30   C34   1.383661 A    
C56   C63   1.547562 S    
C99   C103  1.403518 A    
N1    Ni1   1.860328 S    
C14   N14   1.327448 A    
C24   C48   1.375091 A    
C29   C33   1.396413 A    
C98   C102  1.397779 A    
C89   N37   1.470887 S    
C90   H50   1.113462 S    
C14   H14   1.079546 S    
C84   C88   1.399983 A    
C16   H16   1.079980 S    
C19   N19   1.338648 A    
C12   N12   1.330331 A    
C25   H25   1.077029 S    
C19   C43   1.384070 A    
C53   H33   1.110933 S    
C26   H26   1.079817 S    
N39   O13   1.300499 A    
N10   N18   1.380602 A    
C81   C85   1.391727 A    
N44   O31   1.300310 A    
N4    N32   1.381604 A    
C20   C44   1.393825 A    
C93   C117  1.517487 S    
N26   Ni5   1.855349 S    
C7    C39   1.374161 A    
C85   C89   1.505587 S    
C61   C62   1.547470 S    
N12   Ni3   1.858894 S    
C91   N39   1.468874 S    
N36   O7    1.301515 A    
C55   C59   1.532736 S    
C90   C96   1.528692 S    
C115  H63   1.085106 S    
C9    N9    1.332983 A    
C118  H66   1.083058 S    
C91   C93   1.527124 S    
