data_mof_unit_4825.cif
_audit_creation_date              2012-12-11T15:42:40-0500
_audit_creation_method            fapswitch 2.2
_symmetry_space_group_name_H-M    P1
_symmetry_Int_Tables_number       1
_space_group_crystal_system       triclinic
_cell_length_a                    6.934188
_cell_length_b                    14.542112
_cell_length_c                    16.19729
_cell_angle_alpha                 90.387755
_cell_angle_beta                  89.896075
_cell_angle_gamma                 89.996085
_cell_volume                      1633.25799909

loop_
_atom_site_label
_atom_site_type_symbol
_atom_type_description
_atom_site_fract_x
_atom_site_fract_y
_atom_site_fract_z
_atom_type_partial_charge
O1    O     O_R   0.505810 0.583360 0.413880 -0.544899
O2    O     O_R   0.175870 0.595480 0.585520 -0.509422
O3    O     O_R   0.005540 0.416640 0.586120 -0.543595
C1    C     C_R   0.344319 0.617212 0.615064 0.719040
O4    O     O_R   0.176100 0.594390 0.414490 -0.546764
O5    O     O_R   0.005770 0.415540 0.413870 -0.545751
C2    C     C_R   0.345255 0.616475 0.385750 0.672849
O6    O     O_R   0.505580 0.584460 0.586130 -0.547080
O7    O     O_3   0.339190 0.441320 0.500000 -0.366360
V1    V     V_3+5 0.064350 0.510890 0.500000 1.446174
O8    O     O_R   0.676050 0.404520 0.414480 -0.544338
C3    C     C_R   0.845217 0.381931 0.385866 0.672730
O9    O     O_R   0.675830 0.405610 0.585510 -0.514125
C4    C     C_R   0.844737 0.383576 0.613594 0.815858
V2    V     V_3+5 0.564340 0.489110 0.500000 1.446592
O10   O     O_3   0.839370 0.558680 0.500000 -0.370008
C5    C     C_2   0.737304 0.181643 0.763488 0.393293
C6    C     C_2   0.885643 0.176754 0.817845 -0.464602
H1    H     H_    0.013093 0.218572 0.809500 0.079677
C7    C     C_2   0.739330 0.244261 0.689504 0.391308
C8    C     C_2   0.856098 0.318543 0.683223 -0.454664
H2    H     H_    0.965024 0.333127 0.729263 0.084649
C9    C     C_R   0.047275 0.223000 0.219234 -0.159908
H3    H     H_    0.187992 0.204712 0.195137 0.116513
C10   C     C_R   0.036104 0.286943 0.284084 -0.154446
H4    H     H_    0.168751 0.316115 0.307775 0.118568
C11   C     C_R   0.856542 0.312990 0.317627 -0.043636
C12   C     C_R   0.688485 0.273178 0.284591 -0.160821
H5    H     H_    0.547781 0.291431 0.308725 0.117556
C13   C     C_R   0.699652 0.209249 0.219727 -0.156255
H6    H     H_    0.567010 0.180060 0.196047 0.118723
C14   C     C_R   0.879195 0.183341 0.186066 -0.043347
C15   C     C_R   0.188654 0.706025 0.733571 0.477945
C16   C     C_R   0.202296 0.770278 0.798619 -0.235980
H7    H     H_    0.072830 0.787648 0.832861 0.135805
C17   C     C_R   0.379704 0.810735 0.819958 -0.119703
C18   C     C_R   0.543971 0.786863 0.773644 -0.131264
H8    H     H_    0.682774 0.817186 0.787826 0.146589
C19   C     C_R   0.530521 0.725183 0.707041 -0.218409
H9    H     H_    0.659170 0.710335 0.671547 0.196405
C20   C     C_R   0.353522 0.684117 0.685544 -0.160287
C21   C     C_R   0.188502 0.723200 0.283864 -0.157279
H10   H     H_    0.047709 0.704820 0.307588 0.116274
C22   C     C_R   0.199711 0.786328 0.219090 -0.153757
H11   H     H_    0.067001 0.814774 0.195102 0.118740
C23   C     C_R   0.379337 0.812417 0.185917 -0.045459
C24   C     C_R   0.547439 0.773602 0.219431 -0.159209
H12   H     H_    0.688227 0.791987 0.195705 0.116124
C25   C     C_R   0.536229 0.710471 0.284208 -0.152501
H13   H     H_    0.668932 0.682023 0.308201 0.117712
C26   C     C_R   0.356598 0.684380 0.317377 -0.042588
O11   O     O_R   0.230120 0.912300 0.917180 -0.542909
O12   O     O_R   0.559740 0.902430 0.088770 -0.545357
O13   O     O_R   0.729930 0.081310 0.089370 -0.543573
C27   C     C_R   0.390621 0.880318 0.117540 0.680375
O14   O     O_R   0.559840 0.901330 0.917750 -0.539524
O15   O     O_R   0.730030 0.080210 0.917120 -0.509568
C28   C     C_R   0.390954 0.879042 0.888826 0.733523
O16   O     O_R   0.230020 0.913400 0.089430 -0.541689
O17   O     O_3   0.396460 0.055470 0.003290 -0.371679
V3    V     V_3+5 0.671360 0.985960 0.003250 1.422611
O18   O     O_R   0.059740 0.091300 0.917690 -0.559204
C29   C     C_R   0.891335 0.111169 0.887697 0.812112
O19   O     O_R   0.059640 0.092400 0.088720 -0.545501
C30   C     C_R   0.890498 0.114727 0.117544 0.676811
V4    V     V_3+5 0.171350 0.007820 0.003190 1.388586
O20   O     O_3   0.896380 0.938200 0.003220 -0.375635
O21   O     O_3   0.590945 0.116987 0.768638 -0.541920
C31   C     C_3   0.419013 0.161292 0.792763 -0.146231
H14   H     H_    0.371550 0.213254 0.747079 0.142364
H15   H     H_    0.433794 0.193575 0.854932 0.116280
H16   H     H_    0.304076 0.108573 0.796327 0.155918
O22   O     O_3   0.606830 0.227284 0.627238 -0.538726
C32   C     C_3   0.684348 0.160098 0.573543 -0.189015
H17   H     H_    0.707738 0.093723 0.605831 0.154109
H18   H     H_    0.821176 0.184196 0.544801 0.107222
H19   H     H_    0.579782 0.147399 0.522985 0.149697
O23   O     O_3   0.010972 0.668441 0.714814 -0.556668
C33   C     C_3   0.975519 0.594699 0.768826 -0.267720
H20   H     H_    0.960841 0.619162 0.833771 0.128573
H21   H     H_    0.090125 0.541249 0.763927 0.118901
H22   H     H_    0.837155 0.561813 0.751068 0.155171

loop_
_geom_bond_atom_site_label_1
_geom_bond_atom_site_label_2
_ccdc_geom_bond_type
C27   O16   A    
O22   C32   S    
C1    O6    A    
C19   C20   A    
O13   C30   A    
O18   C29   A    
C32   H18   S    
C4    C8    S    
C17   C18   A    
C6    H1    S    
C17   C28   S    
O16   V4    S    
O5    C3    A    
C13   H6    S    
C15   O23   S    
C1    C20   S    
V2    O10   S    
C5    C7    S    
C16   H7    S    
C31   H15   S    
O12   V3    S    
O14   C28   A    
O21   C31   S    
C25   C26   A    
C32   H19   S    
C23   C27   S    
C9    H3    S    
O1    V2    S    
O7    V1    S    
C21   C26   A    
V4    O20   S    
O17   V4    S    
O9    C4    A    
C21   C22   A    
C22   C23   A    
O15   C29   A    
O12   C27   A    
C32   H17   S    
O18   V4    S    
C3    C11   S    
C24   C25   A    
C19   H9    S    
O4    C2    A    
O23   C33   S    
C10   H4    S    
O17   V3    S    
O19   V4    S    
C31   H16   S    
O2    C1    A    
C18   H8    S    
V3    O20   S    
C24   H12   S    
C5    C6    D    
O3    C4    A    
O11   C28   A    
O6    V2    S    
O8    V2    S    
O9    V2    S    
C21   H10   S    
O2    V1    S    
O11   V4    S    
C22   H11   S    
C33   H21   S    
C23   C24   A    
C12   H5    S    
C5    O21   S    
O1    C2    A    
O5    V1    S    
C33   H22   S    
O8    C3    A    
O15   V3    S    
O13   V3    S    
C10   C11   A    
C15   C20   A    
C9    C14   A    
C12   C13   A    
O7    V2    S    
C2    C26   S    
O4    V1    S    
C18   C19   A    
O3    V1    S    
V1    O10   S    
O19   C30   A    
C13   C14   A    
C15   C16   A    
C7    O22   S    
C16   C17   A    
C9    C10   A    
C31   H14   S    
C6    C29   S    
C33   H20   S    
C7    C8    D    
C25   H13   S    
C11   C12   A    
O14   V3    S    
C8    H2    S    
C14   C30   S    
