data_mof_unit_407.cif
_audit_creation_date              2012-12-10T17:11:04-0500
_audit_creation_method            fapswitch 2.2
_symmetry_space_group_name_H-M    P1
_symmetry_Int_Tables_number       1
_space_group_crystal_system       triclinic
_cell_length_a                    11.716508
_cell_length_b                    12.985709
_cell_length_c                    13.437437
_cell_angle_alpha                 93.344227
_cell_angle_beta                  76.310079
_cell_angle_gamma                 100.425581
_cell_volume                      1953.33517435

loop_
_atom_site_label
_atom_site_type_symbol
_atom_type_description
_atom_site_fract_x
_atom_site_fract_y
_atom_site_fract_z
_atom_type_partial_charge
C1    C     C_R   0.521280 0.700882 0.501687 0.805724
C2    C     C_R   0.447920 0.471307 0.974076 0.086959
C3    C     C_R   0.477698 0.453392 0.866546 0.042128
C4    C     C_R   0.537391 0.476797 0.030648 0.096223
C5    C     C_R   0.650914 0.452885 0.981636 0.146656
C6    C     C_R   0.674340 0.424001 0.878432 -0.222505
C7    C     C_R   0.588663 0.422351 0.822330 -0.149482
C8    C     C_R   0.516754 0.503771 0.135211 -0.185664
C9    C     C_R   0.712806 0.474913 0.142600 -0.191680
C10   C     C_R   0.393231 0.461423 0.807340 -0.253262
C11   C     C_R   0.464869 0.185713 0.505310 -0.069995
C12   C     C_R   0.434758 0.483723 0.695305 0.824000
C13   C     C_R   0.534361 0.814529 0.501007 -0.044786
C14   C     C_R   0.659000 0.984745 0.468089 -0.188190
C15   C     C_R   0.647820 0.876703 0.474366 -0.175329
C16   C     C_R   0.432096 0.861076 0.524246 -0.242470
C17   C     C_R   0.442537 0.969129 0.519173 0.159739
C18   C     C_R   0.556833 0.031301 0.489595 0.166773
C19   C     C_R   0.567097 0.139073 0.482113 -0.258478
C20   C     C_R   0.351927 0.124126 0.537428 -0.106220
C21   C     C_R   0.340600 0.016029 0.543281 -0.195816
C22   C     C_R   0.949516 0.604414 0.591078 -0.303388
C23   C     C_R   0.478161 0.299151 0.500537 0.830738
C24   C     C_R   0.829260 0.591893 0.584779 0.156143
C25   C     C_R   0.856386 0.457059 0.459936 0.039872
C26   C     C_R   0.976666 0.466613 0.465850 -0.019801
C27   C     C_R   0.024793 0.541081 0.531185 0.060022
C28   C     C_R   0.146181 0.548836 0.535782 0.038598
C29   C     C_R   0.166642 0.406587 0.416078 0.600311
C30   C     C_R   0.048263 0.401169 0.408559 -0.352060
C31   C     C_R   0.564022 0.504704 0.304036 0.836279
C32   C     C_R   0.738295 0.454036 0.037554 -0.168516
C33   C     C_R   0.600703 0.497671 0.192086 -0.053942
C34   C     C_R   0.271015 0.454547 0.859587 0.446867
C35   C     C_R   0.241742 0.465491 0.965831 -0.169949
C36   C     C_R   0.328413 0.477832 0.021868 -0.244521
Cu1   Cu    Cu3+1 0.386470 0.492430 0.492410 1.053424
Cu2   Cu    Cu3+1 0.613530 0.507570 0.507590 0.947878
H1    H     H_    0.779270 0.470224 0.185351 0.161076
H2    H     H_    0.272836 0.159704 0.560157 0.211773
H3    H     H_    0.747145 0.031701 0.445964 0.154055
H4    H     H_    0.252598 0.969363 0.567590 0.149986
H5    H     H_    0.727578 0.841630 0.456227 0.162631
H6    H     H_    0.344321 0.813262 0.546209 0.147056
H7    H     H_    0.184256 0.608059 0.584276 0.161885
H8    H     H_    0.983411 0.662376 0.643187 0.154409
H9    H     H_    0.009028 0.341973 0.360457 0.195468
H10   H     H_    0.758698 0.400785 0.841095 0.153201
H11   H     H_    0.820198 0.400005 0.408431 0.123297
H12   H     H_    0.824973 0.435420 0.000676 0.179128
H13   H     H_    0.435113 0.528898 0.175016 0.150731
H14   H     H_    0.296454 0.484482 0.103592 0.173304
H15   H     H_    0.149959 0.464027 0.006712 0.199150
H16   H     H_    0.608877 0.390367 0.745476 0.176612
H17   H     H_    0.654788 0.186597 0.458276 0.155177
N1    N     N_R   0.215880 0.481050 0.481000 -0.239318
N2    N     N_R   0.784100 0.518950 0.519000 -0.208160
O1    O     O_R   0.419710 0.645650 0.494620 -0.607171
O2    O     O_R   0.611450 0.658430 0.507430 -0.586001
O3    O     O_R   0.357340 0.490460 0.641450 -0.505190
O4    O     O_R   0.549080 0.503250 0.654260 -0.598379
O5    O     O_R   0.388550 0.341570 0.492570 -0.499634
O6    O     O_R   0.580290 0.354350 0.505380 -0.614475
O7    O     O_R   0.450920 0.496750 0.345740 -0.538091
O8    O     O_R   0.642660 0.509540 0.358550 -0.601519
S1    S     S_3+6 0.230863 0.300220 0.346865 0.014244
O9    O     O_2   0.189354 0.206696 0.414960 -0.313554
O10   O     O_2   0.179744 0.275567 0.253797 -0.315655
O11   O     O_3   0.379092 0.313684 0.304231 -0.524465
H18   H     H_    0.394064 0.243990 0.275784 0.364554
C37   C     C_1   0.755141 0.657699 0.649762 0.313725
N3    N     N_1   0.696199 0.710899 0.702488 -0.279815
S2    S     S_3+6 0.148711 0.423583 0.800124 -0.006303
O12   O     O_2   0.126125 0.522497 0.761624 -0.326495
O13   O     O_2   0.173443 0.346547 0.713039 -0.285015
O14   O     O_3   0.025826 0.370212 0.885915 -0.559861
H19   H     H_    0.963492 0.351321 0.846286 0.365361

loop_
_geom_bond_atom_site_label_1
_geom_bond_atom_site_label_2
_ccdc_geom_bond_type
S1    O10   D    
C35   H15   S    
S2    O12   D    
C14   C18   A    
C35   C36   A    
C4    C8    A    
Cu1   O5    S    
C28   N1    A    
C11   C19   A    
C26   C27   A    
C29   C30   A    
C6    H10   S    
C18   C19   A    
C3    C7    A    
C1    O2    A    
C5    C6    A    
C20   H2    S    
S1    O11   S    
C19   H17   S    
C9    H1    S    
C34   C35   A    
C9    C32   A    
Cu1   N1    S    
C23   O5    A    
C16   C17   A    
C31   C33   S    
C16   H6    S    
Cu1   O1    S    
C36   H14   S    
Cu2   O4    S    
C23   O6    A    
S1    O9    D    
C9    C33   A    
S2    O13   D    
C25   N2    A    
C11   C20   A    
C28   H7    S    
C30   H9    S    
O14   H19   S    
C24   N2    A    
C25   C26   A    
C17   C21   A    
Cu2   O2    S    
C2    C4    A    
Cu1   Cu2   S    
Cu2   N2    S    
Cu2   O8    S    
C17   C18   A    
C10   C34   A    
C8    H13   S    
C32   H12   S    
C10   C12   S    
C14   H3    S    
C22   H8    S    
C26   C30   A    
C22   C27   A    
C13   C15   A    
S2    O14   S    
C22   C24   A    
C1    C13   S    
Cu1   O7    S    
Cu2   O6    S    
C2    C36   A    
C31   O8    A    
C21   H4    S    
C31   O7    A    
C4    C5    A    
C6    C7    A    
C29   N1    A    
C5    C32   A    
C2    C3    A    
C15   H5    S    
C37   N3    T    
C3    C10   A    
C1    O1    A    
C12   O4    A    
C11   C23   S    
C8    C33   A    
O11   H18   S    
C25   H11   S    
Cu1   O3    S    
C34   S2    S    
C29   S1    S    
C12   O3    A    
C20   C21   A    
C13   C16   A    
C27   C28   A    
C14   C15   A    
C7    H16   S    
C24   C37   S    
