data_mof_unit_1373.cif
_audit_creation_date              2012-12-11T17:04:56-0500
_audit_creation_method            fapswitch 2.2
_symmetry_space_group_name_H-M    P1
_symmetry_Int_Tables_number       1
_space_group_crystal_system       triclinic
_cell_length_a                    17.327435
_cell_length_b                    24.323896
_cell_length_c                    14.905897
_cell_angle_alpha                 89.71904
_cell_angle_beta                  125.686976
_cell_angle_gamma                 89.949534
_cell_volume                      5102.55065021

loop_
_atom_site_label
_atom_site_type_symbol
_atom_type_description
_atom_site_fract_x
_atom_site_fract_y
_atom_site_fract_z
_atom_type_partial_charge
C1    C     C_R   0.808171 0.624396 0.904318 -0.142468
C2    C     C_R   0.151062 0.651474 0.094668 -0.146590
C3    C     C_R   0.308254 0.124503 0.904432 -0.142523
C4    C     C_R   0.651243 0.151406 0.094747 -0.145820
C5    C     C_R   0.815238 0.362304 0.004159 -0.000367
C6    C     C_R   0.115201 0.315904 0.996705 -0.008911
C7    C     C_R   0.315089 0.862389 0.004070 -0.000191
C8    C     C_R   0.615065 0.815868 0.996576 -0.008364
C9    C     C_R   0.066901 0.501963 0.369180 0.063753
C10   C     C_R   0.047704 0.501703 0.722544 0.065491
C11   C     C_R   0.566916 0.001958 0.369187 0.063696
C12   C     C_R   0.547698 0.001703 0.722534 0.065495
C13   C     C_R   0.693538 0.500680 0.636227 0.040484
C14   C     C_R   0.325100 0.501447 0.275814 0.013167
C15   C     C_R   0.193833 0.001654 0.635965 0.040424
C16   C     C_R   0.825167 0.000556 0.276313 0.015105
C17   C     C_3   0.537716 0.449555 0.485387 -0.168464
C18   C     C_3   0.504801 0.467075 0.368146 -0.153367
C19   C     C_3   0.023510 0.967462 0.522261 -0.149617
C20   C     C_3   0.991250 0.949448 0.406344 -0.167534
C21   C     C_3   0.458369 0.484124 0.474357 -0.131660
C22   C     C_3   0.570960 0.518121 0.416522 -0.131989
C23   C     C_3   0.958428 0.018089 0.474196 -0.135636
C24   C     C_3   0.071238 0.984007 0.416884 -0.132014
C25   C     C_3   0.426503 0.501691 0.358495 0.180406
C26   C     C_3   0.601321 0.500438 0.531595 0.176093
C27   C     C_3   0.926592 0.000239 0.358842 0.174777
C28   C     C_3   0.101569 0.001980 0.531435 0.177852
C29   C     C_3   0.490089 0.552622 0.404382 -0.166339
C30   C     C_3   0.522380 0.534883 0.520834 -0.152299
C31   C     C_3   0.003994 0.034927 0.366896 -0.145166
C32   C     C_3   0.036885 0.052724 0.483631 -0.162840
C33   C     C_R   0.785047 0.301431 0.112179 0.160844
C34   C     C_R   0.116472 0.240763 0.888024 0.175751
C35   C     C_R   0.284657 0.801621 0.112068 0.160608
C36   C     C_R   0.616454 0.740768 0.887859 0.175960
C37   C     C_R   0.749369 0.330994 0.014636 0.044330
C38   C     C_R   0.132902 0.258098 0.987040 0.040566
C39   C     C_R   0.249105 0.831120 0.014472 0.043910
C40   C     C_R   0.632755 0.758055 0.986839 0.040859
C41   C     C_R   0.653442 0.323662 0.925981 -0.196121
C42   C     C_R   0.177666 0.220642 0.076499 -0.220334
C43   C     C_R   0.153244 0.823681 0.925682 -0.195462
C44   C     C_R   0.677401 0.720544 0.076213 -0.220276
C45   C     C_R   0.903368 0.378654 0.094395 -0.177482
C46   C     C_R   0.053145 0.348752 0.906731 -0.199449
C47   C     C_R   0.403303 0.878665 0.094345 -0.178168
C48   C     C_R   0.553102 0.848758 0.906661 -0.198537
C49   C     C_R   0.105246 0.776903 0.923935 -0.199266
C50   C     C_R   0.729672 0.676375 0.076531 -0.189940
C51   C     C_R   0.605425 0.276892 0.924216 -0.198765
C52   C     C_R   0.229937 0.176479 0.076810 -0.189722
C53   C     C_R   0.152412 0.740096 0.013774 0.031601
C54   C     C_R   0.732275 0.668625 0.985049 0.032520
C55   C     C_R   0.652670 0.240012 0.013933 0.032117
C56   C     C_R   0.232433 0.168700 0.985259 0.032039
C57   C     C_R   0.236529 0.756924 0.111853 0.155695
C58   C     C_R   0.665188 0.696544 0.886705 0.154217
C59   C     C_R   0.736916 0.256746 0.111963 0.153617
C60   C     C_R   0.165227 0.196556 0.886877 0.156604
C61   C     C_3   0.326267 0.725348 0.190573 -0.521212
C62   C     C_3   0.674697 0.723541 0.802864 -0.516371
C63   C     C_3   0.826647 0.225097 0.190374 -0.517054
C64   C     C_3   0.174555 0.223526 0.802867 -0.517311
C65   C     C_3   0.879747 0.274146 0.190326 -0.501797
C66   C     C_3   0.120897 0.271889 0.804199 -0.518383
C67   C     C_3   0.379366 0.774397 0.190525 -0.500661
C68   C     C_3   0.621069 0.771925 0.804204 -0.518243
C69   C     C_R   0.096488 0.553686 0.619709 -0.132673
C70   C     C_R   0.103966 0.553808 0.532583 -0.016739
C71   C     C_R   0.596535 0.053679 0.619739 -0.132954
C72   C     C_R   0.604020 0.053799 0.532618 -0.017750
C73   C     C_R   0.092906 0.504027 0.665245 0.117517
C74   C     C_R   0.103777 0.504047 0.485621 0.047430
C75   C     C_R   0.592912 0.004020 0.665248 0.117529
C76   C     C_R   0.603797 0.004038 0.485632 0.047270
C77   C     C_R   0.119169 0.455538 0.638121 -0.185649
C78   C     C_R   0.124098 0.455460 0.547644 -0.159269
C79   C     C_R   0.619151 0.955527 0.638108 -0.185943
C80   C     C_R   0.624085 0.955447 0.547634 -0.158334
C81   C     C_3   0.042256 0.603897 0.481648 0.453105
C82   C     C_3   0.032362 0.603214 0.575477 0.452530
C83   C     C_3   0.542355 0.103907 0.481712 0.453026
C84   C     C_3   0.532455 0.103226 0.575536 0.453243
C85   C     C_R   0.051136 0.546909 0.304137 -0.174193
C86   C     C_R   0.020707 0.547068 0.753733 -0.001036
C87   C     C_R   0.551151 0.046906 0.304146 -0.175074
C88   C     C_R   0.520702 0.047068 0.753726 -0.000491
C89   C     C_R   0.742515 0.455097 0.696889 -0.143628
C90   C     C_R   0.269788 0.455229 0.249565 -0.136079
C91   C     C_R   0.242719 0.955667 0.695705 -0.155186
C92   C     C_R   0.769497 0.954753 0.250404 -0.120974
C93   C     C_R   0.051132 0.455784 0.306686 -0.128270
C94   C     C_R   0.016573 0.455109 0.747375 -0.140740
C95   C     C_R   0.551137 0.955780 0.306686 -0.127252
C96   C     C_R   0.516566 0.955110 0.747366 -0.141429
C97   C     C_R   0.741629 0.546445 0.695643 -0.134605
C98   C     C_R   0.269294 0.547156 0.250502 -0.114339
C99   C     C_R   0.241764 0.046987 0.696511 -0.121474
C100  C     C_R   0.769677 0.046700 0.250182 -0.131504
C101  C     C_R   0.812833 0.373328 0.910354 0.188499
C102  C     C_R   0.147460 0.348035 0.089251 0.195269
C103  C     C_R   0.312698 0.873526 0.910305 0.188151
C104  C     C_R   0.647297 0.847966 0.089162 0.194323
C105  C     C_R   0.899753 0.626309 0.089166 -0.119185
C106  C     C_R   0.059794 0.653240 0.911219 -0.161572
C107  C     C_R   0.399853 0.126351 0.089251 -0.119197
C108  C     C_R   0.559862 0.153234 0.911266 -0.162051
C109  C     C_R   0.809874 0.639373 0.994288 0.063189
C110  C     C_R   0.123587 0.683422 0.004853 0.080330
C111  C     C_R   0.310008 0.139467 0.994433 0.063506
C112  C     C_R   0.623758 0.183367 0.004943 0.079670
H1    H     H_    0.749171 0.627082 0.818616 0.106972
H2    H     H_    0.186584 0.665165 0.178912 0.106425
H3    H     H_    0.249234 0.127315 0.818812 0.107491
H4    H     H_    0.686967 0.165024 0.179069 0.106382
H5    H     H_    0.558066 0.407221 0.519947 0.117014
H6    H     H_    0.494676 0.439581 0.302881 0.119661
H7    H     H_    0.033020 0.939973 0.587787 0.112891
H8    H     H_    0.970993 0.907178 0.372715 0.117671
H9    H     H_    0.468986 0.594805 0.369133 0.114433
H10   H     H_    0.531092 0.562522 0.585233 0.115884
H11   H     H_    0.993046 0.062280 0.300515 0.119312
H12   H     H_    0.056435 0.095141 0.516603 0.110107
H13   H     H_    0.618452 0.350617 0.854895 0.123416
H14   H     H_    0.180064 0.227330 0.149403 0.156692
H15   H     H_    0.118277 0.850544 0.854485 0.122728
H16   H     H_    0.679686 0.727172 0.149057 0.156679
H17   H     H_    0.036045 0.767331 0.849701 0.132530
H18   H     H_    0.774529 0.652200 0.151214 0.142611
H19   H     H_    0.536137 0.267385 0.850057 0.132295
H20   H     H_    0.274886 0.152346 0.151531 0.142922
H21   H     H_    0.333988 0.688252 0.153014 0.203100
H22   H     H_    0.634246 0.701634 0.722542 0.189535
H23   H     H_    0.834171 0.188039 0.152563 0.202448
H24   H     H_    0.134065 0.201580 0.722588 0.189134
H25   H     H_    0.338465 0.718269 0.271690 0.191029
H26   H     H_    0.749387 0.733702 0.835787 0.204745
H27   H     H_    0.839029 0.217942 0.271568 0.191694
H28   H     H_    0.249198 0.233731 0.835650 0.204483
H29   H     H_    0.917687 0.265366 0.152191 0.205611
H30   H     H_    0.049630 0.277520 0.724898 0.191941
H31   H     H_    0.417496 0.765570 0.152640 0.205792
H32   H     H_    0.549857 0.777617 0.724856 0.191789
H33   H     H_    0.922965 0.294957 0.271740 0.190461
H34   H     H_    0.164780 0.309730 0.837767 0.201779
H35   H     H_    0.422407 0.795281 0.271871 0.190294
H36   H     H_    0.665013 0.809738 0.837925 0.201876
H37   H     H_    0.124065 0.416653 0.676739 0.116207
H38   H     H_    0.132101 0.416427 0.519447 0.116860
H39   H     H_    0.624022 0.916640 0.676707 0.116311
H40   H     H_    0.632062 0.916413 0.519422 0.117098
H41   H     H_    0.974300 0.597303 0.399166 0.064671
H42   H     H_    0.063114 0.639648 0.630252 0.064451
H43   H     H_    0.474395 0.097333 0.399224 0.065059
H44   H     H_    0.563238 0.139649 0.630336 0.064113
H45   H     H_    0.929551 0.376609 0.180014 0.125593
H46   H     H_    0.003135 0.335131 0.822669 0.124176
H47   H     H_    0.429471 0.876624 0.179957 0.125571
H48   H     H_    0.503102 0.835165 0.822574 0.124004
H49   H     H_    0.073092 0.588649 0.331289 0.157092
H50   H     H_    0.036632 0.589555 0.751290 0.101562
H51   H     H_    0.573122 0.088643 0.331307 0.156906
H52   H     H_    0.536627 0.089555 0.751284 0.101447
H53   H     H_    0.730844 0.413646 0.666171 0.121843
H54   H     H_    0.294776 0.413387 0.267164 0.126128
H55   H     H_    0.230064 0.914334 0.664109 0.127786
H56   H     H_    0.793643 0.912794 0.268248 0.119773
H57   H     H_    0.069876 0.413985 0.336812 0.082972
H58   H     H_    0.026032 0.412623 0.734963 0.101244
H59   H     H_    0.569887 0.913981 0.336803 0.083041
H60   H     H_    0.526021 0.912624 0.734948 0.101188
H61   H     H_    0.727451 0.588428 0.665651 0.100605
H62   H     H_    0.291586 0.589559 0.267359 0.096137
H63   H     H_    0.228625 0.089107 0.667466 0.093926
H64   H     H_    0.792841 0.088977 0.266927 0.103237
H65   H     H_    0.925244 0.632341 0.174055 0.113002
H66   H     H_    0.014582 0.668776 0.827444 0.106369
H67   H     H_    0.425394 0.132373 0.174159 0.113064
H68   H     H_    0.514663 0.168798 0.827512 0.106541
H69   H     H_    0.410662 0.470245 0.496926 0.121042
H70   H     H_    0.620189 0.531914 0.396241 0.133168
H71   H     H_    0.910651 0.031958 0.496618 0.123902
H72   H     H_    0.120576 0.970219 0.396806 0.125793
N1    N     N_R   0.892620 0.603790 0.941770 -0.041382
N2    N     N_R   0.107380 0.603790 0.058230 -0.040757
N3    N     N_R   0.392620 0.103790 0.941770 -0.041721
N4    N     N_R   0.607380 0.103790 0.058230 -0.040300
N5    N     N_R   0.952270 0.397640 0.058010 -0.051206
N6    N     N_R   0.047730 0.397640 0.941990 -0.051136
N7    N     N_R   0.452270 0.897640 0.058010 -0.051245
N8    N     N_R   0.547730 0.897640 0.941990 -0.051138
N9    N     N_R   0.026310 0.529110 0.206760 -0.040174
N10   N     N_R   0.973690 0.529110 0.793240 -0.050632
N11   N     N_R   0.526310 0.029110 0.206760 -0.040016
N12   N     N_R   0.473690 0.029110 0.793240 -0.050670
N13   N     N_R   0.818570 0.472310 0.793020 -0.042111
N14   N     N_R   0.181430 0.472310 0.206980 -0.036753
N15   N     N_R   0.318570 0.972310 0.793020 -0.041762
N16   N     N_R   0.681430 0.972310 0.206980 -0.037283
N17   N     N_R   0.026930 0.472300 0.207330 -0.039548
N18   N     N_R   0.973070 0.472300 0.792670 -0.042046
N19   N     N_R   0.526930 0.972300 0.207330 -0.039617
N20   N     N_R   0.473070 0.972300 0.792670 -0.041931
N21   N     N_R   0.817960 0.529130 0.792460 -0.040713
N22   N     N_R   0.182040 0.529130 0.207540 -0.039546
N23   N     N_R   0.317960 0.029130 0.792460 -0.041383
N24   N     N_R   0.682040 0.029130 0.207540 -0.038898
N25   N     N_R   0.894850 0.397640 0.943830 -0.055390
N26   N     N_R   0.105150 0.397640 0.056170 -0.055827
N27   N     N_R   0.394850 0.897640 0.943830 -0.055307
N28   N     N_R   0.605150 0.897640 0.056170 -0.056303
N29   N     N_R   0.950040 0.603780 0.055950 -0.041331
N30   N     N_R   0.049960 0.603780 0.944050 -0.047214
N31   N     N_R   0.450040 0.103780 0.055950 -0.041263
N32   N     N_R   0.549960 0.103780 0.944050 -0.047261
Ni1   Ni    Ni4+2 0.934160 0.565860 0.869070 0.222472
Ni2   Ni    Ni4+2 0.065840 0.565860 0.130930 0.219514
Ni3   Ni    Ni4+2 0.434160 0.065860 0.869070 0.222761
Ni4   Ni    Ni4+2 0.565840 0.065860 0.130930 0.218956
Ni5   Ni    Ni4+2 0.067260 0.435560 0.132230 0.210306
Ni6   Ni    Ni4+2 0.932740 0.435560 0.867770 0.217096
Ni7   Ni    Ni4+2 0.567260 0.935560 0.132230 0.210810
Ni8   Ni    Ni4+2 0.432740 0.935560 0.867770 0.216914
F1    F     F_    0.093485 0.648857 0.486463 -0.715478
F2    F     F_    0.939963 0.591142 0.538074 -0.713462
F3    F     F_    0.593627 0.148850 0.486559 -0.715829
F4    F     F_    0.440043 0.091182 0.538117 -0.712200
N33   N     N_2   0.754029 0.347403 0.806246 -0.126719
H73   H     H_    0.682189 0.351534 0.767688 0.152943
C113  C     C_3   0.783181 0.292171 0.803184 -0.894382
H74   H     H_    0.737643 0.276563 0.717287 0.261063
H75   H     H_    0.775810 0.264497 0.857322 0.254979
H76   H     H_    0.858182 0.291851 0.830658 0.251936
N34   N     N_2   0.201369 0.329902 0.200786 -0.127222
H77   H     H_    0.256232 0.303139 0.224165 0.163743
C114  C     C_3   0.147339 0.317789 0.244152 -0.953091
H78   H     H_    0.195866 0.302887 0.330722 0.252121
H79   H     H_    0.093373 0.285695 0.193918 0.249892
H80   H     H_    0.111592 0.355484 0.244125 0.259332
N35   N     N_2   0.253056 0.848347 0.805538 -0.126126
H81   H     H_    0.181369 0.853573 0.766789 0.151490
C115  C     C_3   0.279982 0.792712 0.801185 -0.891587
H82   H     H_    0.233983 0.777693 0.714874 0.261239
H83   H     H_    0.271285 0.765194 0.854449 0.254822
H84   H     H_    0.355036 0.791342 0.828919 0.251499
N36   N     N_2   0.700743 0.829659 0.200565 -0.127598
H85   H     H_    0.755710 0.802940 0.224155 0.162664
C116  C     C_3   0.646284 0.817419 0.243327 -0.952175
H86   H     H_    0.694475 0.802235 0.329733 0.252105
H87   H     H_    0.592152 0.785497 0.192505 0.249806
H88   H     H_    0.610721 0.855125 0.243608 0.259300

loop_
_geom_bond_atom_site_label_1
_geom_bond_atom_site_label_2
_ccdc_geom_bond_type
C53   C110  S    
C58   C62   S    
C87   H51   S    
C63   C65   S    
N24   Ni4   S    
C2    N2    A    
C22   C29   S    
C5    C37   S    
C55   C112  S    
N14   N22   A    
C15   C91   A    
C85   H49   S    
C88   N12   A    
N13   N21   A    
C19   C20   S    
N32   Ni3   S    
N17   Ni5   S    
C72   C76   A    
C67   H31   S    
C34   C66   S    
C64   H24   S    
C81   C82   S    
C100  N24   A    
C33   C65   S    
C47   H47   S    
C77   C78   A    
N22   Ni2   S    
C21   H69   S    
N2    Ni2   S    
C93   H57   S    
C116  H86   S    
C50   C54   A    
N1    Ni1   S    
C4    N4    A    
C103  N27   A    
C17   C26   S    
C91   H55   S    
N7    N27   A    
C38   C42   A    
C82   H42   S    
C55   C59   A    
C11   C76   S    
N6    Ni6   S    
N10   N18   A    
C64   H28   S    
C98   H62   S    
C10   C73   S    
N5    Ni5   S    
C24   H72   S    
C10   C94   A    
C95   N19   A    
C115  H82   S    
C46   H46   S    
C66   H34   S    
C81   H41   S    
C108  H68   S    
N35   H81   S    
C57   C61   S    
C70   C81   S    
C32   H12   S    
C14   C90   A    
C21   C25   S    
C69   C82   S    
C50   H18   S    
C9    C85   A    
C107  H67   S    
C49   C53   A    
N8    N28   A    
C30   H10   S    
C11   C87   A    
C115  H83   S    
C29   H9    S    
C66   H30   S    
C70   C74   A    
N34   H77   S    
C6    C38   S    
C14   C98   A    
C94   N18   A    
C23   C27   S    
N12   N20   A    
C18   C22   S    
C93   N17   A    
C18   H6    S    
C56   C111  S    
C74   C78   A    
C8    C40   S    
C68   H36   S    
C17   H5    S    
C83   H43   S    
C91   N15   A    
C115  H84   S    
C16   C27   S    
N4    Ni4   S    
C4    C112  A    
C19   H7    S    
C102  N34   S    
C33   C59   A    
N26   Ni5   S    
C7    C103  A    
C114  H78   S    
N20   Ni8   S    
C34   C60   A    
N25   Ni6   S    
N34   C114  S    
C18   C25   S    
C1    H1    S    
N18   Ni6   S    
C46   N6    A    
N11   Ni4   S    
C15   C99   A    
N33   H73   S    
C96   N20   A    
N10   Ni1   S    
C5    C101  A    
N36   C116  S    
C25   C29   S    
N9    Ni2   S    
C106  N30   A    
N3    N31   A    
C116  H87   S    
C97   H61   S    
C12   C88   A    
C27   C31   S    
C52   H20   S    
C84   H44   S    
C41   H13   S    
C36   C40   A    
N14   Ni5   S    
C61   H25   S    
N8    Ni8   S    
N13   Ni6   S    
C61   H21   S    
C77   H37   S    
C53   C57   A    
C19   C23   S    
C102  N26   A    
C1    C109  A    
C47   N7    A    
C101  N25   A    
C88   H52   S    
C5    C45   A    
C98   N22   A    
C33   C37   A    
C56   C60   A    
C54   C109  S    
C99   N23   A    
N35   C115  S    
C7    C47   A    
C90   H54   S    
C35   C39   A    
C8    C48   A    
C23   H71   S    
C29   C30   S    
C42   C52   A    
C82   F2    S    
C61   C67   S    
C83   C84   S    
N33   C113  S    
C28   C32   S    
N29   Ni2   S    
C104  N36   S    
N21   Ni1   S    
N15   N23   A    
C17   C18   S    
C114  H80   S    
C45   H45   S    
C113  H75   S    
C13   C97   A    
C62   H26   S    
C69   C73   A    
C19   C28   S    
C8    C104  A    
C89   H53   S    
C108  N32   A    
C22   C26   S    
C81   F1    S    
C86   H50   S    
C11   C95   A    
C45   N5    A    
C41   C51   A    
C26   C30   S    
C1    N1    A    
N4    N32   A    
C67   H35   S    
N3    Ni3   S    
C13   C26   S    
C107  N31   A    
C76   C80   A    
C9    C74   S    
C104  N28   A    
C43   H15   S    
C84   F4    S    
C9    C93   A    
C72   C83   S    
C20   H8    S    
N12   Ni3   S    
C89   N13   A    
C78   H38   S    
C79   H39   S    
C71   C84   S    
C106  C110  A    
C44   C50   A    
C59   C63   S    
C80   H40   S    
C105  C109  A    
N23   Ni3   S    
C44   H16   S    
C116  H88   S    
C51   H19   S    
C6    C46   A    
C13   C89   A    
C62   H22   S    
C34   C38   A    
N16   Ni7   S    
C107  C111  A    
C4    H4    S    
C31   C32   S    
C43   C49   A    
C24   C28   S    
C105  H65   S    
N30   Ni1   S    
C3    N3    A    
C39   C43   A    
N36   H85   S    
C36   C68   S    
C10   C86   A    
C16   C92   A    
C100  H64   S    
C83   F3    S    
C20   C27   S    
C63   H27   S    
N7    Ni7   S    
C105  N29   A    
C21   C30   S    
N19   Ni7   S    
C36   C58   A    
C62   C68   S    
C60   C64   S    
C23   C32   S    
C48   H48   S    
C114  H79   S    
N6    N26   A    
C24   C31   S    
C31   H11   S    
C71   C72   A    
C22   H70   S    
C64   C66   S    
C3    H3    S    
N31   Ni4   S    
C86   N10   A    
C71   C75   A    
C2    H2    S    
C85   N9    A    
C15   C28   S    
N9    N17   A    
C75   C79   A    
N5    N25   A    
C49   H17   S    
N27   Ni8   S    
N2    N30   A    
C65   H33   S    
C103  N35   S    
N1    N29   A    
C68   H32   S    
C113  H76   S    
C51   C55   A    
C90   N14   A    
C6    C102  A    
C14   C25   S    
C37   C41   A    
C69   C70   A    
C20   C24   S    
C17   C21   S    
C92   H56   S    
C48   N8    A    
C99   H63   S    
C35   C67   S    
C42   H14   S    
C3    C111  A    
C79   C80   A    
C16   C100  A    
C108  C112  A    
C40   C44   A    
N11   N19   A    
C73   C77   A    
N16   N24   A    
C35   C57   A    
C96   H60   S    
C12   C75   S    
C54   C58   A    
C113  H74   S    
C7    C39   S    
C12   C96   A    
C101  N33   S    
N15   Ni8   S    
C87   N11   A    
C97   N21   A    
C92   N16   A    
C95   H59   S    
C106  H66   S    
C94   H58   S    
C65   H29   S    
C52   C56   A    
C63   H23   S    
N28   Ni7   S    
C2    C110  A    
