data_mof_unit_4996.cif
_audit_creation_date              2012-12-11T15:55:55-0500
_audit_creation_method            fapswitch 2.2
_symmetry_space_group_name_H-M    P1
_symmetry_Int_Tables_number       1
_space_group_crystal_system       triclinic
_cell_length_a                    11.095322
_cell_length_b                    11.159303
_cell_length_c                    18.759506
_cell_angle_alpha                 90.625371
_cell_angle_beta                  90.853807
_cell_angle_gamma                 59.278458
_cell_volume                      1996.52062575

loop_
_atom_site_label
_atom_site_type_symbol
_atom_type_description
_atom_site_fract_x
_atom_site_fract_y
_atom_site_fract_z
_atom_type_partial_charge
C1    C     C_R   0.353834 0.777864 0.398885 0.524030
C2    C     C_R   0.251577 0.426971 0.198077 -0.159769
C3    C     C_R   0.245684 0.429338 0.271247 -0.047142
C4    C     C_R   0.385740 0.353260 0.387512 0.537736
C5    C     C_R   0.868315 0.726643 0.372338 -0.104682
C6    C     C_R   0.871739 0.621084 0.329788 -0.091024
C7    C     C_R   0.990593 0.530120 0.292448 -0.113641
C8    C     C_R   0.112291 0.534127 0.302622 0.012627
C9    C     C_R   0.364242 0.333119 0.311232 0.004943
C10   C     C_R   0.850724 0.342175 0.180932 0.021695
C11   C     C_R   0.931666 0.253823 0.235623 -0.018974
C12   C     C_R   0.628428 0.112039 0.168217 0.029985
C13   C     C_R   0.885903 0.272655 0.304044 0.017194
C14   C     C_R   0.665176 0.469827 0.266744 -0.199050
C15   C     C_R   0.712833 0.448286 0.195901 -0.169683
C16   C     C_R   0.714228 0.414717 0.395283 0.557461
C17   C     C_3   0.081441 0.187980 0.256690 -0.280967
C18   C     C_3   0.031339 0.210072 0.333887 -0.262335
C19   C     C_R   0.756510 0.386485 0.321968 0.011154
C20   C     C_R   0.353565 0.844974 0.179887 -0.004769
C21   C     C_R   0.420228 0.897348 0.225015 0.019479
C22   C     C_R   0.403142 0.901293 0.299677 0.012406
C23   C     C_R   0.364931 0.319578 0.162010 0.016194
C24   C     C_R   0.230516 0.839709 0.284350 -0.185339
C25   C     C_R   0.262995 0.809346 0.212977 -0.168833
C26   C     C_3   0.574620 0.837414 0.240794 -0.290319
C27   C     C_3   0.545198 0.863586 0.318745 -0.286860
C28   C     C_R   0.343270 0.768849 0.604007 0.550921
C29   C     C_R   0.321812 0.853790 0.330454 0.006047
C30   C     C_R   0.306171 0.333952 0.816287 0.018334
C31   C     C_R   0.437365 0.294026 0.789419 0.005703
C32   C     C_R   0.454058 0.300202 0.717893 0.028962
C33   C     C_R   0.206345 0.402836 0.696724 -0.185002
C34   C     C_R   0.481292 0.226841 0.274633 -0.150285
C35   C     C_R   0.187994 0.398205 0.770243 -0.158138
C36   C     C_3   0.577617 0.163938 0.797762 -0.271637
C37   C     C_3   0.595566 0.172717 0.718507 -0.261954
C38   C     C_R   0.342687 0.342618 0.669976 0.008895
C39   C     C_R   0.828812 0.319312 0.833377 0.015884
C40   C     C_R   0.371451 0.351801 0.596353 0.532062
C41   C     C_R   0.739937 0.449383 0.803286 0.010237
C42   C     C_R   0.727634 0.463539 0.730541 0.033128
C43   C     C_R   0.884118 0.217375 0.713516 -0.189828
C44   C     C_R   0.894838 0.201515 0.787861 -0.165389
C45   C     C_R   0.486875 0.217601 0.200348 -0.011899
C46   C     C_3   0.732035 0.586803 0.812922 -0.282479
C47   C     C_3   0.722060 0.599664 0.732729 -0.267925
C48   C     C_R   0.802524 0.350849 0.684542 0.015139
C49   C     C_R   0.285846 0.875367 0.820050 -0.009479
C50   C     C_R   0.194756 0.844602 0.784608 -0.006594
C51   C     C_R   0.202901 0.826158 0.712105 -0.014056
C52   C     C_R   0.765008 0.376669 0.609714 0.544434
C53   C     C_R   0.371914 0.900174 0.704703 0.088475
C54   C     C_R   0.366098 0.915214 0.779161 -0.150862
C55   C     C_3   0.168138 0.728744 0.797237 -0.269673
C56   C     C_R   0.103270 0.648125 0.336157 -0.056549
C57   C     C_3   0.178297 0.706750 0.717324 -0.243467
C58   C     C_R   0.301905 0.839182 0.672342 0.042072
C59   C     C_R   0.910130 0.316847 0.110904 0.549694
C60   C     C_R   0.331352 0.293095 0.091063 0.548908
C61   C     C_R   0.308512 0.899894 0.106406 0.537158
C62   C     C_R   0.884144 0.308120 0.904818 0.546300
C63   C     C_R   0.294237 0.288797 0.885869 0.551776
C64   C     C_R   0.902799 0.907613 0.124525 -0.088553
C65   C     C_R   0.270703 0.902854 0.895893 0.546412
C66   C     C_R   0.882799 0.011168 0.173005 -0.081321
C67   C     C_R   0.983805 0.743993 0.373115 -0.106104
C68   C     C_R   0.747413 0.112658 0.193873 -0.110774
C69   C     C_3   0.393939 0.030453 0.608387 -0.272395
C70   C     C_R   0.654060 0.998217 0.123091 -0.072857
C71   C     C_R   0.788247 0.900572 0.099940 -0.143235
Cr1   Cr    Cr6+3 0.601740 0.606840 0.505840 1.001345
Cr2   Cr    Cr6+3 0.291500 0.601560 0.495070 0.996223
Cr3   Cr    Cr6+3 0.606780 0.291630 0.499130 0.995974
Cr4   Cr    Cr6+3 0.062440 0.063060 0.008240 1.014095
Cr5   Cr    Cr6+3 0.062950 0.375000 0.998920 0.997525
Cr6   Cr    Cr6+3 0.374550 0.061770 0.992470 0.992515
H1    H     H_    0.573925 0.152046 0.303985 0.137268
H2    H     H_    0.048592 0.286537 0.363848 0.159115
H3    H     H_    0.134358 0.851560 0.303537 0.120588
H4    H     H_    0.803912 0.814920 0.065873 0.103165
H5    H     H_    0.199127 0.780006 0.181958 0.133035
H6    H     H_    0.619356 0.899453 0.225241 0.150198
H7    H     H_    0.639053 0.725873 0.225740 0.140242
H8    H     H_    0.597320 0.771753 0.352091 0.169752
H9    H     H_    0.548935 0.955021 0.339944 0.134456
H10   H     H_    0.116230 0.447689 0.661098 0.123561
H11   H     H_    0.083723 0.433606 0.789883 0.136453
H12   H     H_    0.776902 0.796322 0.403043 0.102304
H13   H     H_    0.571964 0.070480 0.811740 0.148550
H14   H     H_    0.651211 0.181169 0.830950 0.147379
H15   H     H_    0.675133 0.198123 0.704955 0.168645
H16   H     H_    0.981670 0.828856 0.402666 0.117878
H17   H     H_    0.602362 0.086230 0.686395 0.136129
H18   H     H_    0.937398 0.126739 0.679198 0.126617
H19   H     H_    0.963539 0.098873 0.809533 0.153578
H20   H     H_    0.829476 0.579903 0.833868 0.160440
H21   H     H_    0.634265 0.664931 0.840029 0.139136
H22   H     H_    0.620267 0.683923 0.713131 0.183439
H23   H     H_    0.785019 0.606174 0.324249 0.140608
H24   H     H_    0.815275 0.594711 0.708280 0.138017
H25   H     H_    0.426654 0.955165 0.804706 0.140973
H26   H     H_    0.061046 0.766835 0.817811 0.139971
H27   H     H_    0.007036 0.829476 0.108030 0.118956
H28   H     H_    0.254580 0.640803 0.827403 0.142882
H29   H     H_    0.272429 0.607566 0.701279 0.165338
H30   H     H_    0.077950 0.729363 0.691591 0.142353
H31   H     H_    0.972851 0.011240 0.195017 0.134168
H32   H     H_    0.734210 0.189129 0.233047 0.129945
H33   H     H_    0.196124 0.651879 0.334033 0.171764
H34   H     H_    0.985954 0.459097 0.255603 0.129546
H35   H     H_    0.575197 0.971719 0.111859 0.173642
H36   H     H_    0.159817 0.504986 0.169023 0.138938
H37   H     H_    0.532122 0.941830 0.695046 0.231716
H38   H     H_    0.311652 0.131001 0.630935 0.143483
H39   H     H_    0.344170 0.995521 0.568162 0.152061
H40   H     H_    0.473390 0.043939 0.580394 0.162838
H41   H     H_    0.560633 0.554559 0.278799 0.125684
H42   H     H_    0.644569 0.515698 0.153926 0.123499
H43   H     H_    0.134462 0.244672 0.240918 0.141316
H44   H     H_    0.136813 0.080193 0.238424 0.161623
H45   H     H_    0.064509 0.111205 0.362499 0.142652
N1    N     N_2   0.461725 0.929053 0.664654 -0.519817
O1    O     O_R   0.748670 0.497520 0.427970 -0.528287
O2    O     O_R   0.417470 0.174910 0.067830 -0.533463
O3    O     O_R   0.375160 0.946380 0.070880 -0.514621
O4    O     O_R   0.476470 0.723930 0.429450 -0.529683
O5    O     O_R   0.160500 0.919670 0.926690 -0.515718
O6    O     O_R   0.933140 0.190380 0.936050 -0.508803
O7    O     O_R   0.909010 0.403210 0.925030 -0.529458
O8    O     O_R   0.179590 0.361290 0.918480 -0.511605
O9    O     O_R   0.391360 0.170840 0.907510 -0.529856
O10   O     O_R   0.350950 0.942600 0.922260 -0.518362
O11   O     O_3   0.166650 0.166610 0.999880 -0.252981
O12   O     O_R   0.300170 0.471020 0.567120 -0.500619
O13   O     O_R   0.264730 0.744140 0.416740 -0.551976
O14   O     O_R   0.309440 0.472410 0.418220 -0.502647
O15   O     O_R   0.501630 0.260530 0.414310 -0.539604
O16   O     O_R   0.727920 0.305730 0.428950 -0.499621
O17   O     O_R   0.738670 0.496020 0.588600 -0.511384
O18   O     O_R   0.467190 0.722540 0.578350 -0.475101
O19   O     O_R   0.254720 0.742640 0.577370 -0.531523
O20   O     O_R   0.491630 0.259030 0.574940 -0.532655
O21   O     O_R   0.718640 0.304340 0.577850 -0.503861
O22   O     O_3   0.500010 0.500010 0.500020 -0.270835
O23   O     O_R   0.186620 0.923750 0.087000 -0.532404
O24   O     O_R   0.957350 0.194160 0.084660 -0.491916
O25   O     O_R   0.935120 0.407280 0.085350 -0.525721
O26   O     O_R   0.203800 0.365060 0.067090 -0.510659

loop_
_geom_bond_atom_site_label_1
_geom_bond_atom_site_label_2
_ccdc_geom_bond_type
C66   C68   A    
C21   C26   S    
C69   H39   S    
C26   H6    S    
C47   H24   S    
C22   C29   A    
C41   C42   A    
C62   O7    A    
Cr3   O22   S    
C5    C67   A    
C8    C56   A    
Cr4   O11   S    
C7    C8    A    
C39   C41   A    
C53   C54   A    
C12   C68   A    
C26   C27   S    
C52   O21   A    
C49   C65   S    
C13   C18   S    
C55   H28   S    
C23   C45   A    
C60   O2    A    
C10   C15   A    
C30   C31   A    
Cr5   O8    S    
C20   C25   A    
C69   N1    S    
C49   C54   A    
C55   H26   S    
C47   H22   S    
Cr4   O5    S    
C64   C71   A    
C20   C61   S    
C27   H8    S    
C24   C29   A    
Cr3   O21   S    
C17   H43   S    
C52   O17   A    
C4    O14   A    
Cr5   O7    S    
C24   H3    S    
C69   H38   S    
Cr2   O12   S    
C7    H34   S    
C18   H2    S    
C14   H41   S    
C37   H17   S    
C43   H18   S    
C41   C46   S    
C70   C71   A    
C51   C57   S    
C63   O8    A    
C1    O13   A    
C43   C48   A    
C68   H32   S    
C59   O25   A    
C57   H29   S    
C46   H21   S    
C21   C22   A    
Cr1   O1    S    
C62   O6    A    
Cr1   O18   S    
Cr6   O10   S    
C56   H33   S    
C50   C51   A    
C6    C7    A    
Cr2   O19   S    
Cr4   O23   S    
C23   C60   S    
C40   O12   A    
C13   C19   A    
Cr1   O4    S    
C65   O5    A    
C24   C25   A    
C3    C8    S    
C53   N1    S    
C51   C58   A    
Cr5   O11   S    
Cr4   O24   S    
C32   C37   S    
Cr2   O22   S    
Cr6   O9    S    
C64   C66   A    
C27   H9    S    
C61   O23   A    
C3    C9    A    
Cr3   O15   S    
C35   H11   S    
C31   C32   A    
Cr2   O13   S    
C48   C52   S    
C50   C55   S    
C1    C29   S    
C17   C18   S    
C34   C45   A    
C42   C48   A    
C63   O9    A    
C61   O3    A    
C70   H35   S    
C18   H45   S    
H37   N1    S    
C30   C35   A    
C36   H14   S    
C17   H44   S    
C57   H30   S    
C46   H20   S    
C32   C38   A    
C22   C27   S    
C55   C57   S    
C43   C44   A    
C25   H5    S    
Cr3   O20   S    
C28   O19   A    
Cr6   O11   S    
Cr6   O2    S    
C36   H13   S    
C2    H36   S    
C64   H27   S    
C39   C62   S    
C12   C70   A    
C46   C47   S    
C36   C37   S    
C26   H7    S    
C44   H19   S    
C37   H15   S    
C14   C15   A    
C14   C19   A    
C54   H25   S    
C1    O4    A    
C66   H31   S    
C12   C45   S    
C11   C17   S    
C53   C58   A    
C39   C44   A    
C28   C58   S    
C56   C67   A    
Cr3   O16   S    
C33   C38   A    
C2    C3    A    
C16   O1    A    
C34   H1    S    
C38   C40   S    
C11   C13   A    
C5    C6    A    
Cr2   O14   S    
Cr5   O26   S    
C16   C19   S    
C69   H40   S    
C60   O26   A    
C33   C35   A    
C15   H42   S    
C9    C34   A    
C10   C59   S    
C42   C47   S    
C33   H10   S    
C65   O10   A    
C10   C11   A    
C4    O15   A    
C16   O16   A    
Cr4   O6    S    
Cr1   O17   S    
C20   C21   A    
Cr5   O25   S    
C49   C50   A    
C40   O20   A    
C2    C23   A    
C67   H16   S    
C31   C36   S    
C28   O18   A    
C4    C9    S    
C30   C63   S    
C5    H12   S    
Cr6   O3    S    
Cr1   O22   S    
C6    H23   S    
C71   H4    S    
C59   O24   A    
