data_mof_unit_4255.cif
_audit_creation_date              2012-12-11T14:15:31-0500
_audit_creation_method            fapswitch 2.2
_symmetry_space_group_name_H-M    P1
_symmetry_Int_Tables_number       1
_space_group_crystal_system       triclinic
_cell_length_a                    11.230082
_cell_length_b                    12.690793
_cell_length_c                    23.409188
_cell_angle_alpha                 90.391827
_cell_angle_beta                  96.483372
_cell_angle_gamma                 68.693159
_cell_volume                      3086.22092519

loop_
_atom_site_label
_atom_site_type_symbol
_atom_type_description
_atom_site_fract_x
_atom_site_fract_y
_atom_site_fract_z
_atom_type_partial_charge
C1    C     C_R   0.149110 0.617351 0.428981 0.542345
C2    C     C_R   0.582576 0.598638 0.328796 -0.133344
C3    C     C_R   0.667699 0.748628 0.325427 -0.128065
C4    C     C_R   0.617680 0.771801 0.267764 0.021221
C5    C     C_R   0.557762 0.701809 0.239580 0.049112
C6    C     C_R   0.533126 0.708235 0.179526 0.118176
C7    C     C_R   0.604991 0.868404 0.177618 -0.163356
C8    C     C_R   0.636692 0.857122 0.236921 -0.147825
C9    C     C_1   0.235799 0.162825 0.122867 -0.005207
C10   C     C_2   0.180941 0.232527 0.226822 -0.122555
C11   C     C_2   0.157340 0.163321 0.263219 -0.120285
C12   C     C_R   0.743951 0.607121 0.406326 0.549552
C13   C     C_1   0.133774 0.196724 0.321099 -0.047430
C14   C     C_1   0.210446 0.197681 0.169740 -0.049806
C15   C     C_1   0.116883 0.230567 0.368875 -0.002945
C16   C     C_1   0.163468 0.747192 0.122195 -0.010553
C17   C     C_2   0.145076 0.676523 0.225880 -0.131141
C18   C     C_2   0.215867 0.698096 0.271216 -0.136487
C19   C     C_1   0.207918 0.663200 0.328728 -0.048088
C20   C     C_1   0.151381 0.714774 0.168779 -0.062977
C21   C     C_1   0.190865 0.638473 0.375987 -0.005910
C22   C     C_1   0.531561 0.794241 0.850703 -0.029837
C23   C     C_R   0.101303 0.282036 0.423615 0.544703
C24   C     C_2   0.564739 0.775838 0.740100 -0.105926
C25   C     C_2   0.587426 0.675822 0.714650 0.161840
C26   C     C_1   0.627162 0.662944 0.657250 -0.051595
C27   C     C_1   0.545535 0.788533 0.800244 -0.053393
C28   C     C_1   0.674930 0.641532 0.612846 -0.051691
C29   C     C_R   0.193422 0.200537 0.860785 0.005040
C30   C     C_R   0.099074 0.244724 0.646321 0.000267
C31   C     C_R   0.986048 0.210125 0.723673 0.023016
C32   C     C_R   0.999453 0.212422 0.664082 0.012949
C33   C     C_R   0.184724 0.269322 0.687677 -0.147204
C34   C     C_R   0.152253 0.618378 0.589591 0.533494
C35   C     C_R   0.177542 0.258877 0.745783 0.004079
C36   C     C_R   0.082460 0.223462 0.764186 0.034376
C37   C     C_R   0.091696 0.194882 0.822543 -0.146905
C38   C     C_R   0.268344 0.261536 0.844560 0.023606
C39   C     C_R   0.263927 0.285221 0.785990 -0.107697
C40   C     C_R   0.136503 0.750083 0.848669 0.003741
C41   C     C_R   0.204503 0.644429 0.645638 0.021322
C42   C     C_R   0.320080 0.572708 0.738873 -0.107895
C43   C     C_R   0.301586 0.559115 0.679943 -0.132828
C44   C     C_R   0.134554 0.745795 0.670970 0.025424
C45   C     C_R   0.745908 0.603610 0.564551 0.542711
C46   C     C_R   0.124246 0.740053 0.729825 0.033216
C47   C     C_R   0.228483 0.661087 0.764292 0.010911
C48   C     C_R   0.238810 0.672826 0.823170 -0.172981
C49   C     C_R   0.016348 0.803021 0.815191 0.137079
C50   C     C_R   0.010203 0.800859 0.754614 0.030883
C51   C     C_R   0.265907 0.110008 0.069308 0.529287
C52   C     C_R   0.534338 0.798226 0.085403 0.588722
C53   C     C_R   0.188697 0.787121 0.069292 0.543848
C54   C     C_R   0.239544 0.120997 0.910502 0.530701
C55   C     C_R   0.511960 0.798921 0.910428 0.565353
C56   C     C_R   0.098122 0.281946 0.586728 0.536630
C57   C     C_R   0.165582 0.787085 0.906247 0.539139
C58   C     C_R   0.558596 0.791698 0.148318 0.022413
C59   C     C_R   0.659408 0.655637 0.354118 0.009736
C60   C     C_R   0.532819 0.620899 0.271841 -0.148314
Cr1   Cr    Cr6+3 0.189770 0.415650 0.511620 1.013722
Cr2   Cr    Cr6+3 0.930400 0.667320 0.496770 1.004819
Cr3   Cr    Cr6+3 0.879870 0.417010 0.491650 0.998647
Cr4   Cr    Cr6+3 0.149500 0.973980 0.985330 1.002031
Cr5   Cr    Cr6+3 0.457000 0.976510 0.994660 1.003198
Cr6   Cr    Cr6+3 0.411170 0.724270 0.995270 1.004417
H1    H     H_    0.082869 0.629728 0.231404 0.139981
H2    H     H_    0.567652 0.848075 0.716501 0.095646
H3    H     H_    0.030465 0.155090 0.837431 0.138628
H4    H     H_    0.330381 0.320691 0.771642 0.101528
H5    H     H_    0.256775 0.299646 0.674779 0.131964
H6    H     H_    0.329828 0.626668 0.848428 0.137798
H7    H     H_    0.622215 0.934108 0.154495 0.146404
H8    H     H_    0.398429 0.509053 0.764681 0.117488
H9    H     H_    0.360159 0.481516 0.661670 0.115622
H10   H     H_    0.481380 0.569355 0.253168 0.119045
H11   H     H_    0.679995 0.912640 0.258404 0.119299
H12   H     H_    0.569406 0.530323 0.351546 0.140334
H13   H     H_    0.723198 0.795733 0.345972 0.126669
H14   H     H_    0.158450 0.080687 0.250128 0.136615
H15   H     H_    0.180683 0.314806 0.240131 0.133469
H16   H     H_    0.275281 0.747384 0.265572 0.140798
O1    O     O_R   0.196340 0.303200 0.448500 -0.505927
O2    O     O_R   0.811960 0.658090 0.547150 -0.500579
O3    O     O_R   0.757930 0.506140 0.547110 -0.525736
O4    O     O_R   0.988670 0.321620 0.556040 -0.498176
O5    O     O_3   0.000020 0.499990 0.500010 -0.238754
O6    O     O_R   0.113660 0.883270 0.047820 -0.502473
O7    O     O_R   0.186930 0.068530 0.043990 -0.494361
O8    O     O_R   0.377770 0.089040 0.054220 -0.526181
O9    O     O_R   0.562800 0.872960 0.056970 -0.502949
O10   O     O_R   0.555390 0.700940 0.062700 -0.477831
O11   O     O_R   0.295020 0.731920 0.049950 -0.498194
O12   O     O_R   0.199310 0.519670 0.454880 -0.493596
O13   O     O_R   0.094290 0.884230 0.921550 -0.515998
O14   O     O_R   0.168980 0.069410 0.926940 -0.505359
O15   O     O_R   0.358400 0.089990 0.927950 -0.529189
O16   O     O_R   0.544850 0.873850 0.939920 -0.490881
O17   O     O_R   0.536020 0.701900 0.936430 -0.513083
O18   O     O_R   0.277070 0.732810 0.932890 -0.526786
O19   O     O_3   0.339220 0.891590 0.991750 -0.286341
O20   O     O_R   0.045660 0.691380 0.441680 -0.510769
O21   O     O_R   0.811930 0.659460 0.430950 -0.504053
O22   O     O_R   0.757900 0.507620 0.421760 -0.518922
O23   O     O_R   0.988630 0.322990 0.439840 -0.495333
O24   O     O_R   0.196380 0.301720 0.573850 -0.523537
O25   O     O_R   0.199350 0.518300 0.571080 -0.505142
O26   O     O_R   0.045700 0.689900 0.567030 -0.529318
N1    N     N_2   0.491584 0.626336 0.150082 -0.484405
H17   H     H_    0.409783 0.619894 0.162795 0.242648
C61   C     C_3   0.592031 0.516864 0.145067 -0.265875
H18   H     H_    0.554544 0.466037 0.114371 0.139825
H19   H     H_    0.623680 0.469987 0.187259 0.123479
H20   H     H_    0.676780 0.526571 0.128781 0.178625
N2    N     N_2   0.586904 0.579196 0.745843 -0.503092
H21   H     H_    0.604494 0.577943 0.790064 0.255664
C62   C     C_3   0.640042 0.469422 0.721404 -0.324931
H22   H     H_    0.625039 0.405217 0.748671 0.116155
H23   H     H_    0.744569 0.447493 0.719271 0.152862
H24   H     H_    0.590344 0.469046 0.677669 0.156686
C63   C     C_3   0.359146 0.293574 0.888337 -0.261615
C64   C     C_3   0.338183 0.418373 0.883972 -0.455829
H25   H     H_    0.377531 0.434326 0.845334 0.132944
H26   H     H_    0.234144 0.471161 0.881905 0.165803
H27   H     H_    0.390788 0.441725 0.921998 0.142568
H28   H     H_    0.343375 0.278578 0.933025 0.171263
H29   H     H_    0.460488 0.242262 0.882317 0.152309
C65   C     C_3   0.862191 0.209517 0.743975 -0.293016
C66   C     C_3   0.871505 0.094062 0.765842 -0.445610
H30   H     H_    0.961932 0.027194 0.756032 0.168515
H31   H     H_    0.867966 0.093915 0.812971 0.139904
H32   H     H_    0.786791 0.076455 0.745800 0.133826
H33   H     H_    0.834989 0.270681 0.778779 0.134736
H34   H     H_    0.780747 0.240483 0.709509 0.145129
C67   C     C_3   0.914718 0.171961 0.620800 -0.261080
C68   C     C_3   0.785293 0.265171 0.599452 -0.388716
H35   H     H_    0.704527 0.239789 0.608904 0.102186
H36   H     H_    0.774584 0.346374 0.620330 0.173844
H37   H     H_    0.776453 0.278869 0.552123 0.170274
H38   H     H_    0.966798 0.135099 0.583497 0.136636
H39   H     H_    0.896286 0.100850 0.640473 0.127083
N3    N     N_2   0.901721 0.854677 0.841606 -0.538703
H40   H     H_    0.895262 0.927123 0.863094 0.271971
C69   C     C_3   0.862286 0.777189 0.872612 -0.288203
H41   H     H_    0.934767 0.735968 0.909883 0.147576
H42   H     H_    0.849310 0.711577 0.843551 0.158721
H43   H     H_    0.769305 0.824561 0.888937 0.169604
C70   C     C_3   0.880871 0.851330 0.717712 -0.281231
C71   C     C_3   0.845205 0.761510 0.685191 -0.423309
H44   H     H_    0.916279 0.716066 0.656010 0.188783
H45   H     H_    0.837051 0.699192 0.716093 0.162113
H46   H     H_    0.752044 0.804770 0.658456 0.135981
H47   H     H_    0.801501 0.893258 0.743899 0.179993
H48   H     H_    0.879631 0.917207 0.686839 0.115914
C72   C     C_3   0.092224 0.859790 0.639001 -0.270915
C73   C     C_3   0.200219 0.872393 0.608633 -0.426167
H49   H     H_    0.287928 0.856244 0.639727 0.161809
H50   H     H_    0.223658 0.812573 0.573122 0.159138
H51   H     H_    0.169281 0.959792 0.590064 0.128932
H52   H     H_    0.005820 0.873997 0.607545 0.166551
H53   H     H_    0.067541 0.928451 0.670230 0.131332

loop_
_geom_bond_atom_site_label_1
_geom_bond_atom_site_label_2
_ccdc_geom_bond_type
C1    C21   S    
C37   H3    S    
C62   H22   S    
C6    C58   A    
C35   C39   A    
C61   H18   S    
C9    C51   S    
C24   C27   S    
Cr5   O19   S    
C4    C8    A    
C3    H13   S    
C65   C66   S    
C7    C8    A    
C7    H7    S    
C72   H53   S    
C66   H31   S    
C23   O1    A    
C34   O25   A    
Cr4   O7    S    
C73   H49   S    
C19   C21   T    
Cr5   O16   S    
C63   H29   S    
C25   N2    S    
C51   O8    A    
C5    C6    A    
C2    C60   A    
Cr2   O26   S    
C29   C54   S    
N2    H21   S    
C23   O23   A    
C17   C20   S    
C40   C48   A    
C18   C19   S    
Cr6   O18   S    
C16   C53   S    
Cr1   O5    S    
N1    C61   S    
C33   C35   A    
C12   C59   S    
C35   C36   A    
C1    O12   A    
N2    C62   S    
C29   C38   A    
C54   O15   A    
Cr3   O23   S    
C42   C43   A    
N1    H17   S    
C7    C58   A    
C54   O14   A    
C30   C33   A    
C66   H32   S    
C15   C23   S    
C10   C11   D    
C71   H45   S    
Cr3   O3    S    
C41   C43   A    
Cr6   O19   S    
C61   H20   S    
Cr5   O8    S    
C34   C41   S    
C70   H48   S    
C31   C65   S    
C48   H6    S    
C69   H43   S    
C44   C46   A    
C31   C36   A    
C43   H9    S    
C67   H38   S    
C28   C45   S    
C42   H8    S    
C17   H1    S    
C53   O11   A    
C47   C48   A    
C67   C68   S    
C70   C71   S    
Cr4   O14   S    
C12   O21   A    
C69   H42   S    
Cr1   O1    S    
C71   H46   S    
C33   H5    S    
Cr1   O12   S    
C68   H35   S    
Cr6   O10   S    
Cr4   O19   S    
C25   C26   S    
C57   O18   A    
C30   C56   S    
C60   H10   S    
C68   H37   S    
Cr6   O17   S    
C45   O3    A    
C9    C14   T    
C2    H12   S    
C65   H34   S    
C56   O4    A    
C31   C32   A    
C67   H39   S    
C16   C20   T    
C49   N3    S    
C17   C18   D    
C61   H19   S    
C24   C25   D    
Cr1   O24   S    
C56   O24   A    
C63   C64   S    
C52   C58   S    
Cr6   O11   S    
C68   H36   S    
C22   C27   T    
C13   C15   T    
Cr3   O4    S    
C10   C14   S    
C8    H11   S    
C41   C44   A    
N3    C69   S    
C52   O10   A    
C45   O2    A    
C70   H47   S    
C29   C37   A    
C3    C4    A    
Cr2   O21   S    
C50   C70   S    
Cr5   O9    S    
Cr2   O2    S    
C46   C47   A    
C36   C37   A    
C40   C57   S    
C5    C60   A    
Cr3   O5    S    
C72   H52   S    
C2    C59   A    
C44   C72   S    
C73   H51   S    
Cr4   O13   S    
C69   H41   S    
C32   C67   S    
C12   O22   A    
C22   C55   S    
C6    N1    S    
Cr2   O5    S    
C46   C50   A    
C10   H15   S    
C26   C28   T    
C34   O26   A    
C64   H27   S    
C62   H23   S    
C66   H30   S    
Cr5   O15   S    
C63   H28   S    
C71   H44   S    
C51   O7    A    
C30   C32   A    
C11   C13   S    
C38   C39   A    
C55   O16   A    
C73   H50   S    
C18   H16   S    
C39   H4    S    
C62   H24   S    
C53   O6    A    
C42   C47   A    
Cr1   O25   S    
C38   C63   S    
C11   H14   S    
C24   H2    S    
C4    C5    A    
C49   C50   A    
C57   O13   A    
C55   O17   A    
C72   C73   S    
N3    H40   S    
C52   O9    A    
Cr2   O20   S    
C64   H25   S    
C65   H33   S    
C64   H26   S    
C1    O20   A    
Cr4   O6    S    
C40   C49   A    
Cr3   O22   S    
C3    C59   A    
