data_mof_unit_1029.cif
_audit_creation_date              2012-12-11T15:23:50-0500
_audit_creation_method            fapswitch 2.2
_symmetry_space_group_name_H-M    P1
_symmetry_Int_Tables_number       1
_space_group_crystal_system       triclinic
_cell_length_a                    17.468997
_cell_length_b                    24.412974
_cell_length_c                    15.141756
_cell_angle_alpha                 89.793491
_cell_angle_beta                  125.772699
_cell_angle_gamma                 90.178527
_cell_volume                      5239.21170117

loop_
_atom_site_label
_atom_site_type_symbol
_atom_type_description
_atom_site_fract_x
_atom_site_fract_y
_atom_site_fract_z
_atom_type_partial_charge
Br1   Br    Br    0.521859 0.613248 0.336601 -0.560866
Br2   Br    Br    0.419967 0.616560 0.639972 -0.578083
Br3   Br    Br    0.098937 0.115787 0.361366 -0.539418
Br4   Br    Br    0.939704 0.116929 0.646965 -0.589037
Br5   Br    Br    0.199362 0.390311 0.628759 -0.528350
Br6   Br    Br    0.732144 0.387020 0.360466 -0.523651
Br7   Br    Br    0.746248 0.882436 0.643613 -0.549081
Br8   Br    Br    0.288318 0.887322 0.369156 -0.519974
C1    C     C_R   0.315881 0.370184 0.910213 -0.101917
C2    C     C_R   0.450410 0.498423 0.644342 -0.081053
C3    C     C_R   0.055696 0.000614 0.358822 -0.056401
C4    C     C_R   0.964318 0.997847 0.652317 -0.074444
C5    C     C_R   0.176554 0.501689 0.677754 0.039460
C6    C     C_R   0.796075 0.499261 0.367717 0.038547
C7    C     C_R   0.702422 0.000610 0.632005 0.055424
C8    C     C_R   0.320041 0.000893 0.336319 0.038822
C9    C     C_2   0.927203 0.457720 0.534030 -0.065568
C10   C     C_2   0.026783 0.464547 0.618835 -0.116140
C11   C     C_2   0.468333 0.967994 0.383228 -0.112450
C12   C     C_R   0.674940 0.361364 0.093937 -0.093517
C13   C     C_2   0.570303 0.963208 0.457495 -0.082450
C14   C     C_2   0.872355 0.501352 0.483289 -0.144311
C15   C     C_2   0.075296 0.502657 0.606996 -0.127930
C16   C     C_2   0.421322 0.000759 0.407119 -0.118739
C17   C     C_2   0.622007 0.005883 0.518267 -0.157958
C18   C     C_R   0.305897 0.772450 0.915524 -0.128981
C19   C     C_R   0.694007 0.771794 0.082724 -0.133146
C20   C     C_R   0.762243 0.233110 0.929872 -0.131173
C21   C     C_R   0.208544 0.267148 0.098044 -0.127103
C22   C     C_R   0.732556 0.282764 0.940196 -0.074125
C23   C     C_R   0.810342 0.878629 0.909970 -0.111984
C24   C     C_R   0.261769 0.308933 0.096921 -0.080717
C25   C     C_R   0.259544 0.818053 0.917977 -0.065227
C26   C     C_R   0.738703 0.818365 0.080218 -0.064572
C27   C     C_R   0.706343 0.287380 0.010428 0.172797
C28   C     C_R   0.249625 0.321898 0.999206 0.149500
C29   C     C_R   0.258879 0.826854 0.009072 0.160253
C30   C     C_R   0.741063 0.827459 0.990379 0.154722
C31   C     C_R   0.712269 0.243469 0.073754 -0.070680
C32   C     C_R   0.168941 0.303653 0.900447 -0.128726
C33   C     C_R   0.321404 0.797794 0.105286 -0.126815
C34   C     C_R   0.188750 0.876870 0.089953 -0.126020
C35   C     C_R   0.681979 0.797355 0.894919 -0.113406
C36   C     C_R   0.369847 0.753988 0.104290 -0.149758
C37   C     C_R   0.635787 0.752357 0.896102 -0.148932
C38   C     C_R   0.743585 0.193540 0.064642 -0.166933
C39   C     C_R   0.114113 0.263308 0.901157 -0.144666
C40   C     C_R   0.444688 0.651459 0.089116 -0.093107
C41   C     C_R   0.558859 0.650496 0.910466 -0.093006
C42   C     C_R   0.901157 0.125978 0.087575 -0.121450
C43   C     C_R   0.055654 0.152124 0.911952 -0.064588
C44   C     C_R   0.355627 0.738134 0.006828 0.108913
C45   C     C_R   0.381381 0.682575 0.999974 0.033184
C46   C     C_R   0.648161 0.736728 0.992750 0.110988
C47   C     C_R   0.767220 0.188560 0.991651 0.140039
C48   C     C_R   0.141438 0.240276 0.000570 0.109816
C49   C     C_R   0.377528 0.525020 0.454389 -0.076715
C50   C     C_R   0.382533 0.525060 0.366724 -0.119958
C51   C     C_R   0.927811 0.026077 0.478224 -0.092409
C52   C     C_R   0.955198 0.029456 0.410100 -0.129824
C53   C     C_R   0.453253 0.494505 0.373761 0.155102
C54   C     C_R   0.444523 0.495204 0.547230 0.150263
C55   C     C_R   0.035771 0.001131 0.436681 0.169445
C56   C     C_R   0.622684 0.681254 0.999832 0.028057
C57   C     C_R   0.982272 0.995286 0.572801 0.153716
C58   C     C_R   0.516296 0.462286 0.464295 -0.115770
C59   C     C_R   0.511855 0.462643 0.551200 -0.147426
C60   C     C_R   0.087742 0.968179 0.528629 -0.120912
C61   C     C_R   0.061131 0.965516 0.597843 -0.129539
C62   C     C_R   0.488665 0.452974 0.255885 -0.187230
C63   C     C_R   0.460207 0.453441 0.703274 -0.131595
C64   C     C_R   0.044896 0.954729 0.300836 -0.121162
C65   C     C_R   0.965887 0.953006 0.706714 -0.155532
C66   C     C_R   0.233079 0.546804 0.725114 -0.147650
C67   C     C_R   0.814949 0.141110 0.994209 0.019308
C68   C     C_R   0.752955 0.544823 0.303127 -0.155556
C69   C     C_R   0.747644 0.045367 0.697149 -0.188352
C70   C     C_R   0.265484 0.046309 0.283616 -0.131258
C71   C     C_R   0.493317 0.544569 0.262802 0.344506
C72   C     C_R   0.458615 0.544631 0.700787 0.343438
C73   C     C_R   0.045475 0.045609 0.299423 0.289987
C74   C     C_R   0.967625 0.044357 0.705709 0.341104
C75   C     C_R   0.232757 0.455263 0.715161 0.292823
C76   C     C_R   0.747590 0.453683 0.305059 0.298435
C77   C     C_R   0.749361 0.954436 0.695003 0.300778
C78   C     C_R   0.116742 0.183513 0.002369 0.023196
C79   C     C_R   0.263691 0.954861 0.291641 0.287407
C80   C     C_R   0.350194 0.651289 0.908625 -0.097805
C81   C     C_R   0.652075 0.650519 0.091517 -0.091855
C82   C     C_R   0.810833 0.124587 0.904762 -0.118455
C83   C     C_R   0.148766 0.151156 0.092531 -0.086587
C84   C     C_R   0.415297 0.360572 0.091215 0.452435
C85   C     C_R   0.578362 0.355795 0.911171 0.516646
C86   C     C_R   0.906593 0.869112 0.091576 0.504111
C87   C     C_R   0.092850 0.867700 0.908979 0.487815
C88   C     C_R   0.323717 0.350428 0.000699 -0.140262
C89   C     C_R   0.466987 0.497948 0.290677 -0.080642
C90   C     C_R   0.660332 0.336044 0.004994 -0.199837
C91   C     C_R   0.814308 0.860921 0.999406 -0.178837
C92   C     C_R   0.185042 0.859536 0.000900 -0.166175
H1    H     H_    0.256957 0.365751 0.827469 0.165860
H2    H     H_    0.700134 0.761695 0.156278 0.127829
H3    H     H_    0.784718 0.230198 0.876814 0.125026
H4    H     H_    0.226791 0.252707 0.175732 0.131294
H5    H     H_    0.727815 0.317236 0.891862 0.135062
H6    H     H_    0.318096 0.326896 0.173381 0.148236
H7    H     H_    0.217866 0.843306 0.846013 0.148540
H8    H     H_    0.777481 0.844396 0.151082 0.160295
H9    H     H_    0.690323 0.247507 0.127131 0.150878
H10   H     H_    0.152273 0.316005 0.822487 0.139239
H11   H     H_    0.326049 0.804262 0.178805 0.151846
H12   H     H_    0.726399 0.350993 0.178485 0.180600
H13   H     H_    0.679193 0.803893 0.822477 0.152458
H14   H     H_    0.409357 0.729274 0.177337 0.161338
H15   H     H_    0.599609 0.726883 0.824218 0.155250
H16   H     H_    0.750412 0.159280 0.114500 0.130660
H17   H     H_    0.058340 0.246244 0.823570 0.147430
H18   H     H_    0.323241 0.548527 0.450564 0.167655
H19   H     H_    0.333394 0.549358 0.295150 0.148905
H20   H     H_    0.865407 0.047678 0.458072 0.161277
H21   H     H_    0.912543 0.053071 0.335597 0.125349
H22   H     H_    0.571694 0.438986 0.469813 0.164594
H23   H     H_    0.749383 0.878886 0.826700 0.160726
H24   H     H_    0.563663 0.439489 0.623444 0.151361
H25   H     H_    0.148290 0.945196 0.546505 0.144398
H26   H     H_    0.103240 0.941681 0.672129 0.139858
H27   H     H_    0.497444 0.667484 0.168714 0.147810
H28   H     H_    0.509243 0.666403 0.830080 0.156873
H29   H     H_    0.927808 0.136272 0.169956 0.159359
H30   H     H_    0.004812 0.167901 0.831869 0.152000
H31   H     H_    0.484701 0.411206 0.274233 0.188511
H32   H     H_    0.445539 0.412083 0.674189 0.223120
H33   H     H_    0.060939 0.913670 0.332129 0.222627
H34   H     H_    0.249064 0.875135 0.172668 0.157510
H35   H     H_    0.951670 0.911538 0.678056 0.232792
H36   H     H_    0.212773 0.589454 0.709602 0.139947
H37   H     H_    0.764147 0.586794 0.330915 0.137963
H38   H     H_    0.737560 0.087434 0.669725 0.147208
H39   H     H_    0.286101 0.088893 0.301219 0.142623
H40   H     H_    0.309640 0.665463 0.825244 0.113562
H41   H     H_    0.693140 0.664491 0.174957 0.108879
H42   H     H_    0.756388 0.133467 0.820126 0.120822
H43   H     H_    0.187807 0.164328 0.176279 0.116344
H44   H     H_    0.907913 0.417110 0.499966 0.191200
H45   H     H_    0.895886 0.541626 0.520414 0.146789
H46   H     H_    0.062866 0.432513 0.679999 0.149860
H47   H     H_    0.430764 0.939654 0.315193 0.140925
H48   H     H_    0.597134 0.922252 0.471599 0.199024
H49   H     H_    0.619083 0.270065 0.240109 0.385138
H50   H     H_    0.355153 0.311044 0.665688 0.404606
H51   H     H_    0.112324 0.800293 0.322018 0.397212
H52   H     H_    0.893334 0.784551 0.703223 0.399571
H53   H     H_    0.040974 0.534412 0.545047 0.146053
H54   H     H_    0.456576 0.028904 0.475413 0.146411
H55   H     H_    0.592746 0.046883 0.492201 0.146059
H56   H     H_    0.297866 0.762313 0.840988 0.128693
N1    N     N_R   0.395440 0.396300 0.944370 -0.053655
N2    N     N_R   0.474910 0.470990 0.794360 -0.068460
N3    N     N_R   0.025090 0.970990 0.205640 -0.078184
N4    N     N_R   0.974910 0.970990 0.794360 -0.076320
N5    N     N_R   0.320240 0.527820 0.794510 -0.066961
N6    N     N_R   0.679760 0.527820 0.205490 -0.066218
N7    N     N_R   0.820240 0.027820 0.794510 -0.065812
N8    N     N_R   0.179760 0.027820 0.205490 -0.065593
N9    N     N_R   0.524580 0.527810 0.205160 -0.079186
N10   N     N_R   0.475420 0.527810 0.794840 -0.082176
N11   N     N_R   0.024580 0.027810 0.205160 -0.085172
N12   N     N_R   0.604560 0.396300 0.055630 -0.056060
N13   N     N_R   0.975420 0.027810 0.794840 -0.082451
N14   N     N_R   0.320750 0.470990 0.794990 -0.075309
N15   N     N_R   0.679250 0.470990 0.205010 -0.076667
N16   N     N_R   0.820750 0.970990 0.794990 -0.079916
N17   N     N_R   0.179250 0.970990 0.205010 -0.081190
N18   N     N_R   0.393580 0.602500 0.942610 -0.050395
N19   N     N_R   0.606420 0.602500 0.057390 -0.049694
N20   N     N_R   0.893580 0.102500 0.942610 -0.048249
N21   N     N_R   0.106420 0.102500 0.057390 -0.050087
N22   N     N_R   0.451750 0.396300 0.057540 -0.085437
N23   N     N_R   0.895440 0.896300 0.944370 -0.045408
N24   N     N_R   0.548250 0.396300 0.942460 -0.099020
N25   N     N_R   0.951750 0.896300 0.057540 -0.086531
N26   N     N_R   0.048250 0.896300 0.942460 -0.083976
N27   N     N_R   0.104560 0.896300 0.055630 -0.047403
N28   N     N_R   0.449890 0.602500 0.055780 -0.053073
N29   N     N_R   0.550110 0.602500 0.944220 -0.046096
N30   N     N_R   0.949890 0.102500 0.055780 -0.039967
N31   N     N_R   0.050110 0.102500 0.944220 -0.050851
N32   N     N_R   0.525090 0.470990 0.205640 -0.051052
Ni1   Ni    Ni4+2 0.435420 0.434250 0.870220 0.312169
Ni2   Ni    Ni4+2 0.564580 0.434250 0.129780 0.313334
Ni3   Ni    Ni4+2 0.935420 0.934250 0.870220 0.308591
Ni4   Ni    Ni4+2 0.064580 0.934250 0.129780 0.311260
Ni5   Ni    Ni4+2 0.563400 0.564580 0.128670 0.222427
Ni6   Ni    Ni4+2 0.436600 0.564580 0.871330 0.231279
Ni7   Ni    Ni4+2 0.063400 0.064580 0.128670 0.242578
Ni8   Ni    Ni4+2 0.936600 0.064580 0.871330 0.224514
O1    O     O_2   0.506991 0.315911 0.293742 -0.298523
O2    O     O_2   0.043107 0.830476 0.714137 -0.343467
O3    O     O_2   0.076852 0.762548 0.851513 -0.261605
O4    O     O_3   0.919867 0.815134 0.756085 -0.484476
O5    O     O_2   0.434097 0.253314 0.139130 -0.270895
O6    O     O_3   0.586717 0.302918 0.194601 -0.509561
O7    O     O_2   0.532352 0.324021 0.716861 -0.336685
O8    O     O_2   0.513730 0.256538 0.822835 -0.251377
O9    O     O_3   0.391376 0.334621 0.731072 -0.519513
O10   O     O_2   0.950751 0.838548 0.287366 -0.343446
O11   O     O_2   0.931456 0.766180 0.164308 -0.253366
O12   O     O_3   0.082926 0.825500 0.258833 -0.509965
S1    S     S_3+6 0.485427 0.306914 0.183216 -0.018630
S2    S     S_3+6 0.504157 0.316134 0.792741 -0.045733
S3    S     S_3+6 0.966913 0.823444 0.203325 -0.048113
S4    S     S_3+6 0.033963 0.817801 0.804792 -0.042916

loop_
_geom_bond_atom_site_label_1
_geom_bond_atom_site_label_2
_ccdc_geom_bond_type
C69   N7    A    
C32   C39   A    
C51   C52   A    
O1    S1    D    
C70   N8    A    
C51   H20   S    
N31   Ni8   S    
C17   H55   S    
C41   N29   A    
C68   N6    A    
C25   H7    S    
C6    C76   A    
N29   Ni6   S    
C76   N15   A    
C70   H39   S    
N20   Ni8   S    
C86   C91   A    
C64   H33   S    
N8    Ni7   S    
N12   Ni2   S    
C49   C54   A    
C7    C69   A    
C68   H37   S    
C3    C73   A    
C65   N4    A    
C5    C15   S    
O4    S4    S    
C64   N3    A    
C54   C59   A    
C9    H44   S    
C87   S4    S    
O9    S2    S    
C11   C13   S    
C21   C24   A    
C3    C55   S    
N24   Ni1   S    
N22   Ni2   S    
N25   Ni4   S    
C81   H41   S    
C7    C17   S    
N28   Ni5   S    
C75   N14   A    
C82   N20   A    
C84   C88   A    
C80   N18   A    
H52   O4    S    
N32   Ni2   S    
O3    S4    D    
C72   N10   A    
C41   H28   S    
C37   H15   S    
N26   N27   A    
C80   H40   S    
C67   C82   A    
C63   H32   S    
C12   H12   S    
C18   H56   S    
C53   C58   A    
C43   H30   S    
N6    N15   A    
C65   H35   S    
C60   C61   A    
C66   H36   S    
C38   C47   A    
Br3   C73   S    
C8    C79   A    
N4    N13   A    
C58   H22   S    
O7    S2    D    
C86   N25   A    
C23   C91   A    
H51   O12   S    
C27   C90   S    
O2    S4    D    
C62   C89   A    
C62   N32   A    
C7    C77   A    
C47   C67   S    
C2    C63   A    
C36   C44   A    
C50   C53   A    
C58   C59   A    
C74   N13   A    
C36   H14   S    
C86   S3    S    
C8    C16   S    
C41   C56   A    
C24   H6    S    
C4    C65   A    
N27   Ni4   S    
O11   S3    D    
C84   S1    S    
C2    C54   S    
C85   C90   A    
C56   C81   A    
C12   N12   A    
O10   S3    D    
C43   C78   A    
O5    S1    D    
C19   C26   A    
C60   H25   S    
C20   C47   A    
C16   H54   S    
N13   Ni8   S    
C83   H43   S    
N16   Ni3   S    
C40   C45   A    
C79   N17   A    
C62   H31   S    
C19   C46   A    
C77   N16   A    
Br6   C76   S    
C31   H9    S    
C10   C15   D    
N9    N32   A    
C13   H48   S    
H50   O9    S    
N30   Ni7   S    
C28   C32   A    
Br2   C72   S    
C69   H38   S    
C87   C92   A    
N2    Ni1   S    
N18   N28   A    
C40   N28   A    
C2    C72   A    
C3    C64   A    
C32   H10   S    
N12   N24   A    
C11   H47   S    
C21   H4    S    
C23   N23   A    
C6    C68   A    
C27   C31   A    
N5    Ni6   S    
C18   C44   A    
C42   H29   S    
C34   C92   A    
N19   N29   A    
C12   C90   A    
C28   C88   S    
C18   C25   A    
C48   C78   S    
N14   Ni1   S    
C14   H45   S    
C1    N1    A    
C9    C10   S    
C73   N11   A    
C4    C74   A    
N8    N17   A    
C87   N26   A    
C71   N9    A    
N7    N16   A    
C35   C37   A    
C1    C88   A    
C82   H42   S    
C84   N22   A    
C31   C38   A    
N5    N14   A    
C22   C27   A    
C19   H2    S    
C37   C46   A    
N18   Ni6   S    
C15   H53   S    
C22   H5    S    
Br1   C71   S    
C33   C36   A    
C52   C55   A    
N26   Ni3   S    
C81   N19   A    
O6    S1    S    
C42   N30   A    
C24   C28   A    
C44   C45   S    
N2    N10   A    
C63   N2    A    
C13   C17   D    
C55   C60   A    
N21   Ni7   S    
C26   C30   A    
N11   Ni7   S    
N3    Ni4   S    
C71   C89   A    
C53   C89   S    
N10   Ni6   S    
N4    Ni3   S    
C30   C91   S    
C10   H46   S    
N9    Ni5   S    
C61   H26   S    
C66   N5    A    
Br5   C75   S    
N20   N30   A    
C21   C48   A    
C34   N27   A    
C85   N24   A    
C4    C57   S    
C5    C75   A    
N17   Ni4   S    
C9    C14   D    
N21   N31   A    
C38   H16   S    
C78   C83   A    
Br8   C79   S    
C26   H8    S    
C6    C14   S    
C20   C22   A    
C11   C16   D    
C23   H23   S    
C30   C35   A    
C42   C67   A    
C51   C57   A    
C40   H27   S    
N1    Ni1   S    
C20   H3    S    
C49   C50   A    
Br7   C77   S    
C46   C56   S    
N7    Ni8   S    
O12   S3    S    
C57   C61   A    
C83   N21   A    
N6    Ni5   S    
C50   H19   S    
N3    N11   A    
C34   H34   S    
C45   C80   A    
C8    C70   A    
N1    N22   A    
C29   C33   A    
C52   H21   S    
C25   C29   A    
C43   N31   A    
C39   H17   S    
N23   Ni3   S    
C5    C66   A    
N15   Ni2   S    
C1    H1    S    
C33   H11   S    
O8    S2    D    
C85   S2    S    
C39   C48   A    
Br4   C74   S    
H49   O6    S    
N19   Ni5   S    
C29   C92   S    
C35   H13   S    
C49   H18   S    
N23   N25   A    
C59   H24   S    
