data_mof_unit_1799.cif
_audit_creation_date              2012-12-10T17:06:41-0500
_audit_creation_method            fapswitch 2.2
_symmetry_space_group_name_H-M    P1
_symmetry_Int_Tables_number       1
_space_group_crystal_system       triclinic
_cell_length_a                    15.797598
_cell_length_b                    10.971705
_cell_length_c                    9.921447
_cell_angle_alpha                 111.310144
_cell_angle_beta                  96.225031
_cell_angle_gamma                 94.306017
_cell_volume                      1580.41004812

loop_
_atom_site_label
_atom_site_type_symbol
_atom_type_description
_atom_site_fract_x
_atom_site_fract_y
_atom_site_fract_z
_atom_type_partial_charge
C1    C     C_R   0.492175 0.253530 0.439690 0.809015
C2    C     C_R   0.509388 0.747514 0.560829 0.831548
C3    C     C_2   0.528568 0.068225 0.497112 -0.205280
C4    C     C_2   0.520165 0.929821 0.480934 -0.210683
C5    C     C_2   0.521145 0.463520 0.057807 0.122838
C6    C     C_2   0.493408 0.472344 0.910799 0.162682
C7    C     C_R   0.340232 0.499516 0.502332 0.823425
C8    C     C_R   0.659716 0.499825 0.497448 0.829968
C9    C     C_3   0.970890 0.425341 0.572085 -0.157143
C10   C     C_3   0.028574 0.569324 0.424796 -0.158201
C11   C     C_3   0.017704 0.373006 0.436783 -0.159213
C12   C     C_3   0.981795 0.621645 0.560091 -0.160932
C13   C     C_1   0.250737 0.499333 0.507152 -0.185415
C14   C     C_1   0.749033 0.498060 0.491771 -0.191957
C15   C     C_3   0.037613 0.550152 0.638507 -0.157826
C16   C     C_3   0.961832 0.444508 0.358355 -0.163324
C17   C     C_3   0.082846 0.497840 0.503216 0.195302
C18   C     C_3   0.916630 0.496851 0.493693 0.195325
C19   C     C_1   0.174953 0.498702 0.507095 -0.079957
C20   C     C_1   0.824648 0.497094 0.490723 -0.080208
C21   C     C_2   0.483523 0.111382 0.404315 -0.060496
C22   C     C_2   0.522916 0.891432 0.595838 -0.075126
Cu1   Cu    Cu3+1 0.514700 0.521810 0.644910 0.898846
Cu2   Cu    Cu3+1 0.485300 0.478190 0.355090 0.902894
H1    H     H_    0.033969 0.271013 0.386515 0.127113
H2    H     H_    0.965579 0.723663 0.610389 0.126978
H3    H     H_    0.945683 0.366154 0.632319 0.127259
H4    H     H_    0.053765 0.628537 0.364578 0.127426
H5    H     H_    0.929313 0.401176 0.243431 0.130297
H6    H     H_    0.070138 0.593406 0.753439 0.129186
H7    H     H_    0.508101 0.857398 0.370030 0.179449
H8    H     H_    0.571642 0.138514 0.590320 0.152545
H9    H     H_    0.581357 0.627527 0.938028 0.172284
H10   H     H_    0.404725 0.473810 0.113615 0.202001
N1    N     N_2   0.463210 0.445420 0.137360 -0.321373
N2    N     N_2   0.536790 0.554580 0.862640 -0.317553
O1    O     O_R   0.507840 0.332340 0.577400 -0.610950
O2    O     O_R   0.492160 0.667660 0.422600 -0.586452
O3    O     O_R   0.483020 0.295500 0.332650 -0.574567
O4    O     O_R   0.516980 0.704500 0.667350 -0.579306
O5    O     O_R   0.391490 0.518400 0.622350 -0.591653
O6    O     O_R   0.608510 0.481600 0.377650 -0.593885
O7    O     O_R   0.366660 0.481570 0.377600 -0.570845
O8    O     O_R   0.633340 0.518430 0.622400 -0.567312
C23   C     C_3   0.539926 0.995947 0.752101 -0.415527
C24   C     C_3   0.542767 0.948913 0.880437 -0.322707
C25   C     C_3   0.560885 0.065688 0.026434 -0.888698
H11   H     H_    0.623368 0.123380 0.035474 0.255205
H12   H     H_    0.509227 0.130499 0.036924 0.268713
H13   H     H_    0.564564 0.029361 0.117363 0.244497
H14   H     H_    0.480128 0.892817 0.875383 0.236890
H15   H     H_    0.595205 0.886225 0.876980 0.237344
H16   H     H_    0.602773 0.054983 0.765446 0.202673
H17   H     H_    0.488990 0.061806 0.763177 0.208645
C26   C     C_3   0.419350 0.021631 0.273554 -0.398789
C27   C     C_3   0.336494 0.980429 0.322071 -0.332903
C28   C     C_3   0.272480 0.889694 0.190979 -0.859285
H18   H     H_    0.255367 0.940531 0.115134 0.253034
H19   H     H_    0.300223 0.798459 0.131608 0.254562
H20   H     H_    0.213168 0.861910 0.229205 0.239125
H21   H     H_    0.350491 0.928041 0.397372 0.232248
H22   H     H_    0.306765 0.069766 0.381227 0.210704
H23   H     H_    0.402246 0.073603 0.198835 0.211429
H24   H     H_    0.448125 0.933782 0.208129 0.195591
C29   C     C_3   0.431388 0.350738 0.807025 -0.318379
C30   C     C_3   0.353693 0.299963 0.861840 -0.460429
C31   C     C_3   0.296116 0.188852 0.736773 -0.870593
H25   H     H_    0.268999 0.225411 0.652537 0.249768
H26   H     H_    0.333137 0.106123 0.685205 0.253646
H27   H     H_    0.242198 0.151399 0.779990 0.251524
H28   H     H_    0.375157 0.257775 0.944003 0.242381
H29   H     H_    0.314417 0.381029 0.908136 0.225597
H30   H     H_    0.401454 0.367474 0.713539 0.270337
H31   H     H_    0.470079 0.267864 0.769514 0.188342
C32   C     C_3   0.613378 0.440070 0.091680 -0.332971
C33   C     C_3   0.663176 0.391904 0.960523 -0.404054
C34   C     C_3   0.750900 0.357369 0.005893 -0.878240
H32   H     H_    0.789789 0.445386 0.091613 0.256618
H33   H     H_    0.743850 0.277331 0.048712 0.250116
H34   H     H_    0.785451 0.323512 0.909683 0.246671
H35   H     H_    0.626202 0.303179 0.872939 0.221066
H36   H     H_    0.674760 0.469706 0.915921 0.241768
H37   H     H_    0.649326 0.532841 0.173953 0.203727
H38   H     H_    0.611357 0.359972 0.134796 0.243630

loop_
_geom_bond_atom_site_label_1
_geom_bond_atom_site_label_2
_ccdc_geom_bond_type
C26   C27   S    
C1    C21   S    
Cu2   O6    S    
Cu2   O3    S    
C25   H12   S    
C34   H32   S    
C8    O6    A    
C5    C6    S    
C32   H38   S    
C28   H19   S    
C11   H1    S    
C10   C17   S    
Cu1   O4    S    
C24   H15   S    
H9    N2    S    
C29   H30   S    
C27   C28   S    
H10   N1    S    
C6    C29   S    
C30   H29   S    
C30   H28   S    
C26   H23   S    
C2    C22   S    
Cu2   O2    S    
Cu1   Cu2   S    
C7    O7    A    
C1    O1    A    
C30   C31   S    
C23   H16   S    
C25   H13   S    
C34   H33   S    
Cu2   N1    S    
C13   C19   T    
C31   H25   S    
C14   C20   T    
C33   C34   S    
C33   H36   S    
C21   C26   S    
C28   H20   S    
C16   H5    S    
Cu1   O1    S    
C24   H14   S    
C29   H31   S    
C12   H2    S    
C31   H26   S    
C5    C32   S    
C32   C33   S    
C4    C22   D    
C11   C16   S    
C2    O2    A    
C25   H11   S    
C12   C15   S    
C26   H24   S    
C9    C11   S    
C10   C12   S    
C23   H17   S    
C29   C30   S    
C27   H22   S    
C3    C21   D    
C3    C4    S    
C9    H3    S    
C15   H6    S    
C34   H34   S    
C10   H4    S    
C15   C17   S    
C24   C25   S    
C11   C17   S    
C8    C14   S    
C8    O8    A    
C33   H35   S    
C23   C24   S    
Cu1   O5    S    
C31   H27   S    
C9    C15   S    
C10   C16   S    
C32   H37   S    
C28   H18   S    
C5    N1    D    
C17   C19   S    
C6    N2    D    
C18   C20   S    
C7    O5    A    
C3    H8    S    
C4    H7    S    
C1    O3    A    
C2    O4    A    
C9    C18   S    
C7    C13   S    
C22   C23   S    
C16   C18   S    
Cu1   N2    S    
C12   C18   S    
Cu2   O7    S    
C27   H21   S    
Cu1   O8    S    
