data_mof_unit_4080.cif
_audit_creation_date              2012-10-26T19:52:25-0400
_audit_creation_method            fapswitch 2.2
_symmetry_space_group_name_H-M    P1
_symmetry_Int_Tables_number       1
_space_group_crystal_system       triclinic
_cell_length_a                    9.588268
_cell_length_b                    10.848811
_cell_length_c                    13.440877
_cell_angle_alpha                 89.870352
_cell_angle_beta                  73.264106
_cell_angle_gamma                 89.463945
_cell_volume                      1338.85694776

loop_
_atom_site_label
_atom_site_type_symbol
_atom_type_description
_atom_site_fract_x
_atom_site_fract_y
_atom_site_fract_z
_atom_type_partial_charge
C1    C     C_R   0.500719 0.737360 0.496444 0.547186
C2    C     C_R   0.382649 0.440800 0.809630 -0.011896
C3    C     C_R   0.374219 0.937868 0.505092 -0.003716
C4    C     C_R   0.423824 0.477232 0.697466 0.569041
C5    C     C_R   0.503656 0.869995 0.482944 -0.024261
C6    C     C_R   0.636260 0.931834 0.442544 -0.138561
C7    C     C_R   0.639332 0.061326 0.437299 0.042371
C8    C     C_R   0.508577 0.128961 0.481904 -0.009713
C9    C     C_R   0.378336 0.064285 0.511416 -0.024833
C10   C     C_3   0.253272 0.069213 0.608376 -0.122949
C11   C     C_3   0.241587 0.930362 0.596544 -0.129029
C12   C     C_R   0.445212 0.469342 0.972999 0.024283
C13   C     C_R   0.955243 0.431055 0.429483 0.196501
C14   C     C_R   0.893700 0.559359 0.574799 -0.008841
C15   C     C_R   0.041323 0.558971 0.575729 0.093939
C16   C     C_R   0.502825 0.262477 0.495060 0.576445
C17   C     C_R   0.102422 0.430399 0.429969 0.154545
C18   C     C_3   0.153205 0.445465 0.315485 -0.301754
C19   C     C_3   0.996490 0.448181 0.314872 -0.273042
C20   C     C_R   0.577882 0.503625 0.299969 0.552597
C21   C     C_R   0.803083 0.534782 0.018819 -0.089997
C22   C     C_R   0.622139 0.510128 0.185593 0.012853
C23   C     C_R   0.490261 0.445292 0.864810 -0.001131
C24   C     C_R   0.235452 0.415765 0.867770 0.060071
C25   C     C_R   0.194808 0.436580 0.975198 -0.131080
C26   C     C_R   0.295380 0.471965 0.025067 -0.143746
C27   C     C_2   0.778214 0.120898 0.382421 0.595601
C28   C     C_1   0.300543 0.099742 0.700515 0.243387
C29   C     C_1   0.112764 0.896846 0.564037 0.238394
C30   C     C_1   0.073698 0.622867 0.659840 0.251552
C31   C     C_2   0.123501 0.356912 0.825245 0.570977
C32   C     C_1   0.694934 0.335524 0.735608 0.242549
C33   C     C_R   0.551963 0.489262 0.025654 0.033592
C34   C     C_R   0.699287 0.503429 0.968145 0.056102
C35   C     C_R   0.742905 0.472297 0.863216 -0.116128
C36   C     C_R   0.641685 0.426148 0.816912 -0.009252
C37   C     C_R   0.517741 0.487956 0.134045 -0.120580
C38   C     C_R   0.764649 0.538340 0.127254 -0.120546
Cu1   Cu    Cu3+1 0.359330 0.500020 0.500010 1.010024
Cu2   Cu    Cu3+1 0.640670 0.499980 0.499990 1.005455
H1    H     H_    0.846780 0.560131 0.164892 0.112481
H2    H     H_    0.914612 0.552353 0.974534 0.130467
H3    H     H_    0.412299 0.460553 0.179399 0.113143
H4    H     H_    0.252606 0.497494 0.105437 0.105466
H5    H     H_    0.083328 0.425484 0.022354 0.150611
H6    H     H_    0.736811 0.879467 0.414596 0.174843
H7    H     H_    0.996658 0.124065 0.352928 0.331489
H8    H     H_    0.057851 0.301232 0.703107 0.324726
H9    H     H_    0.159611 0.124980 0.599751 0.152426
H10   H     H_    0.257721 0.873113 0.661159 0.148547
H11   H     H_    0.812354 0.609352 0.634021 0.132853
H12   H     H_    0.207099 0.535608 0.292384 0.152867
H13   H     H_    0.212803 0.362074 0.276941 0.130327
H14   H     H_    0.962630 0.539937 0.292716 0.140718
H15   H     H_    0.857413 0.470050 0.820751 0.143470
H16   H     H_    0.968197 0.368884 0.272825 0.185231
N1    N     N_R   0.852320 0.499070 0.499340 -0.243219
N2    N     N_R   0.148230 0.499110 0.499340 -0.239242
N3    N     N_1   0.338664 0.122729 0.772535 -0.259621
N4    N     N_1   0.011480 0.871087 0.538311 -0.256330
N5    N     N_1   0.096786 0.673825 0.728929 -0.325082
N6    N     N_1   0.738407 0.262260 0.671435 -0.257251
O1    O     O_R   0.381190 0.680360 0.500000 -0.497149
O2    O     O_R   0.909240 0.075934 0.394932 -0.680087
O3    O     O_2   0.011374 0.317932 0.885656 -0.535251
O4    O     O_R   0.145818 0.337802 0.719272 -0.675823
O5    O     O_R   0.618780 0.680320 0.499990 -0.505304
O6    O     O_R   0.323230 0.500000 0.650990 -0.440061
O7    O     O_R   0.560820 0.499960 0.650980 -0.522667
O8    O     O_R   0.381220 0.319680 0.500010 -0.487934
O9    O     O_R   0.618810 0.319640 0.500000 -0.457059
O10   O     O_R   0.439180 0.500040 0.349020 -0.522402
O11   O     O_R   0.676770 0.500000 0.349010 -0.494643
O12   O     O_2   0.778649 0.206236 0.322865 -0.526950

loop_
_geom_bond_atom_site_label_1
_geom_bond_atom_site_label_2
_ccdc_geom_bond_type
C19   H16   S    
C31   O4    S    
Cu2   O9    S    
Cu1   O6    S    
C35   C36   A    
C18   H12   S    
C7    C8    A    
C12   C23   A    
C1    C5    S    
C32   C36   S    
C34   C35   A    
C5    C6    A    
C13   N1    A    
C22   C38   A    
C7    C27   S    
Cu2   O11   S    
C18   C19   S    
C18   H13   S    
C21   C38   A    
C8    C9    A    
Cu2   O5    S    
Cu1   O10   S    
C27   O12   D    
C9    C10   S    
C17   N2    A    
C8    C16   S    
C16   O9    A    
C1    O1    A    
C4    O7    A    
C17   C18   S    
Cu2   O7    S    
C13   C19   S    
C26   H4    S    
C16   O8    A    
C24   C25   A    
C38   H1    S    
C27   O2    S    
Cu1   Cu2   S    
C4    O6    A    
C21   C34   A    
C25   C26   A    
C22   C37   A    
C35   H15   S    
C33   C37   A    
C12   C26   A    
C37   H3    S    
C2    C4    S    
C3    C9    A    
C14   H11   S    
C29   N4    T    
C33   C34   A    
C19   H14   S    
C20   C22   S    
C2    C24   A    
C15   N2    A    
C25   H5    S    
H7    O2    S    
C15   C30   S    
C28   N3    T    
C10   C28   S    
C31   O3    D    
C14   N1    A    
Cu2   N1    S    
C6    H6    S    
C3    C5    A    
C6    C7    A    
Cu1   O1    S    
C13   C17   A    
C24   C31   S    
C32   N6    T    
C11   H10   S    
Cu1   N2    S    
C1    O5    A    
Cu1   O8    S    
C20   O11   A    
C3    C11   S    
C10   C11   S    
C21   H2    S    
C11   C29   S    
C23   C36   A    
C30   N5    T    
C2    C23   A    
C14   C15   A    
C20   O10   A    
H8    O4    S    
C12   C33   A    
C10   H9    S    
