data_mof_unit_31.cif
_audit_creation_date              2012-12-11T15:46:43-0500
_audit_creation_method            fapswitch 2.2
_symmetry_space_group_name_H-M    P1
_symmetry_Int_Tables_number       1
_space_group_crystal_system       triclinic
_cell_length_a                    11.593017
_cell_length_b                    11.567817
_cell_length_c                    19.554904
_cell_angle_alpha                 90.563
_cell_angle_beta                  89.979005
_cell_angle_gamma                 59.988534
_cell_volume                      2270.6749448

loop_
_atom_site_label
_atom_site_type_symbol
_atom_type_description
_atom_site_fract_x
_atom_site_fract_y
_atom_site_fract_z
_atom_type_partial_charge
C1    C     C_R   0.640186 0.117250 0.599263 0.541902
C2    C     C_1   0.640745 0.704359 0.668011 0.009468
C3    C     C_1   0.126588 0.198752 0.859302 0.007449
C4    C     C_1   0.171554 0.170416 0.727701 -0.027546
C5    C     C_1   0.150109 0.182299 0.798936 -0.028378
C6    C     C_1   0.195428 0.161066 0.667370 0.008931
C7    C     C_1   0.679254 0.190951 0.860781 0.008298
C8    C     C_1   0.658462 0.167196 0.729043 -0.027546
C9    C     C_1   0.666089 0.180640 0.800358 -0.028355
C10   C     C_1   0.652594 0.149772 0.668645 0.010826
C11   C     C_R   0.681368 0.624929 0.201158 -0.108920
C12   C     C_R   0.612052 0.746564 0.598674 0.542105
C13   C     C_R   0.568089 0.643620 0.234363 0.128258
C14   C     C_R   0.556891 0.654082 0.303450 0.123287
C15   C     C_R   0.786783 0.597417 0.312572 0.194776
C16   C     C_R   0.796381 0.586839 0.240744 -0.124641
C17   C     C_3   0.425183 0.738019 0.220810 0.161425
C18   C     C_3   0.409905 0.751848 0.298084 0.161017
C19   C     C_R   0.658829 0.652761 0.342647 -0.049195
C20   C     C_R   0.128884 0.203142 0.195243 -0.058466
C21   C     C_R   0.129115 0.304474 0.233618 -0.026409
C22   C     C_R   0.153732 0.289752 0.302694 0.056203
C23   C     C_R   0.241234 0.145267 0.598181 0.541465
C24   C     C_R   0.149713 0.084064 0.301409 -0.094051
C25   C     C_R   0.136515 0.091824 0.230122 0.196183
C26   C     C_3   0.207948 0.373544 0.221967 0.482472
C27   C     C_3   0.240942 0.351913 0.297846 0.516384
C28   C     C_R   0.172152 0.175820 0.337186 -0.079192
C29   C     C_R   0.670342 0.189590 0.194446 -0.019752
C30   C     C_R   0.730620 0.060684 0.220652 -0.181576
C31   C     C_R   0.730852 0.041582 0.289872 -0.067967
C32   C     C_R   0.601704 0.277706 0.310721 0.427660
C33   C     C_R   0.597753 0.298015 0.239935 0.424032
C34   C     C_R   0.647456 0.114211 0.404111 0.588559
C35   C     C_3   0.867815 0.942565 0.211056 -0.163946
C36   C     C_3   0.870054 0.925815 0.287803 0.623490
C37   C     C_R   0.671276 0.147468 0.336253 0.005897
C38   C     C_R   0.081596 0.231220 0.928612 0.543582
C39   C     C_R   0.684234 0.603867 0.929471 0.536997
C40   C     C_R   0.708845 0.206686 0.930114 0.542006
C41   C     C_R   0.082102 0.235934 0.125487 0.554862
C42   C     C_R   0.687731 0.601488 0.128531 0.543757
C43   C     C_R   0.708456 0.212045 0.127226 0.580172
C44   C     C_R   0.619196 0.732408 0.405007 0.513854
C45   C     C_R   0.241701 0.142338 0.402269 0.539181
C46   C     C_1   0.670750 0.645959 0.860107 0.006714
C47   C     C_1   0.654477 0.683855 0.728419 -0.027775
C48   C     C_1   0.663552 0.666414 0.799684 -0.028688
Cr1   Cr    Cr6+3 0.404720 0.198220 0.499960 1.127464
Cr2   Cr    Cr6+3 0.698290 0.897110 0.500380 1.094462
Cr3   Cr    Cr6+3 0.396970 0.904720 0.499610 1.076153
Cr4   Cr    Cr6+3 0.926290 0.152010 0.028150 1.040245
Cr5   Cr    Cr6+3 0.921440 0.451830 0.027490 1.069759
Cr6   Cr    Cr6+3 0.626370 0.446880 0.028730 1.116766
H1    H     H_    0.942388 0.968361 0.193493 0.232316
H2    H     H_    0.866426 0.860746 0.181385 0.116927
H3    H     H_    0.891672 0.552088 0.216289 0.226584
H4    H     H_    0.408509 0.829026 0.193569 0.047048
H5    H     H_    0.381358 0.853160 0.317427 0.069783
H6    H     H_    0.157705 0.998428 0.327376 0.201486
O1    O     O_R   0.267750 0.231960 0.575440 -0.502115
O2    O     O_R   0.685950 0.784660 0.430010 -0.483891
O3    O     O_R   0.502510 0.767000 0.423980 -0.483169
O4    O     O_R   0.288320 0.026340 0.429250 -0.513531
O5    O     O_3   0.499990 0.000020 0.499980 -0.295661
O6    O     O_R   0.821590 0.119350 0.952850 -0.506263
O7    O     O_R   0.037230 0.162540 0.957390 -0.499326
O8    O     O_R   0.056530 0.344750 0.951370 -0.498400
O9    O     O_R   0.798000 0.560370 0.957490 -0.496732
O10   O     O_R   0.596230 0.579400 0.952760 -0.507168
O11   O     O_R   0.639160 0.321170 0.958690 -0.496110
O12   O     O_R   0.527290 0.186640 0.570530 -0.495702
O13   O     O_R   0.821370 0.124220 0.104400 -0.528974
O14   O     O_R   0.037020 0.167050 0.097880 -0.494925
O15   O     O_R   0.056310 0.349620 0.102920 -0.459840
O16   O     O_R   0.797790 0.564880 0.097980 -0.510262
O17   O     O_R   0.596000 0.584270 0.104310 -0.437964
O18   O     O_R   0.638950 0.325690 0.099180 -0.420038
O19   O     O_3   0.824700 0.350240 0.028120 -0.284275
O20   O     O_R   0.728110 0.003450 0.576380 -0.501269
O21   O     O_R   0.682980 0.789190 0.570500 -0.498379
O22   O     O_R   0.499300 0.771880 0.575540 -0.494011
O23   O     O_R   0.285350 0.030870 0.569740 -0.492569
O24   O     O_R   0.270960 0.227070 0.423890 -0.434754
O25   O     O_R   0.530270 0.182120 0.430040 -0.425826
O26   O     O_R   0.731320 0.998570 0.424830 -0.463027
O27   O     O_3   0.899975 0.563409 0.349913 -0.593787
H7    H     H_    0.880567 0.558240 0.398772 0.344558
O28   O     O_3   0.317859 0.307156 0.176866 -0.645177
H8    H     H_    0.355361 0.209311 0.180304 0.278488
O29   O     O_3   0.375675 0.262571 0.311454 -0.653716
H9    H     H_    0.400602 0.172675 0.293067 0.257449
O30   O     O_3   0.190420 0.469929 0.336822 -0.546431
H10   H     H_    0.249751 0.506919 0.327651 0.401049
F1    F     F_    0.533928 0.383836 0.353653 -0.552307
F2    F     F_    0.528569 0.423714 0.216452 -0.532575
O31   O     O_3   0.880709 0.805148 0.307868 -0.553252
H11   H     H_    0.801098 0.804575 0.290015 0.293800
F3    F     F_    0.960360 0.951579 0.320971 -0.601255
O32   O     O_3   0.363603 0.672453 0.190622 -0.554020
H12   H     H_    0.266928 0.737534 0.189950 0.346005
O33   O     O_3   0.335376 0.697991 0.325510 -0.567815
H13   H     H_    0.240547 0.765668 0.318360 0.359928
O34   O     O_3   0.139896 0.985383 0.196519 -0.725283
H14   H     H_    0.187471 0.971932 0.152503 0.326400
O35   O     O_3   0.125997 0.507907 0.204635 -0.632244
H15   H     H_    0.184500 0.547669 0.203131 0.376564

loop_
_geom_bond_atom_site_label_1
_geom_bond_atom_site_label_2
_ccdc_geom_bond_type
C43   O13   A    
C21   C26   S    
O30   H10   S    
C40   O11   A    
C34   C37   S    
C14   C18   S    
C35   C36   S    
O27   H7    S    
C2    C12   S    
C26   O35   S    
O31   H11   S    
C43   O18   A    
C15   C19   A    
C26   C27   S    
Cr1   O5    S    
C30   C35   S    
Cr1   O24   S    
Cr5   O19   S    
Cr4   O14   S    
C18   O33   S    
C30   C31   A    
O35   H15   S    
C15   C16   A    
C29   C33   A    
C11   C42   S    
Cr3   O5    S    
Cr5   O8    S    
C41   O14   A    
Cr6   O11   S    
C3    C38   S    
C8    C9    S    
Cr1   O12   S    
C7    C40   S    
C27   O29   S    
C36   O31   S    
Cr4   O19   S    
C17   H4    S    
Cr6   O17   S    
Cr5   O9    S    
C40   O6    A    
C21   C22   A    
C29   C43   S    
Cr5   O15   S    
O34   H14   S    
Cr2   O5    S    
C20   C41   S    
C44   O3    A    
C46   C48   T    
C28   C45   S    
C1    O12   A    
Cr1   O1    S    
Cr3   O4    S    
C35   H1    S    
Cr1   O25   S    
Cr3   O3    S    
C24   C25   A    
C4    C6    T    
Cr4   O13   S    
O29   H9    S    
C44   O2    A    
C31   C37   A    
C26   O28   S    
C34   O25   A    
C29   C30   A    
C41   O15   A    
C11   C16   A    
C47   C48   S    
Cr6   O10   S    
C24   H6    S    
C17   C18   S    
C39   O9    A    
C12   O22   A    
C32   C37   A    
C20   C21   A    
Cr3   O22   S    
Cr4   O7    S    
C23   O23   A    
C39   C46   S    
C38   O8    A    
C22   C27   S    
Cr2   O2    S    
C27   O30   S    
Cr5   O16   S    
C33   F2    S    
Cr3   O23   S    
Cr4   O6    S    
C19   C44   S    
C15   O27   S    
Cr6   O19   S    
C7    C9    T    
C35   H2    S    
C14   C19   A    
C1    C10   S    
C24   C28   A    
C4    C5    S    
C3    C5    T    
Cr2   O20   S    
C25   O34   S    
C13   C17   S    
C2    C47   T    
C45   O4    A    
C42   O16   A    
C34   O26   A    
C32   C33   A    
C11   C13   A    
C6    C23   S    
O32   H12   S    
C39   O10   A    
C12   O21   A    
C36   F3    S    
C16   H3    S    
O33   H13   S    
C17   O32   S    
Cr2   O26   S    
C45   O24   A    
C18   H5    S    
C23   O1    A    
C32   F1    S    
C38   O7    A    
C42   O17   A    
C8    C10   T    
C20   C25   A    
C1    O20   A    
C31   C36   S    
C22   C28   A    
O28   H8    S    
C13   C14   A    
Cr2   O21   S    
Cr6   O18   S    
