data_mof_unit_236.cif
_audit_creation_date              2013-03-05T16:09:48-0500
_audit_creation_method            fapswitch 2.2
_symmetry_space_group_name_H-M    P1
_symmetry_Int_Tables_number       1
_space_group_crystal_system       triclinic
_cell_length_a                    8.170351
_cell_length_b                    15.122239
_cell_length_c                    26.941878
_cell_angle_alpha                 98.949672
_cell_angle_beta                  92.613995
_cell_angle_gamma                 80.948223
_cell_volume                      3246.53819191

loop_
_atom_site_label
_atom_site_type_symbol
_atom_site_description
_atom_site_fract_x
_atom_site_fract_y
_atom_site_fract_z
_atom_type_partial_charge
P1    P     P_3+3 0.071950 0.575820 0.612140 0.496384
O1    O     O_2   0.906480 0.548660 0.619050 -0.359381
O2    O     O_3   0.138490 0.548590 0.558870 -0.401059
O3    O     O_3   0.686300 0.382310 0.585700 -0.381504
O4    O     O_2   0.850288 0.426413 0.670544 -0.404969
O5    O     O_3   0.036788 0.694044 0.628398 -0.540166
O6    O     O_3   0.676090 0.297237 0.672678 -0.500053
H1    H     H_    0.811389 0.234095 0.609529 0.162724
C1    C     C_3   0.754907 0.136052 0.652414 -0.015584
H2    H     H_    0.786639 0.080616 0.620512 0.099221
H3    H     H_    0.866910 0.139453 0.677228 0.160278
P2    P     P_3+3 0.664370 0.290050 0.457240 0.458691
P3    P     P_3+3 0.145798 0.219916 0.560951 0.421280
O7    O     O_2   0.844040 0.276390 0.471470 -0.382822
O8    O     O_3   0.101510 0.335500 0.560330 -0.390107
O9    O     O_2   0.007426 0.176214 0.529936 -0.404458
O10   O     O_3   0.663206 0.261104 0.391825 -0.573415
O11   O     O_3   0.123786 0.199647 0.622299 -0.541981
C2    C     C_3   0.195959 0.264249 0.655729 0.373886
H4    H     H_    0.137982 0.334064 0.651368 0.125150
H5    H     H_    0.331319 0.256635 0.649722 0.098993
C3    C     C_3   0.167605 0.251083 0.709252 -0.732178
H6    H     H_    0.032658 0.259218 0.716039 0.250188
H7    H     H_    0.226848 0.182576 0.715951 0.294392
C4    C     C_3   0.217141 0.265811 0.413003 0.439521
H8    H     H_    0.338162 0.286992 0.424222 0.093852
H9    H     H_    0.131809 0.284541 0.445075 0.131849
C5    C     C_3   0.240287 0.163394 0.398042 -0.994989
H10   H     H_    0.331502 0.142303 0.367505 0.274723
H11   H     H_    0.286097 0.129199 0.430578 0.220116
H12   H     H_    0.120093 0.141637 0.384742 0.258870
Ba1   Ba    Ba6+2 0.860050 0.456430 0.522530 1.554889
C6    C     C_3   0.984603 0.736034 0.586406 0.251272
H13   H     H_    0.853864 0.729208 0.578013 0.097401
H14   H     H_    0.059073 0.706529 0.552792 0.110476
C7    C     C_3   0.003411 0.836149 0.598378 -0.137012
H15   H     H_    0.970815 0.869846 0.564736 0.072280
H16   H     H_    0.135179 0.841382 0.608670 0.135378
C8    C     C_3   0.713594 0.329245 0.369502 0.418127
H17   H     H_    0.824274 0.352767 0.389026 0.108136
H18   H     H_    0.610532 0.386679 0.370160 0.101117
C9    C     C_3   0.757192 0.290162 0.315321 -0.948396
H19   H     H_    0.854324 0.229665 0.314511 0.276712
H20   H     H_    0.805371 0.340313 0.296383 0.224522
H21   H     H_    0.645407 0.270141 0.294284 0.262120
P4    P     P_3+3 0.117760 0.424110 0.387850 0.477993
O12   O     O_2   0.283210 0.451310 0.380920 -0.364768
O13   O     O_3   0.051220 0.451340 0.441120 -0.408774
O14   O     O_3   0.503410 0.617620 0.414290 -0.386035
O15   O     O_3   0.153096 0.306075 0.371521 -0.556850
P5    P     P_3+3 0.052496 0.781161 0.438533 0.435195
O16   O     O_3   0.617150 0.609960 0.527100 -0.380815
O17   O     O_3   0.088210 0.664420 0.439670 -0.357323
O18   O     O_2   0.192347 0.822013 0.470216 -0.409739
O19   O     O_3   0.088005 0.797019 0.377289 -0.508593
Ba2   Ba    Ba6+2 0.329780 0.543490 0.477460 1.556973
P6    P     P_3+3 0.680274 0.400801 0.651281 0.487014
C10   C     C_3   0.706930 0.225875 0.632392 0.200325
H22   H     H_    0.594534 0.222987 0.607953 0.053339
O20   O     O_3   0.572560 0.389960 0.472890 -0.388719
C11   C     C_3   0.480587 0.686490 0.632019 0.386645
H23   H     H_    0.366552 0.664842 0.613360 0.098014
H24   H     H_    0.581158 0.627558 0.630311 0.095490
C12   C     C_3   0.441854 0.723796 0.686686 -0.834977
H25   H     H_    0.347380 0.785646 0.688798 0.286562
H26   H     H_    0.391932 0.673172 0.704913 0.204553
H27   H     H_    0.556147 0.741047 0.707328 0.272355
P7    P     P_3+3 0.532417 0.723783 0.544469 0.448045
O21   O     O_2   0.345660 0.723580 0.528500 -0.394082
O22   O     O_3   0.532873 0.754610 0.609756 -0.522446
H28   H     H_    0.221477 0.302710 0.735912 0.236832
C13   C     C_3   0.947212 0.781145 0.347594 0.366307
H29   H     H_    0.913587 0.713445 0.350189 0.092791
H30   H     H_    0.842160 0.835364 0.359299 0.053521
C14   C     C_3   0.982940 0.784043 0.293086 -0.842031
H31   H     H_    0.080385 0.726807 0.279078 0.273240
H32   H     H_    0.868203 0.778831 0.269890 0.254639
H33   H     H_    0.025593 0.848984 0.289615 0.242883
P8    P     P_3+3 0.506863 0.602674 0.348667 0.487268
C15   C     C_3   0.505998 0.775158 0.370448 0.516465
H34   H     H_    0.630759 0.763623 0.388316 -0.013560
O23   O     O_2   0.340657 0.571549 0.329662 -0.373150
O24   O     O_3   0.493961 0.708454 0.328493 -0.507043
H35   H     H_    0.410311 0.775070 0.398339 0.171350
H36   H     H_    0.495780 0.920775 0.386367 0.223002
C16   C     C_3   0.478154 0.868068 0.353778 -0.988596
H37   H     H_    0.349910 0.882672 0.338430 0.285626
H38   H     H_    0.567041 0.870485 0.324239 0.259133
C17   C     C_R   0.035810 0.430594 0.177826 0.528604
O25   O     O_2   0.082583 0.364026 0.198227 -0.590512
N1    N     N_R   0.937876 0.505212 0.203812 -0.163226
C18   C     C_R   0.880839 0.579393 0.179795 0.526230
C19   C     C_2   0.732825 0.525716 0.270399 -0.163716
C20   C     C_3   0.688408 0.519360 0.323735 0.136040
C21   C     C_1   0.982678 0.482689 0.342607 0.303330
C22   C     C_2   0.024141 0.480791 0.295111 -0.180221
C23   C     C_2   0.893524 0.505112 0.255938 0.112454
C24   C     C_R   0.021650 0.504629 0.102755 -0.068821
C25   C     C_R   0.080207 0.429864 0.127455 -0.059510
C26   C     C_R   0.179980 0.355099 0.101019 -0.082722
C27   C     C_R   0.920430 0.579578 0.129148 -0.053465
C28   C     C_2   0.837371 0.525174 0.358800 -0.469686
H39   H     H_    0.152564 0.461582 0.284328 0.182379
H40   H     H_    0.224592 0.295724 0.118510 0.172398
C29   C     C_2   0.355480 0.480653 0.640862 -0.477298
C30   C     C_R   0.221181 0.432157 0.975999 -0.023847
C31   C     C_R   0.034954 0.576219 0.974787 0.058862
C32   C     C_R   0.149140 0.503657 0.949941 0.104622
C33   C     C_R   0.345329 0.366379 0.951714 -0.317639
C34   C     C_R   0.392839 0.366206 0.902368 0.591959
C35   C     C_R   0.309829 0.432828 0.873937 -0.259310
C36   C     C_R   0.191597 0.502851 0.898681 -0.093460
C37   C     C_R   0.115938 0.572935 0.872366 -0.025982
C38   C     C_R   0.157161 0.573060 0.821984 0.538385
N2    N     N_R   0.266430 0.502925 0.796944 -0.171643
C39   C     C_R   0.339717 0.432661 0.821991 0.581719
C40   C     C_2   0.465546 0.488205 0.729176 -0.147898
C41   C     C_3   0.505905 0.489839 0.674836 0.166174
C42   C     C_1   0.209292 0.519855 0.657635 0.279511
C43   C     C_2   0.170755 0.520753 0.705239 -0.199154
C44   C     C_2   0.305595 0.503236 0.744304 0.082166
O26   O     O_2   0.427622 0.368799 0.798459 -0.494630
C45   C     C_R   0.171477 0.429849 0.026071 0.083021
C46   C     C_R   0.063976 0.504370 0.051610 0.086535
C47   C     C_R   0.998430 0.578648 0.026533 0.041295
C48   C     C_R   0.224309 0.354848 0.051621 -0.186883
H41   H     H_    0.566889 0.479722 0.756354 0.172382
H42   H     H_    0.413178 0.315429 0.971535 0.198121
H43   H     H_    0.297015 0.293218 0.034036 0.143633
O27   O     O_2   0.796160 0.645792 0.202580 -0.600349
C49   C     C_R   0.861417 0.653708 0.104487 -0.078872
H44   H     H_    0.634018 0.539605 0.243072 0.165377
H45   H     H_    0.784839 0.712942 0.123858 0.168385
C50   C     C_R   0.960407 0.644036 0.946724 -0.199612
C51   C     C_R   0.000308 0.642410 0.896937 -0.073181
O28   O     O_2   0.096839 0.636533 0.800583 -0.573394
C52   C     C_R   0.898972 0.653350 0.054494 -0.199947
H46   H     H_    0.867498 0.699091 0.961820 0.133322
H47   H     H_    0.938789 0.696479 0.877526 0.177185
H48   H     H_    0.042016 0.533482 0.716017 0.192072
H49   H     H_    0.850288 0.714061 0.039200 0.131620
H50   H     H_    0.825933 0.564011 0.396272 0.170517
H51   H     H_    0.367415 0.443163 0.603056 0.172478
C53   C     C_R   0.847786 0.831632 0.465262 0.142072
C54   C     C_R   0.781793 0.924812 0.469728 -0.004622
C55   C     C_R   0.646659 0.112206 0.480749 -0.028687
C56   C     C_R   0.789633 0.077273 0.452391 -0.066385
C57   C     C_R   0.857871 0.985890 0.447960 -0.211821
C58   C     C_R   0.580196 0.205955 0.488120 0.269131
H52   H     H_    0.852202 0.119639 0.433408 0.168137
H53   H     H_    0.969598 0.963562 0.426598 0.169957
C59   C     C_R   0.435971 0.235801 0.515538 -0.546473
C60   C     C_R   0.617453 0.804363 0.511957 0.241466
C61   C     C_R   0.551863 0.897056 0.518027 -0.007656
C62   C     C_R   0.633158 0.957527 0.496425 0.022259
C63   C     C_R   0.407269 0.930925 0.545258 -0.025466
C64   C     C_R   0.339870 0.021478 0.549792 -0.093614
C65   C     C_R   0.417770 0.082787 0.528906 -0.021543
C66   C     C_R   0.566680 0.051062 0.502342 -0.005794
C67   C     C_R   0.350584 0.175038 0.533892 0.192751
C68   C     C_R   0.761216 0.772727 0.484838 -0.541216
H54   H     H_    0.227031 0.042456 0.570644 0.178395
H55   H     H_    0.342408 0.888152 0.563147 0.151488
H56   H     H_    0.384265 0.306895 0.520072 0.181422
H57   H     H_    0.811066 0.701450 0.481368 0.178117
N3    N     N_R   0.897583 0.882226 0.639666 0.282381
O29   O     O_R   0.963249 0.916245 0.681823 -0.323174
O30   O     O_R   0.737375 0.895549 0.633283 -0.337337
N4    N     N_R   0.619512 0.116050 0.680168 0.294183
O31   O     O_R   0.633772 0.117312 0.728544 -0.248701
O32   O     O_R   0.491011 0.088280 0.656118 -0.384855
S1    S     S_3+6 0.564653 0.283557 0.880261 0.029011
O33   O     O_2   0.505516 0.214294 0.840098 -0.181906
O34   O     O_2   0.691219 0.328716 0.858997 -0.245655
O35   O     O_3   0.655266 0.230438 0.927146 -0.552869
H58   H     H_    0.750194 0.187838 0.911553 0.388674

loop_
_geom_bond_atom_site_label_1
_geom_bond_atom_site_label_2
_geom_bond_distance
_ccdc_geom_bond_type
C11   O22   1.399116 S    
N3    O30   1.300305 A    
C59   C67   1.396454 A    
C19   C20   1.518978 S    
N2    C44   1.468933 S    
C53   C68   1.396560 A    
C21   C22   1.333445 D    
N4    O32   1.300186 A    
N4    O31   1.300675 A    
C1    N4    1.457901 S    
C2    H4    1.108597 S    
C57   H53   1.081219 S    
C15   H35   1.109078 S    
C38   N2    1.382531 Am   
C45   C46   1.420301 A    
C8    H18   1.109128 S    
P5    C53   1.853565 S    
C43   C44   1.510211 S    
C4    C5    1.522333 S    
C24   C46   1.435186 A    
C64   C65   1.400694 A    
C39   O26   1.217880 D    
P3    O11   1.749364 S    
C17   C25   1.418578 A    
C26   C48   1.394421 A    
C5    H10   1.110639 S    
C2    H5    1.110408 S    
O11   C2    1.404413 S    
C31   C50   1.413171 A    
C15   O24   1.403992 S    
O10   C8    1.393525 S    
C16   H38   1.110057 S    
N2    C39   1.388867 Am   
C26   H40   1.083562 S    
C6    C7    1.528548 S    
O1    Ba1   2.792751 S    
P1    O1    1.500858 D    
P1    C42   1.837463 S    
C11   H24   1.109858 S    
C40   C44   1.360860 D    
C4    O15   1.397036 S    
Ba1   O16   2.797789 S    
C15   C16   1.521182 S    
H1    C10   1.108347 S    
C34   C35   1.428082 A    
P4    C21   1.842344 S    
C56   C57   1.395388 A    
C63   H55   1.076861 S    
P7    O21   1.566716 D    
C30   C45   1.433570 A    
C7    H15   1.109559 S    
C31   C32   1.424376 A    
C35   C39   1.431132 A    
C43   H48   1.083748 S    
C17   N1    1.387404 Am   
C19   H44   1.085548 S    
C1    H2    1.111978 S    
P3    C67   1.841632 S    
C61   C63   1.402855 A    
O19   C13   1.401486 S    
O16   P7    1.750712 S    
S1    O35   1.682915 S    
P6    C41   1.859668 S    
P2    Ba1   3.407771 S    
C65   C67   1.404629 A    
Ba1   O13   2.734664 S    
C11   H23   1.109058 S    
C9    H20   1.105948 S    
C13   C14   1.518836 S    
C36   C37   1.412677 A    
S1    O34   1.503947 D    
C8    C9    1.523078 S    
P4    O13   1.530283 S    
C55   C56   1.410323 A    
C62   C66   1.420245 A    
P1    O5    1.754098 S    
C12   H27   1.110622 S    
O8    Ba1   2.744886 S    
C2    C3    1.518897 S    
C31   C47   1.432692 A    
P8    C20   1.864999 S    
C13   H30   1.109600 S    
P7    C60   1.840891 S    
C58   C59   1.395082 A    
C17   O25   1.222074 D    
N1    C18   1.388556 Am   
C16   H37   1.110727 S    
C13   H29   1.114006 S    
C45   C48   1.417141 A    
C55   C66   1.418642 A    
C48   H43   1.077051 S    
C47   C52   1.416384 A    
C10   H22   1.107817 S    
H36   C16   1.110753 S    
P1    Ba1   3.366273 S    
C32   C36   1.436976 A    
C60   C68   1.391072 A    
P1    O2    1.530281 S    
C9    H21   1.110620 S    
C54   C62   1.420138 A    
P2    O10   1.748559 S    
C11   C12   1.521670 S    
C18   O27   1.221509 D    
C14   H31   1.111047 S    
C29   H51   1.086465 S    
C49   C52   1.394023 A    
C55   C58   1.422737 A    
C14   H32   1.109071 S    
O2    Ba2   2.735229 S    
C33   H42   1.073654 S    
C25   C26   1.400890 A    
C22   C23   1.510814 S    
C56   H52   1.078050 S    
C7    N3    1.458604 S    
C6    H13   1.099189 S    
O3    Ba1   2.735448 S    
N1    C23   1.466572 S    
C40   H41   1.085681 S    
C20   C28   1.511445 S    
C61   C62   1.417070 A    
C59   H56   1.081736 S    
C18   C27   1.417140 A    
C27   C49   1.401078 A    
O12   Ba2   2.793122 S    
P2    O7    1.490795 D    
Ba2   O21   2.873014 S    
C1    H3    1.111446 S    
C65   C66   1.418289 A    
C3    H7    1.110191 S    
C29   C41   1.509684 S    
C22   H39   1.084147 S    
C9    H19   1.110920 S    
Ba1   O20   2.890400 S    
C7    H16   1.111277 S    
O14   Ba2   2.734940 S    
C19   C23   1.361224 D    
C3    H28   1.106348 S    
C8    H17   1.104792 S    
C54   C57   1.402095 A    
O14   P8    1.748131 S    
S1    O33   1.503438 D    
C37   C38   1.413720 A    
O17   Ba2   2.745303 S    
O13   Ba2   2.906977 S    
C52   H49   1.076446 S    
P4    O12   1.501079 D    
C63   C64   1.382089 A    
O6    C10   1.407517 S    
C35   C36   1.419903 A    
P2    C58   1.854447 S    
C5    H12   1.110821 S    
O7    Ba1   2.872709 S    
C15   H34   1.107536 S    
C49   H45   1.083599 S    
C50   H46   1.076457 S    
P8    O23   1.546115 D    
C42   C43   1.332048 D    
C21   C28   1.316283 D    
C50   C51   1.390386 A    
C4    H9    1.108878 S    
C24   C27   1.407878 A    
P4    O15   1.751586 S    
O5    C6    1.399726 S    
O4    P6    1.545917 D    
C53   C54   1.415920 A    
P5    O18   1.544334 D    
C12   H25   1.110924 S    
P3    O8    1.730854 S    
C4    H8    1.101787 S    
O35   H58   0.990628 S    
C33   C34   1.401393 A    
P8    O24   1.754302 S    
N3    O29   1.300760 A    
C30   C32   1.416568 A    
C5    H11   1.107274 S    
C6    H14   1.108409 S    
Ba1   Ba2   4.522081 S    
C51   H47   1.083716 S    
P5    O19   1.747268 S    
O2    Ba1   2.906236 S    
C14   H33   1.110790 S    
P2    O20   1.580254 S    
Ba2   O20   2.797221 S    
C1    C10   1.526706 S    
P7    O22   1.748152 S    
C24   C25   1.408841 A    
C37   C51   1.401034 A    
P3    O9    1.546040 D    
P4    Ba2   3.366752 S    
C38   O28   1.222336 D    
C3    H6    1.110376 S    
C29   C42   1.313518 D    
C28   H50   1.086157 S    
P5    O17   1.748312 S    
C60   C61   1.406793 A    
C40   C41   1.520057 S    
C64   H54   1.079806 S    
O6    P6    1.756649 S    
C68   H57   1.081851 S    
O16   Ba2   2.889572 S    
O3    P6    1.747086 S    
C12   H26   1.107721 S    
C46   C47   1.420822 A    
C30   C33   1.409595 A    
C34   S1    1.783266 S    
