data_mof_unit_117.cif
_audit_creation_date              2012-12-10T17:49:37-0500
_audit_creation_method            fapswitch 2.2
_symmetry_space_group_name_H-M    P1
_symmetry_Int_Tables_number       1
_space_group_crystal_system       triclinic
_cell_length_a                    14.742911
_cell_length_b                    14.739199
_cell_length_c                    15.878139
_cell_angle_alpha                 76.708897
_cell_angle_beta                  102.892775
_cell_angle_gamma                 114.833664
_cell_volume                      3015.92610335

loop_
_atom_site_label
_atom_site_type_symbol
_atom_type_description
_atom_site_fract_x
_atom_site_fract_y
_atom_site_fract_z
_atom_type_partial_charge
C1    C     C_R   0.880369 0.312360 0.514751 0.796365
C2    C     C_3   0.006727 0.401608 0.071068 -0.369960
C3    C     C_3   0.000324 0.500172 0.082806 0.320419
C4    C     C_3   0.091809 0.591612 0.048150 -0.377062
C5    C     C_3   0.091467 0.591639 0.950455 -0.372964
C6    C     C_1   0.000585 0.500127 0.175070 -0.110431
C7    C     C_1   0.999491 0.500204 0.824887 -0.112607
C8    C     C_1   0.999501 0.500137 0.749310 -0.176594
C9    C     C_R   0.812647 0.204824 0.524694 -0.052832
C10   C     C_R   0.187291 0.794816 0.482629 -0.056487
C11   C     C_R   0.783642 0.027275 0.550428 -0.192752
C12   C     C_R   0.999827 0.499997 0.659674 0.830714
C13   C     C_R   0.850133 0.128378 0.543621 -0.194002
C14   C     C_R   0.708389 0.179024 0.514531 -0.253736
C15   C     C_R   0.639794 0.077612 0.523717 0.088413
C16   C     C_R   0.679060 0.001419 0.539681 0.162316
C17   C     C_R   0.533517 0.050101 0.515224 0.065574
C18   C     C_R   0.467425 0.946643 0.514754 0.065847
C19   C     C_R   0.510086 0.873047 0.531381 -0.223217
C20   C     C_R   0.613773 0.900186 0.544313 -0.226980
C21   C     C_R   0.491297 0.122256 0.508925 -0.221186
C22   C     C_R   0.387702 0.094995 0.497970 -0.227241
C23   C     C_R   0.119596 0.687603 0.485867 0.788522
C24   C     C_R   0.322016 0.995257 0.492273 0.157062
C25   C     C_R   0.360905 0.920124 0.499722 0.089243
C26   C     C_R   0.217372 0.969702 0.479962 -0.194792
C27   C     C_R   0.150352 0.869859 0.475964 -0.169725
C28   C     C_R   0.291436 0.820918 0.491534 -0.248479
C29   C     C_R   0.718284 0.677132 0.367653 -0.276887
C30   C     C_R   0.798609 0.646198 0.384126 0.188849
C31   C     C_R   0.713129 0.505635 0.486409 -0.010810
C32   C     C_R   0.628915 0.534520 0.471087 -0.017092
C33   C     C_R   0.634647 0.622880 0.410588 0.114765
C34   C     C_R   0.000185 0.500031 0.340325 0.823289
C35   C     C_R   0.540341 0.480884 0.513598 0.086625
C36   C     C_R   0.460481 0.517634 0.493660 0.078267
C37   C     C_R   0.472662 0.607688 0.434250 -0.235213
C38   C     C_R   0.557622 0.658529 0.393345 -0.192543
C39   C     C_R   0.528704 0.392365 0.575267 -0.242068
C40   C     C_R   0.443019 0.342116 0.616674 -0.206714
C41   C     C_R   0.364777 0.376806 0.597247 0.164221
C42   C     C_R   0.371341 0.463924 0.534526 -0.020953
C43   C     C_R   0.279138 0.324352 0.639547 -0.323520
C44   C     C_R   0.199856 0.357214 0.618413 0.080004
C45   C     C_3   0.006378 0.401628 0.973378 -0.376229
C46   C     C_R   0.286908 0.492280 0.514678 0.007109
C47   C     C_3   0.901744 0.507348 0.929548 -0.374227
C48   C     C_3   0.902086 0.507328 0.027242 -0.373770
C49   C     C_1   0.000567 0.500067 0.250670 -0.175483
C50   C     C_3   0.999746 0.500212 0.917140 0.322138
Cu1   Cu    Cu3+1 0.081750 0.475690 0.522550 0.937632
Cu2   Cu    Cu3+1 0.918250 0.524310 0.477450 0.929880
H1    H     H_    0.941626 0.334634 0.095389 0.166371
H2    H     H_    0.076362 0.394749 0.965723 0.165131
H3    H     H_    0.076881 0.394734 0.110264 0.166635
H4    H     H_    0.088900 0.663535 0.055715 0.164645
H5    H     H_    0.643022 0.841248 0.557119 0.151436
H6    H     H_    0.316249 0.762044 0.491323 0.144952
H7    H     H_    0.070011 0.851267 0.468913 0.178268
H8    H     H_    0.358811 0.152736 0.493839 0.152580
H9    H     H_    0.813963 0.969162 0.563540 0.136948
H10   H     H_    0.930515 0.146651 0.551850 0.153494
H11   H     H_    0.682332 0.239827 0.496994 0.150172
H12   H     H_    0.941108 0.334665 0.950846 0.163764
H13   H     H_    0.465789 0.792931 0.537310 0.145097
H14   H     H_    0.536165 0.200544 0.514787 0.140771
H15   H     H_    0.187420 0.026835 0.474746 0.139738
H16   H     H_    0.563346 0.727373 0.347851 0.144391
H17   H     H_    0.283065 0.554288 0.464881 0.121576
H18   H     H_    0.133257 0.315980 0.650358 0.125034
H19   H     H_    0.437619 0.274733 0.664050 0.143484
H20   H     H_    0.720901 0.744369 0.320822 0.179337
H21   H     H_    0.715903 0.441143 0.533553 0.129422
H22   H     H_    0.895247 0.577759 0.889869 0.165374
H23   H     H_    0.418314 0.642224 0.418305 0.128475
H24   H     H_    0.585030 0.360109 0.593326 0.128806
H25   H     H_    0.273103 0.257777 0.688096 0.136939
H26   H     H_    0.834586 0.442300 0.906213 0.163660
H27   H     H_    0.835083 0.442271 0.050762 0.165121
H28   H     H_    0.895746 0.577729 0.034422 0.165869
H29   H     H_    0.162995 0.588211 0.942385 0.165141
H30   H     H_    0.088396 0.663576 0.911162 0.163707
H31   H     H_    0.163495 0.588163 0.086937 0.164476
N1    N     N_R   0.795410 0.560790 0.443550 -0.216853
N2    N     N_R   0.204590 0.439170 0.556520 -0.176935
O1    O     O_R   0.977910 0.338120 0.529720 -0.590597
O2    O     O_R   0.839850 0.379180 0.491640 -0.590229
O3    O     O_R   0.069060 0.479460 0.639610 -0.575806
O4    O     O_R   0.931000 0.520530 0.601530 -0.574891
O5    O     O_R   0.160150 0.620820 0.508360 -0.588329
O6    O     O_R   0.022090 0.661880 0.470280 -0.604505
O7    O     O_R   0.069000 0.479470 0.398470 -0.571541
O8    O     O_R   0.930940 0.520540 0.360390 -0.605637
C51   C     C_2   0.885586 0.710056 0.336098 0.349556
H32   H     H_    0.935376 0.680648 0.322820 0.126887
O9    O     O_2   0.902459 0.799338 0.308702 -0.582634

loop_
_geom_bond_atom_site_label_1
_geom_bond_atom_site_label_2
_ccdc_geom_bond_type
C10   C27   A    
C1    O2    A    
C40   H19   S    
C21   H14   S    
C41   C42   A    
C36   C42   A    
C19   C20   A    
C34   O8    A    
C9    C14   A    
C3    C6    S    
Cu1   N2    S    
C7    C8    T    
C25   C28   A    
C26   C27   A    
C29   C30   A    
C26   H15   S    
C48   H27   S    
C36   C37   A    
C24   C26   A    
C2    H3    S    
Cu1   O5    S    
C22   H8    S    
C31   H21   S    
C15   C16   A    
C29   C33   A    
C3    C48   S    
C18   C19   A    
C42   C46   A    
Cu2   N1    S    
C9    C13   A    
C46   H17   S    
C13   H10   S    
C31   C32   A    
C44   H18   S    
C8    C12   S    
C29   H20   S    
C37   H23   S    
C21   C22   A    
C4    H4    S    
C41   C43   A    
Cu2   O4    S    
C18   C25   A    
Cu1   O1    S    
C47   C50   S    
C2    C45   S    
C12   O3    A    
Cu1   Cu2   S    
C32   C35   A    
C12   O4    A    
C1    C9    S    
C24   C25   A    
C47   H22   S    
C39   C40   A    
C17   C21   A    
C31   N1    A    
C35   C36   A    
C35   C39   A    
C43   C44   A    
C37   C38   A    
Cu1   O7    S    
C5    H29   S    
C11   C16   A    
C47   C48   S    
C16   C20   A    
C17   C18   A    
C23   O5    A    
Cu2   O8    S    
C39   H24   S    
C51   O9    D    
C40   C41   A    
C38   H16   S    
C45   H2    S    
C23   O6    A    
C5    C50   S    
C3    C4    S    
C10   C28   A    
C1    O1    A    
C15   C17   A    
C34   C49   S    
Cu2   O2    S    
C7    C50   S    
C4    C5    S    
C11   H9    S    
C2    H1    S    
Cu1   O3    S    
C28   H6    S    
C10   C23   S    
C43   H25   S    
C45   H12   S    
C33   C38   A    
C32   C33   A    
C46   N2    A    
C2    C3    S    
C30   C51   S    
C27   H7    S    
C5    H30   S    
C11   C13   A    
C48   H28   S    
C4    H31   S    
C45   C50   S    
C14   H11   S    
C19   H13   S    
C22   C24   A    
C6    C49   T    
C30   N1    A    
C51   H32   S    
C34   O7    A    
C14   C15   A    
Cu2   O6    S    
C47   H26   S    
C20   H5    S    
C44   N2    A    
