data_mof_unit_2917.cif
_audit_creation_date              2012-12-10T19:01:20-0500
_audit_creation_method            fapswitch 2.2
_symmetry_space_group_name_H-M    P1
_symmetry_Int_Tables_number       1
_space_group_crystal_system       triclinic
_cell_length_a                    9.579718
_cell_length_b                    10.856706
_cell_length_c                    15.331573
_cell_angle_alpha                 87.895471
_cell_angle_beta                  74.841148
_cell_angle_gamma                 90.10233
_cell_volume                      1537.9193653

loop_
_atom_site_label
_atom_site_type_symbol
_atom_type_description
_atom_site_fract_x
_atom_site_fract_y
_atom_site_fract_z
_atom_type_partial_charge
C1    C     C_R   0.999380 0.262623 0.501169 0.782061
C2    C     C_R   0.659511 0.429197 0.899563 0.111761
C3    C     C_R   0.739763 0.346041 0.940831 0.044395
C4    C     C_R   0.511260 0.451594 0.943165 0.080164
C5    C     C_R   0.451551 0.403357 0.032598 0.102496
C6    C     C_R   0.525571 0.307538 0.064518 -0.089021
C7    C     C_R   0.667817 0.282040 0.021383 -0.187015
C8    C     C_R   0.418816 0.516347 0.899818 -0.156015
C9    C     C_R   0.275639 0.536639 0.944809 -0.152934
C10   C     C_R   0.223899 0.504364 0.036607 0.120309
C11   C     C_R   0.314897 0.446260 0.084281 0.068659
C12   C     C_R   0.918747 0.493722 0.672915 0.794529
C13   C     C_R   0.079792 0.525655 0.079853 -0.126087
C14   C     C_R   0.025582 0.501855 0.172787 -0.025844
C15   C     C_R   0.267766 0.439271 0.181071 -0.069947
C16   C     C_R   0.128789 0.065998 0.475768 -0.019687
C17   C     C_R   0.998896 0.129647 0.500228 -0.080387
C18   C     C_R   0.867831 0.063108 0.523954 -0.132724
C19   C     C_R   0.868564 0.934821 0.528516 -0.099500
C20   C     C_R   0.999506 0.870969 0.505619 -0.060259
C21   C     C_R   0.129515 0.938399 0.479290 0.054633
C22   C     C_3   0.259330 0.937218 0.517681 -0.279466
C23   C     C_R   0.999177 0.737398 0.503184 0.812994
C24   C     C_3   0.259146 0.077528 0.511363 -0.168178
C25   C     C_R   0.603041 0.545271 0.426743 0.157089
C26   C     C_R   0.544263 0.437558 0.566708 0.081206
C27   C     C_R   0.395796 0.440918 0.566666 -0.018624
C28   C     C_R   0.457606 0.538844 0.424803 0.311631
C29   C     C_3   0.464628 0.658101 0.373633 -0.509830
C30   C     C_3   0.619340 0.671621 0.381201 -0.231478
C31   C     C_R   0.081049 0.490914 0.327126 0.783238
C32   C     C_R   0.872856 0.462763 0.771786 -0.170956
C33   C     C_R   0.123750 0.474630 0.226341 -0.229806
C34   C     C_R   0.889415 0.328595 0.900923 -0.038533
C35   C     C_R   0.956390 0.388855 0.816647 -0.067555
C36   C     C_R   0.729638 0.487800 0.816406 -0.198694
Cu1   Cu    Cu3+1 0.140670 0.499980 0.500000 0.953344
Cu2   Cu    Cu3+1 0.859330 0.500020 0.500000 0.946667
H1    H     H_    0.007721 0.556922 0.039733 0.178167
H2    H     H_    0.766896 0.885886 0.553164 0.153716
H3    H     H_    0.205830 0.580995 0.907994 0.132832
N1    N     N_R   0.648210 0.500930 0.499430 -0.249574
N2    N     N_R   0.352300 0.500890 0.499430 -0.227725
O1    O     O_R   0.118810 0.319640 0.500000 -0.575564
O2    O     O_R   0.881230 0.319680 0.499990 -0.602146
O3    O     O_R   0.055580 0.499970 0.629840 -0.600213
O4    O     O_R   0.818000 0.500010 0.629830 -0.603147
O5    O     O_R   0.118770 0.680320 0.500010 -0.589863
O6    O     O_R   0.881190 0.680360 0.500000 -0.581297
O7    O     O_R   0.182000 0.499990 0.370170 -0.569369
O8    O     O_R   0.944420 0.500030 0.370160 -0.589440
H4    H     H_    0.720005 0.212196 0.053257 0.130156
H5    H     H_    0.765077 0.109762 0.543136 0.169376
C37   C     C_2   0.230039 0.883305 0.612949 0.442292
H6    H     H_    0.299583 0.811431 0.628183 0.047340
O9    O     O_2   0.128887 0.918417 0.673018 -0.521275
H7    H     H_    0.356448 0.898297 0.471802 0.121845
H8    H     H_    0.236977 0.123467 0.577312 0.225923
C38   C     C_2   0.386581 0.130951 0.440538 0.408566
H9    H     H_    0.406568 0.105066 0.370617 0.076586
O10   O     O_2   0.469648 0.202499 0.461319 -0.552879
C39   C     C_2   0.580839 0.359010 0.638468 0.409001
H10   H     H_    0.684101 0.315000 0.628116 0.122409
O11   O     O_2   0.492437 0.339473 0.711121 -0.556358
H11   H     H_    0.316000 0.390541 0.617884 0.183641
H12   H     H_    0.458488 0.646696 0.303145 0.251128
C40   C     C_2   0.369596 0.402613 0.235519 0.356090
H13   H     H_    0.336194 0.335302 0.291339 0.081022
O12   O     O_2   0.490451 0.448594 0.219274 -0.521816
H14   H     H_    0.385310 0.723716 0.410668 0.188510
H15   H     H_    0.700599 0.676783 0.314771 0.220413
C41   C     C_2   0.630871 0.775072 0.440794 0.415481
H16   H     H_    0.589779 0.763919 0.513702 0.047362
O13   O     O_2   0.679246 0.874791 0.406814 -0.545897
C42   C     C_2   0.865916 0.500373 0.209208 0.384028
H17   H     H_    0.814046 0.443957 0.268539 0.118787
O14   O     O_2   0.789015 0.557254 0.169947 -0.522661
C43   C     C_2   0.975485 0.246945 0.946948 0.438380
H18   H     H_    0.934493 0.156536 0.974211 0.064653
O15   O     O_2   0.092892 0.280412 0.955229 -0.523166
C44   C     C_2   0.112021 0.371570 0.774687 0.479236
H19   H     H_    0.182115 0.451827 0.754283 0.054974
O16   O     O_2   0.162300 0.268351 0.762743 -0.490860
H20   H     H_    0.674004 0.552725 0.783034 0.149232
H21   H     H_    0.473917 0.249949 0.123079 0.128651
H22   H     H_    0.450926 0.546080 0.829531 0.150817

loop_
_geom_bond_atom_site_label_1
_geom_bond_atom_site_label_2
_ccdc_geom_bond_type
C16   C21   A    
C19   C20   A    
C4    C8    A    
C14   C33   A    
C30   H15   S    
C35   C44   S    
C22   C37   S    
Cu2   O6    S    
C25   C28   A    
C26   C27   A    
Cu1   Cu2   S    
C6    H21   S    
C32   C36   A    
C28   C29   S    
C7    H4    S    
C5    C11   A    
C3    C7    A    
C5    C6    A    
C43   O15   D    
C23   O6    A    
C34   C35   A    
Cu2   O2    S    
C39   O11   D    
C18   H5    S    
C11   C15   A    
C8    C9    A    
C31   C33   S    
C9    C10   A    
C38   H9    S    
C16   C24   S    
C13   C14   A    
C12   C32   S    
C22   H7    S    
C12   O4    A    
C44   O16   D    
C44   H19   S    
C37   O9    D    
C38   O10   D    
C40   H13   S    
C32   C35   A    
C41   O13   D    
C19   H2    S    
C43   H18   S    
C18   C19   A    
Cu2   O8    S    
C3    C34   A    
C40   O12   D    
Cu1   N2    S    
C2    C4    A    
C42   H17   S    
C29   C30   S    
C27   H11   S    
C1    O1    A    
C20   C23   S    
C15   C40   S    
C39   H10   S    
C17   C18   A    
Cu1   O5    S    
C42   O14   D    
Cu2   O4    S    
C12   O3    A    
C22   C24   S    
C31   O7    A    
C26   N1    A    
C29   H14   S    
C2    C36   A    
C25   C30   S    
C37   H6    S    
C23   O5    A    
C1    C17   S    
C31   O8    A    
C41   H16   S    
C10   C13   A    
C25   N1    A    
C30   C41   S    
Cu2   N1    S    
C6    C7    A    
C28   N2    A    
C9    H3    S    
C14   C42   S    
Cu1   O1    S    
C2    C3    A    
C26   C39   S    
C34   C43   S    
Cu1   O7    S    
C1    O2    A    
C16   C17   A    
C36   H20   S    
C24   C38   S    
C8    H22   S    
C13   H1    S    
C10   C11   A    
C29   H12   S    
C27   N2    A    
C4    C5    A    
C20   C21   A    
C24   H8    S    
Cu1   O3    S    
C21   C22   S    
C15   C33   A    
