data_mof_unit_2669.cif
_audit_creation_date              2012-12-11T16:34:32-0500
_audit_creation_method            fapswitch 2.2
_symmetry_space_group_name_H-M    P1
_symmetry_Int_Tables_number       1
_space_group_crystal_system       triclinic
_cell_length_a                    8.460874
_cell_length_b                    17.123927
_cell_length_c                    26.8768
_cell_angle_alpha                 93.876659
_cell_angle_beta                  92.085851
_cell_angle_gamma                 84.277086
_cell_volume                      3864.0026668

loop_
_atom_site_label
_atom_site_type_symbol
_atom_type_description
_atom_site_fract_x
_atom_site_fract_y
_atom_site_fract_z
_atom_type_partial_charge
Ba1   Ba    Ba6+2 0.856110 0.463800 0.523550 1.750004
Ba2   Ba    Ba6+2 0.333710 0.536130 0.476450 1.814682
C1    C     C_3   0.753825 0.180620 0.673655 -0.243598
C2    C     C_R   0.865316 0.572390 0.173736 0.691366
C3    C     C_2   0.749330 0.558122 0.276946 -0.103683
C4    C     C_3   0.151909 0.294490 0.663999 0.318070
C5    C     C_3   0.746088 0.596831 0.329802 -0.106602
C6    C     C_1   0.983425 0.503279 0.347749 -0.006822
C7    C     C_2   0.019649 0.503993 0.299528 -0.048166
C8    C     C_2   0.892524 0.524966 0.259813 0.223805
C9    C     C_R   0.987752 0.498675 0.102000 -0.120163
C10   C     C_R   0.056939 0.442900 0.134749 -0.026563
C11   C     C_R   0.159530 0.379570 0.115340 0.004290
C12   C     C_3   0.686833 0.256642 0.650595 0.285724
C13   C     C_R   0.887734 0.563998 0.121357 -0.134042
C14   C     C_2   0.856147 0.548351 0.365148 -0.279459
C15   C     C_2   0.345114 0.476727 0.640260 -0.296655
C16   C     C_3   0.127135 0.273026 0.717240 0.354094
C17   C     C_R   0.177243 0.424873 0.980234 0.036993
C18   C     C_R   0.970786 0.532899 0.964492 -0.035393
C19   C     C_R   0.097846 0.478684 0.947348 0.017358
C20   C     C_R   0.299506 0.370281 0.960601 -0.072669
C21   C     C_R   0.339870 0.368087 0.910592 -0.002690
C22   C     C_R   0.263377 0.421541 0.878066 0.001311
C23   C     C_3   0.508433 0.645634 0.626512 0.309034
C24   C     C_R   0.143676 0.477400 0.896607 -0.080166
C25   C     C_R   0.068252 0.531547 0.864262 -0.087291
C26   C     C_R   0.122881 0.533899 0.815257 0.648400
C27   C     C_R   0.301614 0.418701 0.827063 0.617619
C28   C     C_3   0.175897 0.269777 0.364289 0.889970
C29   C     C_2   0.425718 0.445930 0.727409 -0.047979
C30   C     C_3   0.447630 0.422783 0.672649 -0.070254
C31   C     C_1   0.205003 0.508089 0.656210 0.031695
C32   C     C_2   0.159209 0.501377 0.702652 -0.119020
C33   C     C_2   0.278599 0.474426 0.742962 0.170100
C34   C     C_3   0.527297 0.660751 0.682703 -0.286332
C35   C     C_R   0.132463 0.427857 0.031325 0.041065
C36   C     C_R   0.021294 0.489664 0.049887 0.061361
C37   C     C_R   0.946508 0.543799 0.016856 -0.009625
C38   C     C_R   0.197385 0.372422 0.065033 -0.082247
C39   C     C_R   0.820678 0.620476 0.087665 0.414758
C40   C     C_3   0.082934 0.197432 0.350905 -0.271972
C41   C     C_R   0.874182 0.573771 0.927965 0.377048
C42   C     C_R   0.932359 0.578632 0.880298 -0.056573
C43   C     C_R   0.859142 0.611202 0.037438 -0.031996
C44   C     C_R   0.437927 0.283655 0.535933 -0.231311
C45   C     C_3   0.079617 0.738996 0.341242 0.288105
C46   C     C_R   0.566190 0.258309 0.504850 0.162617
C47   C     C_R   0.620006 0.178607 0.500742 -0.058865
C48   C     C_R   0.535556 0.123571 0.521874 -0.020050
C49   C     C_R   0.392543 0.148278 0.545969 -0.041818
C50   C     C_R   0.340441 0.228738 0.551645 0.011978
C51   C     C_R   0.595592 0.837212 0.509273 -0.096183
C52   C     C_3   0.988146 0.701853 0.581374 0.322947
C53   C     C_R   0.640478 0.757247 0.502017 0.046351
C54   C     C_R   0.873050 0.783786 0.457640 -0.106749
C55   C     C_R   0.831500 0.866364 0.466440 0.320864
C56   C     C_3   0.156210 0.769523 0.296988 0.358677
C57   C     C_R   0.688502 0.891983 0.491789 -0.065446
C58   C     C_1   0.635490 0.973541 0.503574 0.203418
C59   C     C_1   0.587939 0.041496 0.512954 0.165230
C60   C     C_R   0.773814 0.730790 0.474297 -0.316196
C61   C     C_3   0.938536 0.788094 0.596948 0.287740
C62   C     C_3   0.707046 0.347774 0.366362 0.198929
C63   C     C_3   0.769128 0.297475 0.318783 0.210262
C64   C     C_1   0.607024 0.415040 0.351112 0.356969
C65   C     C_1   0.665878 0.114489 0.654946 0.311943
C66   C     C_1   0.606193 0.558528 0.245520 0.471418
C67   C     C_3   0.606493 0.782923 0.340073 0.178764
C68   C     C_3   0.519565 0.859848 0.321495 0.595581
C69   C     C_R   0.022801 0.451111 0.186256 0.684059
H1    H     H_    0.712558 0.251526 0.610131 0.017413
H2    H     H_    0.880245 0.166222 0.664384 0.158759
H3    H     H_    0.890019 0.312071 0.313589 0.041423
H4    H     H_    0.771321 0.234425 0.325969 0.094021
H5    H     H_    0.556054 0.263855 0.655351 0.006467
H6    H     H_    0.381403 0.639472 0.617044 0.035597
H7    H     H_    0.581844 0.589970 0.615779 0.042332
H8    H     H_    0.456772 0.716355 0.695079 0.190687
H9    H     H_    0.484973 0.611633 0.701843 0.063636
H10   H     H_    0.654426 0.665166 0.693245 0.130539
H11   H     H_    0.745698 0.187673 0.714863 0.138834
H12   H     H_    0.029043 0.196352 0.312874 0.090241
H13   H     H_    0.156924 0.322222 0.743713 -0.006879
H14   H     H_    0.100067 0.673707 0.339682 0.022824
H15   H     H_    0.950635 0.757630 0.339987 -0.015593
H16   H     H_    0.282721 0.746806 0.296871 0.047300
H17   H     H_    0.144001 0.834846 0.299936 0.116706
H18   H     H_    0.655445 0.747771 0.306801 0.045670
H19   H     H_    0.705662 0.798215 0.365700 -0.007154
H20   H     H_    0.089367 0.353878 0.659493 -0.016356
H21   H     H_    0.420438 0.845035 0.296184 -0.001058
H22   H     H_    0.143028 0.494705 0.289109 0.164290
H23   H     H_    0.163311 0.141944 0.351693 0.189707
H24   H     H_    0.213349 0.335259 0.139322 0.170307
H25   H     H_    0.522867 0.430909 0.753513 0.144099
H26   H     H_    0.433688 0.324583 0.897600 0.139325
H27   H     H_    0.368105 0.328697 0.983097 0.087234
H28   H     H_    0.277023 0.321902 0.053581 0.092053
H29   H     H_    0.281014 0.295803 0.658682 -0.063271
H30   H     H_    0.861989 0.613873 0.853962 0.168891
H31   H     H_    0.033970 0.510486 0.710703 0.144811
H32   H     H_    0.822368 0.658824 0.014188 0.182637
H33   H     H_    0.842194 0.559568 0.404985 0.080226
H34   H     H_    0.987176 0.194480 0.377757 0.106090
H35   H     H_    0.376303 0.478140 0.601549 0.070010
H36   H     H_    0.492181 0.856991 0.531073 0.150818
H37   H     H_    0.319005 0.105295 0.558093 0.131210
H38   H     H_    0.720889 0.159272 0.477894 0.131234
H39   H     H_    0.398969 0.345733 0.540916 0.060705
H40   H     H_    0.001231 0.264012 0.722353 0.051802
H41   H     H_    0.809977 0.668349 0.470361 0.051501
H42   H     H_    0.082151 0.808533 0.696567 0.347787
H43   H     H_    0.693831 0.183347 0.235118 0.354114
H44   H     H_    0.101199 0.759433 0.162161 0.387416
H45   H     H_    0.880208 0.673930 0.568187 -0.098436
H46   H     H_    0.708887 0.896923 0.206488 0.401401
H47   H     H_    0.670661 0.960214 0.391017 0.355589
H48   H     H_    0.529036 0.789320 0.065613 0.383578
H49   H     H_    0.478075 0.569278 0.979109 0.373505
H50   H     H_    0.963785 0.060395 0.443530 0.391637
H51   H     H_    0.493148 0.162195 0.757976 0.371180
H52   H     H_    0.254809 0.189053 0.252162 0.370669
H53   H     H_    0.210838 0.341691 0.472359 0.333293
H54   H     H_    0.072409 0.698122 0.550513 0.051991
H55   H     H_    0.847559 0.791707 0.625998 0.032860
H56   H     H_    0.885694 0.818353 0.564478 -0.071612
H57   H     H_    0.805605 0.371737 0.388048 -0.048091
N1    N     N_R   0.924799 0.514778 0.205669 -0.433296
N2    N     N_R   0.236107 0.476414 0.795935 -0.424335
N3    N     N_1   0.530202 0.468135 0.336465 -0.209687
N4    N     N_1   0.596727 0.062139 0.640423 -0.214369
N5    N     N_1   0.492335 0.558540 0.220283 -0.158212
O1    O     O_2   0.910880 0.540430 0.617910 -0.455354
O2    O     O_2   0.187220 0.770682 0.477488 -0.364399
O3    O     O_3   0.151282 0.772404 0.384159 -0.516835
O4    O     O_3   0.142880 0.540370 0.557740 -0.496637
O5    O     O_3   0.562610 0.408580 0.475460 -0.462676
O6    O     O_2   0.365880 0.685750 0.523280 -0.428642
O7    O     O_3   0.558262 0.709186 0.602869 -0.618605
O8    O     O_2   0.401472 0.615005 0.322564 -0.479693
O9    O     O_3   0.503149 0.741872 0.366608 -0.575077
O10   O     O_2   0.081188 0.401303 0.213701 -0.483971
O11   O     O_2   0.390528 0.363346 0.810379 -0.556577
O12   O     O_3   0.625279 0.301890 0.396705 -0.540237
O13   O     O_2   0.797776 0.633189 0.191437 -0.455353
O14   O     O_2   0.069809 0.587846 0.790101 -0.575263
O15   O     O_3   0.675650 0.402220 0.588450 -0.495200
O16   O     O_2   0.754137 0.473920 0.676142 -0.486573
O17   O     O_3   0.059885 0.665053 0.622484 -0.610591
O18   O     O_3   0.758323 0.320701 0.674367 -0.590090
O19   O     O_2   0.823810 0.314230 0.476690 -0.483866
O20   O     O_3   0.086630 0.363340 0.564170 -0.502035
O21   O     O_2   0.011082 0.221522 0.535225 -0.421891
O22   O     O_2   0.231839 0.830228 0.583255 -0.242877
O23   O     O_3   0.087832 0.239867 0.629593 -0.587495
O24   O     O_2   0.047924 0.925102 0.629682 -0.230452
O25   O     O_3   0.174083 0.803047 0.674381 -0.471632
O26   O     O_2   0.568316 0.377464 0.249693 -0.233983
O27   O     O_2   0.823236 0.316200 0.222275 -0.260021
O28   O     O_3   0.605753 0.226010 0.234584 -0.388571
O29   O     O_2   0.118275 0.650634 0.230328 -0.322231
O30   O     O_2   0.894795 0.754038 0.241192 -0.208302
O31   O     O_3   0.140566 0.785674 0.193519 -0.441710
O32   O     O_2   0.581316 0.994341 0.281560 -0.202287
O33   O     O_2   0.811418 0.903906 0.304702 -0.282443
O34   O     O_2   0.278810 0.459550 0.382060 -0.420670
O35   O     O_3   0.641112 0.866546 0.225632 -0.425249
O36   O     O_2   0.289814 0.971104 0.350742 -0.192302
O37   O     O_2   0.393846 0.882169 0.414063 -0.232231
O38   O     O_3   0.565658 0.991072 0.390863 -0.426161
O39   O     O_2   0.549235 0.676807 0.132696 -0.220239
O40   O     O_2   0.765911 0.762679 0.135706 -0.201325
O41   O     O_3   0.603708 0.744833 0.052872 -0.469720
O42   O     O_2   0.634478 0.687287 0.942948 -0.229868
O43   O     O_2   0.582281 0.575082 0.885900 -0.293842
O44   O     O_3   0.594214 0.554239 0.980500 -0.516258
O45   O     O_3   0.046820 0.459570 0.442260 -0.478596
O46   O     O_2   0.109269 0.928743 0.482628 -0.199457
O47   O     O_2   0.007724 0.917075 0.396240 -0.222443
O48   O     O_3   0.881192 0.028919 0.454747 -0.544950
O49   O     O_2   0.190265 0.157868 0.779786 -0.245643
O50   O     O_2   0.242387 0.123231 0.691429 -0.237118
O51   O     O_3   0.437229 0.208560 0.742553 -0.518402
O52   O     O_2   0.318763 0.362278 0.304389 -0.247645
O53   O     O_2   0.452575 0.231690 0.318037 -0.226783
O54   O     O_3   0.207497 0.244065 0.257966 -0.455400
O55   O     O_2   0.181506 0.199353 0.450504 -0.355879
O56   O     O_3   0.514050 0.597710 0.411540 -0.439659
O57   O     O_2   0.433216 0.196177 0.409742 -0.251204
O58   O     O_3   0.304073 0.331318 0.450839 -0.579938
O59   O     O_3   0.067254 0.336838 0.375262 -0.703814
O60   O     O_3   0.627090 0.591350 0.524530 -0.498209
O61   O     O_3   0.103080 0.636600 0.435820 -0.513389
P1    P     P_3+3 0.078810 0.562990 0.610370 1.010413
P2    P     P_3+3 0.645380 0.325580 0.462150 1.133891
P3    P     P_3+3 0.133157 0.262462 0.569612 1.031418
P4    P     P_3+3 0.110900 0.436950 0.389630 1.104901
P5    P     P_3+3 0.071880 0.739995 0.437016 1.079210
P6    P     P_3+3 0.658720 0.407237 0.653252 0.952853
P7    P     P_3+3 0.547583 0.688207 0.538234 1.012697
P8    P     P_3+3 0.544488 0.639304 0.355750 0.979332
S1    S     S_3+6 0.102447 0.839247 0.620573 0.004988
S2    S     S_3+6 0.295079 0.278568 0.311175 0.026208
S3    S     S_3+6 0.279840 0.245476 0.419953 -0.080355
S4    S     S_3+6 0.688069 0.307864 0.255582 0.009132
S5    S     S_3+6 0.071751 0.737224 0.239254 -0.026113
S6    S     S_3+6 0.643887 0.909268 0.283766 0.000195
S7    S     S_3+6 0.437267 0.926169 0.370877 0.037895
S8    S     S_3+6 0.682211 0.702772 0.104139 0.022308
S9    S     S_3+6 0.666315 0.599657 0.933835 -0.062678
S10   S     S_3+6 0.962295 0.935320 0.449502 -0.015650
S11   S     S_3+6 0.249125 0.186484 0.732833 -0.026769

loop_
_geom_bond_atom_site_label_1
_geom_bond_atom_site_label_2
_ccdc_geom_bond_type
O50   S11   D    
C19   C24   A    
O4    P1    S    
C20   H27   S    
C7    H22   S    
C62   O12   S    
C6    P4    S    
O23   P3    S    
Ba2   O56   S    
H49   O44   S    
C56   H16   S    
C38   H28   S    
C51   C57   A    
C52   O17   S    
C10   C11   A    
O37   S7    D    
C24   C25   A    
C32   H31   S    
C61   S1    S    
C11   H24   S    
O48   S10   S    
C23   H6    S    
Ba2   O6    S    
C45   H14   S    
O52   S2    D    
H50   O48   S    
C66   N5    T    
C17   C19   A    
C22   C24   A    
C32   C33   S    
C5    P8    S    
O39   S8    D    
O7    P7    S    
H48   O41   S    
O2    P5    D    
C36   C37   A    
C45   O3    S    
C67   H18   S    
C55   C57   A    
O20   P3    S    
C52   C61   S    
H46   O35   S    
C68   S6    S    
C29   H25   S    
C53   P7    S    
C53   C60   A    
C44   C50   A    
O60   P7    S    
C54   C55   A    
Ba1   O19   S    
Ba1   Ba2   S    
O58   S3    S    
H44   O31   S    
O47   S10   D    
C22   C27   A    
O3    P5    S    
O12   P2    S    
C17   C35   A    
C9    C13   A    
C25   C42   A    
C14   H33   S    
C29   C30   S    
C6    C7    D    
C62   H57   S    
C52   H45   S    
C12   O18   S    
O49   S11   D    
C16   H13   S    
C21   C22   A    
O35   S6    S    
O24   S1    D    
C42   H30   S    
O42   S9    D    
H42   O25   S    
C43   H32   S    
C7    C8    S    
C26   N2    Am   
C37   C43   A    
C54   P5    S    
H51   O51   S    
O45   P4    S    
C55   S10   S    
C2    O13   D    
C57   C58   S    
C6    C14   D    
O41   S8    S    
C46   P2    S    
O25   S1    S    
C40   H23   S    
O33   S6    D    
C3    C66   S    
O22   S1    D    
C40   H34   S    
C31   C32   D    
C51   C53   A    
C4    C16   S    
C52   H54   S    
C44   C46   A    
O55   S3    D    
O19   P2    D    
C49   C50   A    
Ba2   O5    S    
C45   H15   S    
C23   O7    S    
C16   H40   S    
C13   C39   A    
O6    P7    D    
C3    C5    S    
O21   P3    D    
O15   P6    S    
H43   O28   S    
C63   S4    S    
O16   P6    D    
C67   O9    S    
C27   O11   D    
O54   S2    S    
O31   S5    S    
C63   H3    S    
C23   H7    S    
C58   C59   T    
Ba2   O61   S    
C62   C64   S    
C9    C36   A    
Ba1   O60   S    
C41   C42   A    
C35   C36   A    
C69   N1    Am   
Ba1   O45   S    
C51   H36   S    
O57   S3    D    
O61   P5    S    
O34   P4    D    
C34   H10   S    
C46   C47   A    
O36   S7    D    
C17   C20   A    
C1    H11   S    
C48   C49   A    
O53   S2    D    
C15   C31   D    
O8    P8    D    
Ba1   O20   S    
C33   N2    S    
C1    C12   S    
C39   S8    S    
O1    P1    D    
C21   H26   S    
C10   C69   A    
C49   H37   S    
O59   P4    S    
C44   H39   S    
C34   H9    S    
C15   C30   S    
C54   C60   A    
O28   S4    S    
C16   S11   S    
C67   H19   S    
C11   C38   A    
O38   S7    S    
O9    P8    S    
Ba1   O1    S    
C18   C41   A    
Ba1   O4    S    
O26   S4    D    
C47   H38   S    
C64   N3    T    
C68   S7    S    
C5    C14   S    
C26   O14   D    
Ba1   P1    S    
Ba2   P4    S    
Ba2   O4    S    
C12   H1    S    
O18   P6    S    
C68   H21   S    
C40   H12   S    
O40   S8    D    
C34   H8    S    
C56   H17   S    
C9    C10   A    
C2    N1    Am   
O5    P2    S    
O56   P8    S    
C35   C38   A    
C28   S2    S    
C63   H4    S    
O43   S9    D    
Ba2   O60   S    
C56   S5    S    
C62   C63   S    
O44   S9    S    
C2    C13   A    
C18   C37   A    
C8    N1    S    
C3    C8    D    
C30   P6    S    
Ba1   P2    S    
C45   C56   S    
C28   S3    S    
O51   S11   S    
C69   O10   D    
C1    C65   S    
H47   O38   S    
C28   O59   S    
O46   S10   D    
O30   S5    D    
C65   N4    T    
C4    H29   S    
C29   C33   D    
H52   O54   S    
C67   C68   S    
C1    H2    S    
O32   S6    D    
O17   P1    S    
C41   S9    S    
C61   H55   S    
C61   H56   S    
C23   C34   S    
O27   S4    D    
C27   N2    Am   
C60   H41   S    
C18   C19   A    
C31   P1    S    
C47   C48   A    
C25   C26   A    
C48   C59   S    
C39   C43   A    
C20   C21   A    
C28   C40   S    
Ba1   O15   S    
C50   P3    S    
Ba2   O45   S    
O29   S5    D    
C15   H35   S    
Ba2   O34   S    
H53   O58   S    
C4    O23   S    
Ba1   O5    S    
C4    H20   S    
C12   H5    S    
