data_mof_unit_3630.cif
_audit_creation_date              2012-12-11T15:39:22-0500
_audit_creation_method            fapswitch 2.2
_symmetry_space_group_name_H-M    P1
_symmetry_Int_Tables_number       1
_space_group_crystal_system       triclinic
_cell_length_a                    14.349036
_cell_length_b                    14.777857
_cell_length_c                    33.154149
_cell_angle_alpha                 97.525892
_cell_angle_beta                  90.240085
_cell_angle_gamma                 118.972505
_cell_volume                      6078.90015186

loop_
_atom_site_label
_atom_site_type_symbol
_atom_type_description
_atom_site_fract_x
_atom_site_fract_y
_atom_site_fract_z
_atom_type_partial_charge
C1    C     C_R   0.617100 0.910215 0.437068 0.542161
C2    C     C_R   0.712701 0.438679 0.948974 0.532959
C3    C     C_R   0.764391 0.814305 0.761811 -0.108078
C4    C     C_R   0.756431 0.831789 0.722126 -0.112390
C5    C     C_R   0.685412 0.750169 0.692315 0.029462
C6    C     C_R   0.624342 0.649335 0.702743 -0.115100
C7    C     C_R   0.633663 0.631201 0.742668 -0.117765
C8    C     C_R   0.703150 0.714038 0.772769 0.031071
C9    C     C_R   0.565228 0.743933 0.636391 -0.128080
C10   C     C_R   0.549575 0.784284 0.602915 -0.141030
C11   C     C_R   0.741859 0.883028 0.598115 -0.005317
C12   C     C_3   0.167362 0.687658 0.294386 -0.405493
C13   C     C_R   0.743323 0.716759 0.945804 0.566336
C14   C     C_3   0.209614 0.052238 0.326493 -0.406638
C15   C     C_3   0.901523 0.405345 0.376035 -0.414921
C16   C     C_3   0.913358 0.614290 0.764765 -0.396041
C17   C     C_3   0.097731 0.975166 0.664076 -0.407423
C18   C     C_3   0.190453 0.018414 0.584185 -0.378654
C19   C     C_3   0.838738 0.953685 0.577627 -0.389284
C20   C     C_R   0.829300 0.437037 0.164904 -0.119922
C21   C     C_R   0.826116 0.449497 0.124007 -0.125255
C22   C     C_R   0.778198 0.353203 0.246754 -0.119214
C23   C     C_R   0.771772 0.341096 0.287801 -0.115595
C24   C     C_R   0.740142 0.400285 0.315136 0.027844
C25   C     C_R   0.718588 0.474293 0.301217 -0.121137
C26   C     C_R   0.724075 0.485734 0.260122 -0.115859
C27   C     C_R   0.751203 0.423304 0.232468 0.028667
C28   C     C_R   0.744998 0.427272 0.188521 0.031759
C29   C     C_R   0.608187 0.340008 0.366359 -0.133585
C30   C     C_R   0.594127 0.205643 0.456594 0.544407
C31   C     C_R   0.570939 0.291164 0.400482 -0.133780
C32   C     C_R   0.745864 0.312434 0.416722 -0.109367
C33   C     C_R   0.784861 0.363426 0.382825 0.010163
C34   C     C_R   0.713538 0.372588 0.356228 0.045995
C35   C     C_R   0.638204 0.273102 0.424952 0.008260
C36   C     C_R   0.243163 0.877881 0.393756 -0.010331
C37   C     C_R   0.235535 0.961054 0.380821 -0.115701
C38   C     C_R   0.211042 0.959013 0.339662 0.002119
C39   C     C_R   0.756300 0.841804 0.632009 -0.098425
C40   C     C_R   0.192393 0.871468 0.311023 0.067149
C41   C     C_R   0.191256 0.783857 0.324229 0.003257
C42   C     C_R   0.295206 0.892695 0.434505 0.540789
C43   C     C_R   0.216737 0.787946 0.365552 -0.115981
C44   C     C_R   0.194342 0.806542 0.163157 -0.112622
C45   C     C_R   0.167285 0.785895 0.121242 -0.124935
C46   C     C_R   0.089802 0.900491 0.129577 -0.128464
C47   C     C_R   0.116522 0.920623 0.171604 -0.114982
C48   C     C_R   0.165191 0.870520 0.188523 0.039195
C49   C     C_1   0.175078 0.875054 0.231880 -0.035598
C50   C     C_R   0.668675 0.775012 0.652045 0.016090
C51   C     C_1   0.181878 0.874249 0.267978 -0.024766
C52   C     C_R   0.110368 0.828876 0.104309 0.020458
C53   C     C_R   0.638027 0.878352 0.395630 0.019672
C54   C     C_R   0.614303 0.904175 0.551309 0.541913
C55   C     C_R   0.553409 0.799333 0.368691 -0.129919
C56   C     C_R   0.565792 0.786956 0.326970 -0.117383
C57   C     C_R   0.662882 0.852666 0.311946 0.038123
C58   C     C_R   0.749842 0.926034 0.338792 -0.114969
C59   C     C_R   0.737665 0.938749 0.380497 -0.126760
C60   C     C_R   0.778111 0.920435 0.174577 -0.115998
C61   C     C_R   0.636909 0.856815 0.584195 0.033015
C62   C     C_R   0.793078 0.907438 0.133093 -0.129145
C63   C     C_R   0.618455 0.751866 0.121709 -0.126362
C64   C     C_R   0.603607 0.765230 0.163113 -0.115536
C65   C     C_R   0.684987 0.847215 0.189723 0.039880
C66   C     C_R   0.590009 0.200139 0.570703 0.543023
C67   C     C_1   0.676973 0.850104 0.232791 -0.034419
C68   C     C_1   0.670759 0.850691 0.268899 -0.034902
C69   C     C_R   0.715247 0.820292 0.106632 0.021794
C70   C     C_R   0.625637 0.255460 0.612924 0.020022
C71   C     C_R   0.562158 0.289782 0.635039 -0.129156
C72   C     C_R   0.052241 0.781374 0.063727 0.544559
C73   C     C_R   0.582115 0.320292 0.677211 -0.118187
C74   C     C_R   0.665705 0.317108 0.697600 0.035913
C75   C     C_R   0.734106 0.290676 0.675540 -0.118015
C76   C     C_R   0.714539 0.260386 0.633340 -0.130578
C77   C     C_R   0.769517 0.359886 0.843749 -0.117413
C78   C     C_R   0.287788 0.886354 0.548486 0.542816
C79   C     C_R   0.776287 0.379947 0.886271 -0.127303
C80   C     C_R   0.597233 0.357583 0.883761 -0.127360
C81   C     C_R   0.590672 0.337385 0.841241 -0.114796
C82   C     C_R   0.678184 0.342200 0.821246 0.041026
C83   C     C_R   0.743993 0.487095 0.066358 0.546121
C84   C     C_1   0.676385 0.335080 0.777742 -0.037492
C85   C     C_1   0.673402 0.328970 0.741231 -0.040897
C86   C     C_R   0.692017 0.383730 0.906661 0.021097
C87   C     C_R   0.066745 0.752739 0.907742 0.022395
C88   C     C_R   0.093179 0.847795 0.894266 -0.142743
C89   C     C_R   0.106117 0.856719 0.853169 -0.133905
C90   C     C_R   0.738151 0.451569 0.106203 0.020536
C91   C     C_R   0.095185 0.771540 0.825294 0.030674
C92   C     C_R   0.081263 0.680945 0.839505 -0.118438
C93   C     C_R   0.066201 0.671141 0.880498 -0.123205
C94   C     C_R   0.742775 0.789229 0.066384 0.553469
C95   C     C_R   0.185262 0.863610 0.768635 -0.134246
C96   C     C_R   0.190117 0.876499 0.727907 -0.123670
C97   C     C_R   0.107111 0.804415 0.699249 0.009483
C98   C     C_R   0.018420 0.719194 0.711470 -0.098408
C99   C     C_R   0.011884 0.705402 0.752622 0.009053
C100  C     C_R   0.097438 0.778283 0.781438 0.038378
C101  C     C_R   0.131644 0.902670 0.640120 0.033792
C102  C     C_R   0.650934 0.434807 0.129336 -0.124044
C103  C     C_R   0.178222 0.924463 0.602310 0.009198
C104  C     C_R   0.190453 0.764065 0.596521 -0.149615
C105  C     C_R   0.021801 0.732214 0.947322 0.532825
C106  C     C_R   0.143329 0.742297 0.632829 -0.142972
C107  C     C_R   0.120734 0.813975 0.655988 0.029021
C108  C     C_R   0.215736 0.858033 0.582214 0.016684
C109  C     C_R   0.727984 0.703163 0.900957 0.018086
C110  C     C_R   0.630043 0.635826 0.878216 -0.124206
C111  C     C_R   0.621641 0.634844 0.835823 -0.113399
C112  C     C_R   0.711592 0.699583 0.815901 0.027453
C113  C     C_R   0.810365 0.759627 0.838658 -0.129852
C114  C     C_R   0.654619 0.423268 0.170177 -0.120007
C115  C     C_R   0.817777 0.762512 0.880457 -0.121900
Cr1   Cr    Cr6+3 0.424820 0.846020 0.489780 1.007310
Cr2   Cr    Cr6+3 0.657880 0.078580 0.505700 1.002752
Cr3   Cr    Cr6+3 0.417280 0.075360 0.504550 0.997638
Cr4   Cr    Cr6+3 0.903360 0.812540 0.006510 1.003624
Cr5   Cr    Cr6+3 0.914630 0.587050 0.006280 1.004309
Cr6   Cr    Cr6+3 0.673560 0.582680 0.008540 1.009319
H1    H     H_    0.581907 0.435741 0.116523 0.129238
H2    H     H_    0.045189 0.934038 0.117505 0.124133
H3    H     H_    0.894618 0.462463 0.106960 0.126701
H4    H     H_    0.868625 0.961050 0.122413 0.120588
H5    H     H_    0.841399 0.984263 0.195100 0.102848
H6    H     H_    0.825459 0.976778 0.327313 0.104771
H7    H     H_    0.804329 0.000020 0.400502 0.124821
H8    H     H_    0.475619 0.751873 0.379370 0.126585
H9    H     H_    0.531109 0.708494 0.174671 0.103466
H10   H     H_    0.557027 0.684210 0.102015 0.120908
H11   H     H_    0.498216 0.729689 0.306278 0.105124
H12   H     H_    0.487675 0.261920 0.406209 0.128664
H13   H     H_    0.850579 0.400160 0.902898 0.125097
H14   H     H_    0.837409 0.363165 0.828424 0.101749
H15   H     H_    0.799098 0.288167 0.691175 0.105798
H16   H     H_    0.764999 0.234611 0.617194 0.125376
H17   H     H_    0.493417 0.287312 0.620192 0.121554
H18   H     H_    0.531157 0.360348 0.898413 0.125995
H19   H     H_    0.528984 0.341005 0.694141 0.099688
H20   H     H_    0.095853 0.912421 0.914867 0.117066
H21   H     H_    0.047441 0.597370 0.890213 0.124067
H22   H     H_    0.133608 0.673577 0.644755 0.113425
H23   H     H_    0.899485 0.439727 0.178555 0.102784
H24   H     H_    0.786258 0.281821 0.297837 0.114834
H25   H     H_    0.259856 0.941674 0.718478 0.120507
H26   H     H_    0.250887 0.920026 0.790295 0.112443
H27   H     H_    0.119245 0.928221 0.842780 0.103434
H28   H     H_    0.955199 0.663367 0.688802 0.113143
H29   H     H_    0.078201 0.616528 0.818695 0.105139
H30   H     H_    0.213973 0.709814 0.581143 0.133353
H31   H     H_    0.559784 0.587796 0.893244 0.121037
H32   H     H_    0.798690 0.304009 0.225821 0.105156
H33   H     H_    0.894095 0.814226 0.897173 0.137379
H34   H     H_    0.799323 0.301366 0.436153 0.122023
H35   H     H_    0.836328 0.864192 0.643727 0.105494
H36   H     H_    0.802369 0.910722 0.715223 0.101676
H37   H     H_    0.816295 0.880921 0.784273 0.102314
H38   H     H_    0.544235 0.587332 0.819102 0.100612
H39   H     H_    0.568872 0.585112 0.680138 0.101312
H40   H     H_    0.586340 0.552929 0.749997 0.097670
H41   H     H_    0.496452 0.693229 0.651525 0.108861
H42   H     H_    0.468397 0.762022 0.592807 0.129719
H43   H     H_    0.882148 0.807406 0.824333 0.110128
H44   H     H_    0.587703 0.413414 0.187743 0.105410
H45   H     H_    0.184159 0.730511 0.102538 0.123917
H46   H     H_    0.693489 0.520105 0.321867 0.109086
H47   H     H_    0.704418 0.541363 0.249677 0.110724
H48   H     H_    0.552369 0.346197 0.346306 0.108088
H49   H     H_    0.168878 0.626007 0.309830 0.114772
H50   H     H_    0.086697 0.654713 0.278581 0.142450
H51   H     H_    0.227728 0.708434 0.271424 0.131825
H52   H     H_    0.225216 0.113859 0.352822 0.114757
H53   H     H_    0.272051 0.086917 0.304925 0.138023
H54   H     H_    0.130153 0.027298 0.311164 0.132016
H55   H     H_    0.926969 0.454366 0.351343 0.141841
H56   H     H_    0.232330 0.767687 0.176037 0.105437
H57   H     H_    0.950864 0.455262 0.404345 0.129517
H58   H     H_    0.917897 0.339236 0.368303 0.121056
H59   H     H_    0.519371 0.323089 0.823939 0.102405
H60   H     H_    0.931726 0.552587 0.771164 0.123132
H61   H     H_    0.883632 0.640108 0.792225 0.153916
H62   H     H_    0.847670 0.578879 0.740096 0.137169
H63   H     H_    0.167488 0.055041 0.671472 0.125179
H64   H     H_    0.034175 0.977776 0.646016 0.113786
H65   H     H_    0.063672 0.949459 0.693089 0.137132
H66   H     H_    0.163911 0.995196 0.551160 0.134229
H67   H     H_    0.221379 0.722969 0.375305 0.126398
H68   H     H_    0.141527 0.052001 0.597691 0.105389
H69   H     H_    0.275085 0.081573 0.588704 0.159037
H70   H     H_    0.911845 0.954560 0.589280 0.108044
H71   H     H_    0.827064 0.925799 0.544271 0.143160
H72   H     H_    0.852666 0.035121 0.583450 0.150499
H73   H     H_    0.254757 0.030541 0.402405 0.128084
H74   H     H_    0.093692 0.970314 0.191082 0.104356
O1    O     O_R   0.318160 0.824460 0.443680 -0.520023
O2    O     O_R   0.668160 0.499860 0.053480 -0.517015
O3    O     O_R   0.689170 0.693840 0.050110 -0.495097
O4    O     O_R   0.525040 0.857250 0.449830 -0.501762
O5    O     O_R   0.803860 0.812940 0.962540 -0.511628
O6    O     O_R   0.982950 0.787950 0.964120 -0.527301
O7    O     O_R   0.007050 0.649970 0.960540 -0.517484
O8    O     O_R   0.807910 0.482370 0.965590 -0.504191
O9    O     O_R   0.643310 0.460980 0.963840 -0.525707
O10   O     O_R   0.666140 0.657800 0.967020 -0.498906
O11   O     O_3   0.830520 0.660760 0.007110 -0.259747
O12   O     O_R   0.645130 0.163230 0.552140 -0.502028
O13   O     O_R   0.684760 0.998800 0.456360 -0.519887
O14   O     O_R   0.647540 0.166310 0.470260 -0.500698
O15   O     O_R   0.500960 0.181750 0.467450 -0.518984
O16   O     O_R   0.331100 0.981120 0.457080 -0.503390
O17   O     O_R   0.315560 0.821140 0.532010 -0.523125
O18   O     O_R   0.522630 0.854180 0.531710 -0.502340
O19   O     O_R   0.682160 0.995480 0.544690 -0.519727
O20   O     O_R   0.498360 0.178430 0.555780 -0.523291
O21   O     O_R   0.328690 0.978040 0.538950 -0.501889
O22   O     O_3   0.499990 0.999990 0.500010 -0.229140
O23   O     O_R   0.828710 0.851830 0.052170 -0.515371
O24   O     O_R   0.005980 0.823990 0.047210 -0.500994
O25   O     O_R   0.031900 0.688850 0.050170 -0.514546
O26   O     O_R   0.830940 0.518420 0.048680 -0.497418

loop_
_geom_bond_atom_site_label_1
_geom_bond_atom_site_label_2
_ccdc_geom_bond_type
C101  C107  A    
C89   H27   S    
C87   C88   A    
C18   H68   S    
Cr5   O26   S    
Cr2   O19   S    
C13   O5    A    
C15   H58   S    
C54   O18   A    
Cr5   O7    S    
C73   C74   A    
C20   H23   S    
C36   C42   S    
C95   C96   A    
Cr4   O6    S    
Cr6   O10   S    
C31   H12   S    
Cr2   O13   S    
C30   O14   A    
C104  C106  A    
C97   C98   A    
C53   C59   A    
C16   H62   S    
C106  H22   S    
C12   H51   S    
C76   H16   S    
C25   H46   S    
C7    H40   S    
C26   H47   S    
C26   C27   A    
C10   H42   S    
C15   H55   S    
C52   C72   S    
C43   H67   S    
C104  H30   S    
C78   C108  S    
C36   C37   A    
C37   C38   A    
C14   H52   S    
C110  H31   S    
C8    C112  S    
C5    C6    A    
C80   C81   A    
C16   H61   S    
C55   C56   A    
C65   C67   S    
C106  C107  A    
C46   C52   A    
C18   H66   S    
C94   O23   A    
C56   C57   A    
C60   C62   A    
C32   C33   A    
C66   O20   A    
C83   C90   S    
C1    O13   A    
C17   C101  S    
C110  C111  A    
C90   C102  A    
C13   C109  S    
C72   O24   A    
C18   H69   S    
C63   C69   A    
C17   H64   S    
C55   H8    S    
C3    H37   S    
C80   C86   A    
C23   C24   A    
Cr2   O22   S    
C103  C108  A    
C63   H10   S    
C91   C100  S    
C83   O2    A    
C9    C10   A    
C19   H71   S    
C53   C55   A    
C58   H6    S    
C101  C103  A    
C96   C97   A    
Cr4   O24   S    
C41   C43   A    
C1    O4    A    
Cr6   O11   S    
C29   C31   A    
C98   H28   S    
C112  C113  A    
C92   H29   S    
C81   C82   A    
C12   H50   S    
C21   C90   A    
C77   C79   A    
C72   O25   A    
C74   C75   A    
C9    C50   A    
C67   C68   T    
Cr1   O1    S    
C32   C35   A    
C7    C8    A    
C2    O9    A    
C84   C85   T    
Cr6   O9    S    
Cr3   O20   S    
C3    C8    A    
C78   O21   A    
C91   C92   A    
C71   C73   A    
Cr1   O4    S    
C75   H15   S    
C4    C5    A    
C12   H49   S    
C20   C28   A    
C45   C52   A    
C49   C51   T    
C25   C26   A    
C29   C34   A    
C4    H36   S    
C24   C34   S    
Cr4   O5    S    
C62   C69   A    
Cr3   O16   S    
C94   O3    A    
C14   H54   S    
C83   O26   A    
C105  O7    A    
C42   O1    A    
C75   C76   A    
C69   C94   S    
C11   C61   A    
C12   C41   S    
C102  C114  A    
C14   C38   S    
C32   H34   S    
C23   H24   S    
C105  O6    A    
C47   C48   A    
C87   C105  S    
C17   H65   S    
Cr5   O25   S    
C11   C19   S    
C1    C53   S    
C59   H7    S    
Cr3   O22   S    
C33   C34   A    
C95   H26   S    
Cr4   O11   S    
C71   H17   S    
C24   C25   A    
C11   C39   A    
Cr6   O2    S    
C56   H11   S    
C28   C114  A    
C30   C35   S    
C40   C41   A    
C54   C61   S    
C64   H9    S    
C60   C65   A    
C19   H72   S    
C82   C84   S    
C22   C27   A    
C115  H33   S    
C70   C76   A    
C31   C35   A    
C5    C50   S    
C10   C61   A    
C89   C91   A    
C57   C68   S    
C3    C4    A    
C80   H18   S    
C78   O17   A    
C88   H20   S    
C104  C108  A    
C70   C71   A    
C44   C45   A    
C114  H44   S    
C45   H45   S    
C47   H74   S    
C54   O19   A    
C79   H13   S    
C46   C47   A    
C48   C49   S    
C111  C112  A    
C20   C21   A    
C95   C100  A    
C2    O8    A    
C81   H59   S    
C111  H38   S    
Cr1   O18   S    
Cr2   O12   S    
C44   H56   S    
C30   O15   A    
C62   H4    S    
C6    H39   S    
C16   C99   S    
C6    C7    A    
C73   H19   S    
C40   C51   S    
C96   H25   S    
C99   C100  A    
C39   H35   S    
Cr3   O15   S    
C42   O16   A    
Cr5   O11   S    
C37   H73   S    
C16   H60   S    
C21   H3    S    
C60   H5    S    
C58   C59   A    
C14   H53   S    
Cr4   O23   S    
C109  C110  A    
C64   C65   A    
C113  H43   S    
C38   C40   A    
C66   O12   A    
C17   H63   S    
C57   C58   A    
C66   C70   S    
C77   C82   A    
C87   C93   A    
Cr2   O14   S    
C92   C93   A    
C2    C86   S    
C13   O10   A    
C18   C103  S    
C74   C85   S    
C9    H41   S    
C46   H2    S    
Cr6   O3    S    
C109  C115  A    
C63   C64   A    
C97   C107  S    
C39   C50   A    
C88   C89   A    
Cr1   O17   S    
C98   C99   A    
C15   H57   S    
C27   C28   S    
Cr5   O8    S    
C22   C23   A    
C36   C43   A    
Cr3   O21   S    
C77   H14   S    
C29   H48   S    
Cr1   O22   S    
C102  H1    S    
C15   C33   S    
C79   C86   A    
C93   H21   S    
C44   C48   A    
C19   H70   S    
C113  C115  A    
C22   H32   S    
