data_mof_unit_1653.cif
_audit_creation_date              2012-12-11T15:21:44-0500
_audit_creation_method            fapswitch 2.2
_symmetry_space_group_name_H-M    P1
_symmetry_Int_Tables_number       1
_space_group_crystal_system       triclinic
_cell_length_a                    18.658097
_cell_length_b                    7.237095
_cell_length_c                    18.357505
_cell_angle_alpha                 89.711169
_cell_angle_beta                  108.768075
_cell_angle_gamma                 90.091724
_cell_volume                      2346.98957619

loop_
_atom_site_label
_atom_site_type_symbol
_atom_type_description
_atom_site_fract_x
_atom_site_fract_y
_atom_site_fract_z
_atom_type_partial_charge
O1    O     O_R   0.562310 0.505770 0.439670 -0.525796
O2    O     O_R   0.437690 0.005770 0.560330 -0.519865
O3    O     O_R   0.411650 0.169150 0.405330 -0.520534
O4    O     O_R   0.588350 0.669150 0.594670 -0.523432
C1    C     C_R   0.385688 0.347677 0.381627 0.688519
C2    C     C_R   0.615688 0.847296 0.617261 0.697229
O5    O     O_R   0.560140 0.175610 0.430010 -0.518714
O6    O     O_R   0.439860 0.675610 0.569990 -0.527611
O7    O     O_R   0.587240 0.012100 0.585200 -0.514641
O8    O     O_R   0.412760 0.512100 0.414800 -0.518075
C3    C     C_R   0.580346 0.344013 0.414066 0.761968
C4    C     C_R   0.417707 0.844250 0.584018 0.768775
O9    O     O_3   0.508720 0.341420 0.550890 -0.359373
O10   O     O_3   0.491280 0.841420 0.449110 -0.358641
V1    V     V_3+5 0.498380 0.063930 0.490560 1.620731
V2    V     V_3+5 0.501620 0.563930 0.509440 1.609572
C5    C     C_R   0.211596 0.887385 0.904114 0.144096
C6    C     C_R   0.788350 0.386918 0.095333 0.141138
C7    C     C_R   0.132880 0.914534 0.869717 -0.095167
C8    C     C_R   0.866921 0.414723 0.129959 -0.095211
C9    C     C_R   0.101471 0.913133 0.789686 -0.209585
C10   C     C_R   0.897383 0.425591 0.209896 -0.210352
C11   C     C_R   0.147333 0.887377 0.743247 0.073261
C12   C     C_R   0.850855 0.407742 0.256146 0.072519
C13   C     C_R   0.226371 0.868941 0.776412 0.043622
C14   C     C_R   0.772274 0.380151 0.222676 0.044510
C15   C     C_R   0.258784 0.867347 0.857370 0.030913
C16   C     C_R   0.740697 0.370117 0.141809 0.030489
C17   C     C_R   0.114269 0.869144 0.664151 -0.172478
C18   C     C_R   0.882902 0.409078 0.335790 -0.176129
C19   C     C_R   0.158228 0.838466 0.616674 0.226778
C20   C     C_R   0.838346 0.389745 0.383471 0.227652
C21   C     C_R   0.239002 0.847236 0.647254 0.007167
C22   C     C_R   0.757736 0.381775 0.351140 0.007644
C23   C     C_R   0.272732 0.851782 0.728464 -0.051472
C24   C     C_R   0.725507 0.363287 0.270229 -0.049636
C25   C     C_R   0.352582 0.844524 0.762097 0.021482
C26   C     C_R   0.646797 0.328036 0.236803 0.017872
C27   C     C_R   0.383205 0.820228 0.842909 0.210562
C28   C     C_R   0.615264 0.332715 0.155379 0.206306
C29   C     C_R   0.336960 0.836532 0.889203 -0.136164
C30   C     C_R   0.662066 0.349226 0.109557 -0.136105
C31   C     C_R   0.286957 0.856872 0.600753 0.155084
C32   C     C_R   0.707640 0.398865 0.394878 0.151803
C33   C     C_R   0.366918 0.851234 0.633619 -0.158285
C34   C     C_R   0.630457 0.348781 0.363889 -0.157940
C35   C     C_R   0.398586 0.863807 0.714221 0.098049
C36   C     C_R   0.603331 0.290862 0.286283 0.098491
H1    H     H_    0.363174 0.818463 0.950444 0.203182
H2    H     H_    0.635178 0.352929 0.047969 0.204863
C37   C     C_3   0.752584 0.780457 0.831205 0.067179
C38   C     C_3   0.247221 0.278713 0.168457 0.067367
C39   C     C_3   0.683117 0.751421 0.757330 -0.421541
C40   C     C_3   0.319307 0.255876 0.240626 -0.422506
H3    H     H_    0.757249 0.677202 0.651874 0.162419
H4    H     H_    0.246258 0.169390 0.344705 0.162705
C41   C     C_3   0.832758 0.829499 0.746673 -0.392979
C42   C     C_3   0.168939 0.333490 0.254807 -0.395586
C43   C     C_3   0.774143 0.101432 0.788438 -0.328106
C44   C     C_3   0.227315 0.600915 0.209326 -0.322960
C45   C     C_3   0.811913 0.912932 0.814735 -0.024031
C46   C     C_3   0.188690 0.412708 0.185111 -0.027932
H5    H     H_    0.813858 0.188103 0.768894 0.186175
H6    H     H_    0.187958 0.690339 0.227879 0.183828
H7    H     H_    0.764548 0.175714 0.837123 0.187760
H8    H     H_    0.237007 0.672113 0.159813 0.188335
C47   C     C_3   0.687991 0.874464 0.689097 -0.044668
C48   C     C_3   0.314156 0.374401 0.309306 -0.047529
C49   C     C_3   0.762698 0.821070 0.672451 0.086265
C50   C     C_3   0.240703 0.315866 0.326892 0.086824
C51   C     C_3   0.697784 0.077842 0.723325 0.076096
C52   C     C_3   0.303840 0.577829 0.274480 0.075323
O11   O     O_R   0.087220 0.271820 0.085230 -0.543154
O12   O     O_R   0.912780 0.771820 0.914770 -0.544705
O13   O     O_R   0.939860 0.595540 0.069990 -0.530824
O14   O     O_R   0.060140 0.095540 0.930010 -0.529750
C53   C     C_R   0.918447 0.426270 0.083583 0.727206
C54   C     C_R   0.081652 0.926623 0.916443 0.729119
O15   O     O_R   0.088340 0.601930 0.094680 -0.537545
O16   O     O_R   0.911660 0.101930 0.905320 -0.537393
O17   O     O_R   0.062310 0.765410 0.939660 -0.528331
O18   O     O_R   0.937690 0.265410 0.060340 -0.528420
C55   C     C_R   0.116430 0.431727 0.116152 0.702102
C56   C     C_R   0.883467 0.932020 0.884092 0.701125
O19   O     O_3   0.991270 0.429630 0.949130 -0.376945
O20   O     O_3   0.008730 0.929630 0.050870 -0.377480
V3    V     V_3+5 0.001620 0.707150 0.009440 1.494905
V4    V     V_3+5 0.998380 0.207150 0.990560 1.498627
I1    I     I_    0.256734 0.873279 0.026336 -0.350330
I2    I     I_    0.744054 0.372575 0.973053 -0.350242
I3    I     I_    0.715944 0.872639 0.925041 -0.293931
I4    I     I_    0.278176 0.367492 0.070219 -0.301539
H9    H     H_    0.629888 0.779931 0.769486 0.211641
H10   H     H_    0.370208 0.298253 0.226065 0.208242
H11   H     H_    0.679820 0.604552 0.742130 0.189640
H12   H     H_    0.327639 0.108752 0.256091 0.200746
H13   H     H_    0.855701 0.687432 0.761935 0.153744
H14   H     H_    0.142305 0.194920 0.240233 0.153473
H15   H     H_    0.652079 0.102381 0.748518 0.167123
H16   H     H_    0.350119 0.603923 0.249661 0.147916
I5    I     I_    0.687349 0.313625 0.650350 -0.345841
I6    I     I_    0.313781 0.812351 0.345808 -0.350596
H17   H     H_    0.879168 0.911850 0.736786 0.171546
H18   H     H_    0.125975 0.423356 0.267141 0.176414
H19   H     H_    0.040620 0.926639 0.763624 0.122557
H20   H     H_    0.957935 0.444842 0.236160 0.123216
I7    I     I_    0.787540 0.982264 0.583727 -0.276864
I8    I     I_    0.223392 0.457057 0.422876 -0.275060
H21   H     H_    0.053072 0.867954 0.639460 0.172989
H22   H     H_    0.943921 0.417463 0.361337 0.174952
I9    I     I_    0.091873 0.731952 0.507561 -0.239171
I10   I     I_    0.905123 0.321597 0.498584 -0.230171
I11   I     I_    0.244827 0.980242 0.491361 -0.274389
I12   I     I_    0.741093 0.541824 0.499014 -0.278143
I13   I     I_    0.500630 0.019420 0.754942 -0.331243
I14   I     I_    0.513733 0.091514 0.254426 -0.310088
I15   I     I_    0.492328 0.706473 0.900177 -0.202055
I16   I     I_    0.498447 0.372671 0.093464 -0.205972
H23   H     H_    0.779360 0.643404 0.849626 0.144844
H24   H     H_    0.220785 0.140242 0.153399 0.146544

loop_
_geom_bond_atom_site_label_1
_geom_bond_atom_site_label_2
_ccdc_geom_bond_type
C42   C46   S    
C28   I16   S    
C46   C55   S    
C39   H11   S    
O1    C3    A    
O16   C56   A    
O2    C4    A    
C2    O7    A    
O15   V3    S    
C49   I7    S    
C27   C29   A    
C9    H19   S    
C35   I13   S    
C8    C53   S    
C18   H22   S    
C11   C17   A    
C17   H21   S    
C26   C28   A    
C12   C14   A    
C40   C48   S    
C44   C52   S    
C6    C8    A    
C44   C46   S    
C37   I3    S    
C32   C34   A    
O15   C55   A    
C37   C45   S    
C37   H23   S    
C19   C21   A    
O12   V3    S    
C25   C35   A    
O14   V4    S    
C26   C36   A    
C48   C52   S    
C36   I14   S    
C28   C30   A    
C51   I5    S    
C44   H8    S    
O6    V2    S    
C1    C48   S    
C29   H1    S    
C38   C40   S    
C33   C35   A    
C41   H17   S    
C34   C36   A    
C43   C45   S    
C39   H9    S    
C5    C15   A    
C5    I1    S    
O4    C2    A    
O12   C56   A    
O8    V2    S    
O20   V3    S    
C42   C50   S    
O5    V1    S    
C20   C22   A    
C27   I15   S    
C51   H15   S    
C37   C39   S    
C6    I2    S    
O4    V2    S    
C7    C54   S    
O5    C3    A    
O11   V4    S    
O13   C53   A    
C15   C29   A    
C30   H2    S    
O6    C4    A    
C41   H13   S    
C6    C16   A    
O1    V2    S    
H3    C49   S    
O2    V1    S    
C31   C33   A    
O17   V3    S    
C13   C23   A    
C38   H24   S    
C14   C24   A    
C2    C47   S    
C8    C10   A    
H4    C50   S    
C9    C11   A    
C10   C12   A    
C38   I4    S    
C42   H18   S    
C5    C7    A    
O3    V1    S    
C23   C25   A    
C52   H16   S    
O19   V4    S    
O13   V3    S    
C22   C32   A    
C20   I10   S    
C7    C9    A    
C43   H5    S    
O14   C54   A    
C4    C33   S    
O3    C1    A    
C45   C56   S    
C41   C45   S    
C42   H14   S    
C13   C15   A    
C14   C16   A    
C44   H6    S    
C41   C49   S    
C24   C26   A    
O7    V1    S    
C1    O8    A    
O16   V4    S    
C38   C46   S    
C43   H7    S    
C18   C20   A    
C54   O17   A    
C52   I6    S    
C53   O18   A    
O18   V4    S    
C16   C30   A    
C21   C23   A    
C22   C24   A    
C47   C51   S    
C11   C13   A    
C39   C47   S    
C12   C18   A    
C40   H10   S    
C10   H20   S    
C32   I12   S    
C25   C27   A    
C17   C19   A    
O9    V2    S    
C48   C50   S    
C19   I9    S    
O10   V1    S    
C3    C34   S    
C50   I8    S    
C47   C49   S    
C21   C31   A    
C40   H12   S    
O11   C55   A    
C31   I11   S    
C43   C51   S    
