data_mof_unit_4009.cif
_audit_creation_date              2012-12-11T18:11:18-0500
_audit_creation_method            fapswitch 2.2
_symmetry_space_group_name_H-M    P1
_symmetry_Int_Tables_number       1
_space_group_crystal_system       triclinic
_cell_length_a                    8.219376
_cell_length_b                    12.670653
_cell_length_c                    18.723101
_cell_angle_alpha                 99.149359
_cell_angle_beta                  91.279305
_cell_angle_gamma                 98.645234
_cell_volume                      1901.09754581

loop_
_atom_site_label
_atom_site_type_symbol
_atom_type_description
_atom_site_fract_x
_atom_site_fract_y
_atom_site_fract_z
_atom_type_partial_charge
Ba1   Ba    Ba6+2 0.852780 0.548340 0.465070 1.689931
Ba2   Ba    Ba6+2 0.337060 0.451750 0.534940 1.653623
C1    C     C_3   0.627442 0.917223 0.270782 -0.326737
C2    C     C_3   0.568206 0.796067 0.260716 0.299976
C3    C     C_3   0.462156 0.273991 0.313738 0.297230
C4    C     C_3   0.451039 0.238848 0.231987 -0.387442
C5    C     C_3   0.024729 0.161642 0.732895 0.376127
C6    C     C_3   0.100466 0.255632 0.791026 -0.268633
C7    C     C_3   0.541862 0.176421 0.701101 0.326219
C8    C     C_3   0.572361 0.091203 0.746379 -0.382197
C9    C     C_R   0.003316 0.429650 0.044518 0.025524
C10   C     C_R   0.899880 0.390625 0.096799 -0.029259
C11   C     C_R   0.796885 0.359119 0.940526 -0.039253
C12   C     C_3   0.154061 0.846856 0.272116 0.767502
C13   C     C_R   0.946603 0.424305 0.970978 -0.014956
C14   C     C_R   0.728785 0.376817 0.875452 -0.151789
C15   C     C_R   0.819970 0.438841 0.830335 -0.051223
C16   C     C_R   0.979846 0.492686 0.854512 0.006926
C17   C     C_R   0.042348 0.487293 0.925657 0.025409
C18   C     C_R   0.761418 0.440026 0.759007 -0.012105
C19   C     C_R   0.866996 0.485662 0.710719 -0.280343
C20   C     C_R   0.023283 0.542626 0.733278 0.042224
C21   C     C_R   0.078123 0.550129 0.807106 -0.037392
C22   C     C_R   0.165716 0.480152 0.067793 0.050512
C23   C     C_3   0.125093 0.920126 0.217601 -0.286761
C24   C     C_R   0.223924 0.482587 0.140886 0.069095
C25   C     C_R   0.117441 0.438465 0.191370 -0.004109
C26   C     C_R   0.958420 0.388315 0.166538 -0.019611
C27   C     C_R   0.228997 0.611180 0.834863 -0.022960
C28   C     C_R   0.290273 0.606685 0.904219 -0.079596
C29   C     C_R   0.202604 0.541630 0.949869 0.021461
C30   C     C_R   0.268465 0.531555 0.019348 0.038320
C31   C     C_R   0.434145 0.571659 0.042408 -0.076249
C32   C     C_R   0.387113 0.531713 0.163859 -0.011884
C33   C     C_R   0.492024 0.571187 0.112820 -0.106939
C34   C     C_3   0.246470 0.786087 0.619064 0.292947
C35   C     C_R   0.439167 0.542121 0.237571 -0.052503
C36   C     C_R   0.329208 0.504318 0.287251 -0.249393
C37   C     C_R   0.170271 0.451103 0.265702 0.079716
C38   C     C_R   0.761268 0.183168 0.531237 -0.277068
C39   C     C_R   0.434114 0.806415 0.466647 -0.262078
C40   C     C_R   0.407194 0.983699 0.442168 -0.096386
C41   C     C_R   0.344343 0.874762 0.436702 -0.032331
C42   C     C_R   0.580191 0.847820 0.507948 0.063446
C43   C     C_R   0.643162 0.960179 0.516551 -0.064072
C44   C     C_R   0.555728 0.028220 0.482005 -0.055988
C45   C     C_3   0.245853 0.907266 0.629443 -0.300769
C46   C     C_R   0.616659 0.139750 0.489858 0.037038
C47   C     C_R   0.852612 0.116896 0.562288 -0.017024
C48   C     C_R   0.791417 0.006660 0.557191 -0.092587
C49   C     C_3   0.958419 0.213005 0.382918 0.272582
C50   C     C_3   0.978522 0.094866 0.372142 -0.327364
C51   C     C_3   0.722450 0.703373 0.682461 0.346342
C52   C     C_3   0.724300 0.734688 0.764444 -0.354933
H1    H     H_    0.496207 0.779410 0.308455 -0.011285
H2    H     H_    0.293316 0.945013 0.684785 0.123667
H3    H     H_    0.323491 0.944506 0.589766 0.047649
H4    H     H_    0.118496 0.923199 0.621788 0.161493
H5    H     H_    0.828326 0.220122 0.390824 0.002671
H6    H     H_    0.034846 0.254220 0.431877 0.078271
H7    H     H_    0.921632 0.053738 0.318981 0.126873
H8    H     H_    0.920529 0.054757 0.415672 0.091210
H9    H     H_    0.111170 0.088305 0.372266 0.117503
H10   H     H_    0.844047 0.683061 0.666652 0.004141
H11   H     H_    0.625870 0.631720 0.666396 0.053407
H12   H     H_    0.680668 0.944923 0.326744 0.108751
H13   H     H_    0.829191 0.799787 0.783515 0.150257
H14   H     H_    0.737493 0.663977 0.790929 0.041128
H15   H     H_    0.607227 0.763407 0.780674 0.118613
H16   H     H_    0.487611 0.771966 0.210579 0.042438
H17   H     H_    0.523829 0.961644 0.262829 0.090328
H18   H     H_    0.340417 0.292554 0.331594 0.015333
H19   H     H_    0.556412 0.347741 0.326821 0.051895
H20   H     H_    0.355823 0.166099 0.216886 0.126858
H21   H     H_    0.417348 0.304696 0.204815 0.052463
H22   H     H_    0.571836 0.219558 0.212918 0.126116
H23   H     H_    0.720795 0.936143 0.230903 0.122880
H24   H     H_    0.208171 0.907988 0.172019 0.087639
H25   H     H_    0.907310 0.181747 0.712981 -0.172072
H26   H     H_    0.130269 0.329818 0.766448 0.118989
H27   H     H_    0.012048 0.269517 0.834019 0.073621
H28   H     H_    0.214629 0.238090 0.816342 0.176130
H29   H     H_    0.660340 0.207638 0.678985 -0.047916
H30   H     H_    0.455499 0.138231 0.654583 0.088483
H31   H     H_    0.611846 0.021251 0.711339 0.114968
H32   H     H_    0.458378 0.063068 0.773077 0.148080
H33   H     H_    0.669499 0.126386 0.789296 0.120022
H34   H     H_    0.823795 0.480960 0.655133 0.063206
H35   H     H_    0.610102 0.331271 0.857118 0.149593
H36   H     H_    0.873115 0.350363 0.201130 0.090906
H37   H     H_    0.302924 0.662621 0.803141 0.089658
H38   H     H_    0.619704 0.604469 0.126979 0.106672
H39   H     H_    0.369521 0.514142 0.343650 0.055500
H40   H     H_    0.769457 0.364637 0.086039 0.061267
H41   H     H_    0.406820 0.656909 0.921194 0.062169
H42   H     H_    0.283635 0.869739 0.292032 -0.200419
H43   H     H_    0.523254 0.603118 0.006634 0.072266
H44   H     H_    0.334301 0.033089 0.417623 0.089300
H45   H     H_    0.863701 0.958448 0.583168 0.136241
H46   H     H_    0.809440 0.268269 0.534800 0.060436
H47   H     H_    0.382866 0.721783 0.462830 0.059122
H48   H     H_    0.995408 0.901770 0.195855 0.136150
H49   H     H_    0.152195 0.006155 0.243796 0.056934
H50   H     H_    0.374125 0.770431 0.614330 -0.002912
H51   H     H_    0.172313 0.749072 0.568511 0.058669
O1    O     O_2   0.873090 0.425890 0.325140 -0.468327
O2    O     O_3   0.690291 0.791216 0.650542 -0.608498
O3    O     O_3   0.045591 0.860743 0.328418 -0.575366
O4    O     O_2   0.316610 0.574140 0.674900 -0.472857
O5    O     O_3   0.067290 0.565720 0.585630 -0.497848
O6    O     O_3   0.530210 0.372990 0.631200 -0.467957
O7    O     O_3   0.182624 0.746899 0.680077 -0.629956
O8    O     O_3   0.611340 0.366290 0.463630 -0.482164
O9    O     O_3   0.108550 0.314140 0.595200 -0.467128
O10   O     O_2   0.180631 0.121153 0.541890 -0.478636
O11   O     O_3   0.138429 0.145906 0.678550 -0.602818
O12   O     O_3   0.122420 0.434370 0.414380 -0.499373
O13   O     O_3   0.578370 0.633800 0.536380 -0.502407
O14   O     O_2   0.341510 0.231850 0.465510 -0.463981
O15   O     O_3   0.505937 0.189539 0.346462 -0.649777
O16   O     O_2   0.424940 0.457332 0.756540 -0.482220
O17   O     O_3   0.470018 0.256364 0.744551 -0.585760
O18   O     O_3   0.659500 0.627100 0.368810 -0.463803
O19   O     O_2   0.784370 0.549565 0.245732 -0.432395
O20   O     O_3   0.004434 0.253429 0.319880 -0.646440
O21   O     O_3   0.704715 0.741226 0.253966 -0.536805
O22   O     O_2   0.848200 0.768190 0.534530 -0.461070
O23   O     O_3   0.081160 0.685950 0.404810 -0.436780
O24   O     O_2   0.025982 0.879126 0.466297 -0.485883
P1    P     P_3+3 0.041040 0.394770 0.336330 0.982467
P2    P     P_3+3 0.672880 0.754030 0.556100 0.979924
P3    P     P_3+3 0.128010 0.825574 0.407025 1.015085
P4    P     P_3+3 0.148670 0.605320 0.663680 0.976323
P5    P     P_3+3 0.065828 0.174063 0.595828 0.976028
P6    P     P_3+3 0.645539 0.611642 0.274698 1.026711
P7    P     P_3+3 0.521895 0.230437 0.440497 0.931758
P8    P     P_3+3 0.547879 0.383802 0.724503 0.963341
C53   C     C_2   0.985616 0.058713 0.764180 0.822043
O25   O     O_2   0.920661 0.976106 0.724957 -0.637334
O26   O     O_R   0.022041 0.056850 0.837321 -0.747123
H52   H     H_    0.988918 0.982601 0.850997 0.316341
Cl1   Cl    Cl    0.117084 0.710300 0.227297 -0.725419
C54   C     C_2   0.723390 0.257677 0.965591 0.840834
O27   O     O_2   0.812605 0.199155 0.987192 -0.591272
O28   O     O_R   0.552279 0.226958 0.961778 -0.756663
H53   H     H_    0.517376 0.155765 0.979498 0.319627

loop_
_geom_bond_atom_site_label_1
_geom_bond_atom_site_label_2
_ccdc_geom_bond_type
C5    O11   S    
C47   P5    S    
C12   Cl1   S    
C8    H31   S    
C32   C35   A    
Ba1   O23   S    
O7    P4    S    
C17   C29   A    
C2    H16   S    
O28   H53   S    
Ba2   O13   S    
C5    C6    S    
Ba2   O4    S    
C43   C44   A    
C42   P2    S    
C13   C17   A    
C24   C25   A    
C27   C28   A    
C10   C26   A    
C6    H28   S    
C21   C27   A    
C41   P3    S    
C35   C36   A    
C22   C24   A    
Ba1   Ba2   S    
C3    H18   S    
C50   H7    S    
C40   H44   S    
C36   C37   A    
C51   H10   S    
C23   H48   S    
C52   H14   S    
C38   C47   A    
C54   O28   S    
C9    C22   A    
C15   C18   A    
C16   C17   A    
C34   C45   S    
O1    P1    D    
C32   C33   A    
C40   C44   A    
O16   P8    D    
C6    H27   S    
O13   P2    S    
C31   C33   A    
C9    C13   A    
O20   P1    S    
C24   C32   A    
Ba2   O5    S    
C25   C37   A    
C14   C15   A    
O8    P7    S    
C34   O7    S    
Ba1   O18   S    
C35   P6    S    
C51   H11   S    
C7    C8    S    
Ba1   O1    S    
O24   P3    D    
C33   H38   S    
C12   O3    S    
C19   H34   S    
C14   H35   S    
C19   C20   A    
C39   C41   A    
C10   H40   S    
Ba1   O8    S    
O23   P3    S    
C12   H42   S    
Ba2   O12   S    
C4    H20   S    
O9    P5    S    
Ba2   O6    S    
C44   C46   A    
C8    H33   S    
Ba2   P4    S    
C20   P4    S    
O4    P4    D    
C16   C21   A    
C49   O20   S    
C4    H21   S    
O26   H52   S    
O2    P2    S    
Ba1   P1    S    
C23   H49   S    
C52   H13   S    
C3    O15   S    
C51   C52   S    
C23   H24   S    
O18   P6    S    
O15   P7    S    
C18   P8    S    
C1    H17   S    
C22   C30   A    
C28   H41   S    
Ba1   O5    S    
C45   H3    S    
C51   O2    S    
C29   C30   A    
C28   C29   A    
Ba2   O14   S    
C15   C16   A    
C48   H45   S    
Ba1   O12   S    
O12   P1    S    
C53   O26   S    
C7    H29   S    
O10   P5    D    
O21   P6    S    
C11   C13   A    
C2    H1    S    
C39   C42   A    
C1    H12   S    
C49   H5    S    
C40   C41   A    
C7    O17   S    
C1    C2    S    
C1    H23   S    
C27   H37   S    
C42   C43   A    
O6    P8    S    
C5    H25   S    
C38   C46   A    
C8    H32   S    
O19   P6    D    
C34   H51   S    
C46   P7    S    
Ba1   O22   S    
O17   P8    S    
Ba1   P2    S    
C50   H9    S    
C38   H46   S    
C5    C53   S    
C9    C10   A    
C4    H22   S    
C37   P1    S    
O14   P7    D    
C2    O21   S    
C34   H50   S    
C30   C31   A    
C49   C50   S    
C50   H8    S    
C45   H4    S    
Ba2   O9    S    
C3    C4    S    
C52   H15   S    
C43   C48   A    
C36   H39   S    
Ba2   O8    S    
C39   H47   S    
C31   H43   S    
Ba1   O13   S    
C11   C54   S    
C12   C23   S    
C3    H19   S    
O22   P2    D    
O3    P3    S    
C53   O25   D    
C7    H30   S    
O11   P5    S    
C18   C19   A    
C47   C48   A    
C11   C14   A    
C25   C26   A    
C6    H26   S    
C20   C21   A    
O5    P4    S    
C26   H36   S    
C49   H6    S    
C54   O27   D    
C45   H2    S    
