data_mof_unit_2739.cif
_audit_creation_date              2012-12-11T16:04:15-0500
_audit_creation_method            fapswitch 2.2
_symmetry_space_group_name_H-M    P1
_symmetry_Int_Tables_number       1
_space_group_crystal_system       triclinic
_cell_length_a                    23.276369
_cell_length_b                    7.270073
_cell_length_c                    21.200078
_cell_angle_alpha                 90.000076
_cell_angle_beta                  102.529208
_cell_angle_gamma                 89.999956
_cell_volume                      3502.06204644

loop_
_atom_site_label
_atom_site_type_symbol
_atom_type_description
_atom_site_fract_x
_atom_site_fract_y
_atom_site_fract_z
_atom_type_partial_charge
O1    O     O_R   0.684260 0.291960 0.186200 -0.532343
O2    O     O_R   0.315740 0.708040 0.813800 -0.531043
O3    O     O_R   0.815740 0.791960 0.313800 -0.532342
O4    O     O_R   0.184260 0.208040 0.686200 -0.531043
O5    O     O_R   0.803220 0.618620 0.189870 -0.545577
O6    O     O_R   0.196780 0.381380 0.810130 -0.546120
O7    O     O_R   0.696780 0.118620 0.310130 -0.545578
O8    O     O_R   0.303220 0.881380 0.689870 -0.546119
C1    C     C_R   0.820725 0.453423 0.176259 0.713527
C2    C     C_R   0.179516 0.546577 0.824021 0.713824
C3    C     C_R   0.679275 0.953423 0.323741 0.713528
C4    C     C_R   0.320484 0.046577 0.675979 0.713822
O9    O     O_R   0.683940 0.621480 0.178600 -0.535783
O10   O     O_R   0.316060 0.378520 0.821400 -0.532655
O11   O     O_R   0.816060 0.121480 0.321400 -0.535783
O12   O     O_R   0.183940 0.878520 0.678600 -0.532655
O13   O     O_R   0.695610 0.794820 0.302450 -0.539446
O14   O     O_R   0.304390 0.205180 0.697550 -0.540418
O15   O     O_R   0.804390 0.294820 0.197550 -0.539446
O16   O     O_R   0.195610 0.705180 0.802450 -0.540419
C5    C     C_R   0.663188 0.453417 0.161095 0.719663
C6    C     C_R   0.336836 0.546530 0.838974 0.712174
C7    C     C_R   0.836812 0.953417 0.338905 0.719662
C8    C     C_R   0.163164 0.046530 0.661026 0.712175
O17   O     O_3   0.753970 0.459420 0.290650 -0.377724
O18   O     O_3   0.246030 0.540580 0.709350 -0.378250
O19   O     O_3   0.746030 0.959420 0.209350 -0.377723
O20   O     O_3   0.253970 0.040580 0.790650 -0.378249
V1    V     V_3+5 0.749260 0.733100 0.242460 1.395921
V2    V     V_3+5 0.250740 0.266900 0.757540 1.417904
V3    V     V_3+5 0.750740 0.233100 0.257540 1.395919
V4    V     V_3+5 0.249260 0.766900 0.742460 1.417904
C9    C     C_1   0.112400 0.053027 0.607062 -0.181774
C10   C     C_1   0.887658 0.945902 0.392552 -0.195103
C11   C     C_1   0.387600 0.553027 0.892938 -0.181775
C12   C     C_1   0.612342 0.445902 0.107448 -0.195102
C13   C     C_2   0.020843 0.061513 0.505203 0.305091
C14   C     C_2   0.980335 0.924406 0.493453 0.321972
C15   C     C_2   0.479156 0.561513 0.994797 0.305088
C16   C     C_2   0.519664 0.424406 0.006548 0.321969
C17   C     C_1   0.929789 0.938456 0.437946 -0.070604
C18   C     C_1   0.070469 0.056185 0.561277 0.000534
C19   C     C_1   0.570211 0.438457 0.062054 -0.070611
C20   C     C_1   0.429530 0.556185 0.938723 0.000542
C21   C     C_R   0.361278 0.051890 0.631059 -0.100753
C22   C     C_R   0.637754 0.947632 0.367840 -0.094792
C23   C     C_R   0.138722 0.551891 0.868941 -0.100752
C24   C     C_R   0.862246 0.447632 0.132161 -0.094794
C25   C     C_R   0.373999 0.889560 0.600521 -0.182018
C26   C     C_R   0.624560 0.109235 0.398410 -0.180452
C27   C     C_R   0.126001 0.389561 0.899479 -0.182018
C28   C     C_R   0.875440 0.609235 0.101590 -0.180451
C29   C     C_R   0.411751 0.892521 0.557733 -0.198274
C30   C     C_R   0.586266 0.104956 0.440636 -0.202219
C31   C     C_R   0.088249 0.392523 0.942267 -0.198274
C32   C     C_R   0.913734 0.604956 0.059364 -0.202215
C33   C     C_R   0.438821 0.056835 0.545384 0.020409
C34   C     C_R   0.559169 0.939989 0.452421 0.030406
C35   C     C_R   0.061179 0.556837 0.954616 0.020409
C36   C     C_R   0.940831 0.439990 0.047580 0.030405
C37   C     C_R   0.426982 0.220117 0.576284 0.462699
C38   C     C_R   0.571171 0.777764 0.421250 0.467649
C39   C     C_R   0.073018 0.720119 0.923716 0.462697
C40   C     C_R   0.928830 0.277765 0.078751 0.467647
C41   C     C_R   0.387613 0.217368 0.617860 -0.252213
C42   C     C_R   0.611132 0.781892 0.380153 -0.271644
C43   C     C_R   0.112387 0.717369 0.882140 -0.252213
C44   C     C_R   0.888869 0.281893 0.119847 -0.271644
C45   C     C_2   0.477409 0.060655 0.498277 0.423365
C46   C     C_2   0.520269 0.935149 0.499216 0.443063
C47   C     C_2   0.022590 0.560658 0.001722 0.423365
C48   C     C_2   0.979731 0.435150 0.000784 0.443062
H1    H     H_    0.354156 0.759587 0.608844 0.149814
H2    H     H_    0.644567 0.239434 0.390686 0.148613
H3    H     H_    0.145845 0.259588 0.891156 0.149814
H4    H     H_    0.855432 0.739433 0.109313 0.148614
H5    H     H_    0.620732 0.655053 0.357676 0.136492
H6    H     H_    0.378446 0.344646 0.640346 0.137920
H7    H     H_    0.879270 0.155054 0.142325 0.136493
H8    H     H_    0.121554 0.844647 0.859653 0.137920
H9    H     H_    0.578746 0.230416 0.465182 0.191940
H10   H     H_    0.419094 0.766369 0.533512 0.190040
H11   H     H_    0.921254 0.730416 0.034818 0.191941
H12   H     H_    0.080907 0.266371 0.966488 0.190038
O21   O     O_3   0.985777 0.779959 0.537775 -0.585027
C49   C     C_3   0.963823 0.611176 0.508966 0.108152
H13   H     H_    0.992754 0.500678 0.534431 0.182862
H14   H     H_    0.966070 0.600280 0.457072 0.117811
C50   C     C_3   0.901289 0.575717 0.518318 -0.326125
H15   H     H_    0.901548 0.574981 0.570809 0.202147
H16   H     H_    0.871222 0.686729 0.495288 0.198197
C51   C     C_3   0.877774 0.391637 0.488987 -0.764528
H17   H     H_    0.832037 0.371487 0.495186 0.220233
H18   H     H_    0.877555 0.388524 0.436530 0.241413
H19   H     H_    0.905419 0.277189 0.513595 0.241432
O22   O     O_3   0.013762 0.216129 0.466165 -0.592868
C52   C     C_3   0.044781 0.190561 0.416577 0.057429
H20   H     H_    0.032633 0.057579 0.390811 0.111425
H21   H     H_    0.093079 0.192822 0.437080 0.127055
C53   C     C_3   0.029020 0.347040 0.367720 -0.280395
H22   H     H_    0.980443 0.352180 0.349959 0.195766
H23   H     H_    0.043713 0.480127 0.391687 0.186109
C54   C     C_3   0.057816 0.320720 0.310193 -0.849553
H24   H     H_    0.106492 0.318021 0.326541 0.235461
H25   H     H_    0.045369 0.436127 0.275610 0.235403
H26   H     H_    0.042674 0.189936 0.284940 0.223739
O23   O     O_3   0.514222 0.279958 0.962226 -0.585026
C55   C     C_3   0.536176 0.111175 0.991035 0.108151
H27   H     H_    0.507245 0.000677 0.965570 0.182864
H28   H     H_    0.533929 0.100280 0.042929 0.117811
C56   C     C_3   0.598710 0.075717 0.981683 -0.326125
H29   H     H_    0.598451 0.074980 0.929192 0.202147
H30   H     H_    0.628777 0.186729 0.004712 0.198197
C57   C     C_3   0.622226 0.891637 0.011014 -0.764527
H31   H     H_    0.667962 0.871487 0.004815 0.220232
H32   H     H_    0.622444 0.888525 0.063470 0.241413
H33   H     H_    0.594580 0.777189 0.986406 0.241434
O24   O     O_3   0.486237 0.716133 0.033834 -0.592868
C58   C     C_3   0.455222 0.690563 0.083426 0.057429
H34   H     H_    0.467384 0.557603 0.109201 0.111435
H35   H     H_    0.406924 0.692776 0.062925 0.127044
C59   C     C_3   0.470970 0.847079 0.132271 -0.280400
H36   H     H_    0.519547 0.852275 0.150026 0.195765
H37   H     H_    0.456260 0.980141 0.108294 0.186109
C60   C     C_3   0.442183 0.820754 0.189803 -0.849543
H38   H     H_    0.393507 0.817984 0.173460 0.235458
H39   H     H_    0.454615 0.936197 0.224374 0.235404
H40   H     H_    0.457345 0.690003 0.215068 0.223739
F1    F     F_    0.529424 0.800255 0.544674 -0.715748
F2    F     F_    0.468249 0.195784 0.452911 -0.720469
F3    F     F_    0.970576 0.300254 0.955327 -0.715748
F4    F     F_    0.031751 0.695788 0.047088 -0.720469
O25   O     O_3   0.452598 0.384872 0.564897 -0.561325
C61   C     C_3   0.510218 0.395717 0.603857 0.141608
H41   H     H_    0.538709 0.461427 0.574577 0.227780
H42   H     H_    0.530755 0.259243 0.619058 0.071694
C62   C     C_3   0.510086 0.514297 0.663516 -0.308499
H43   H     H_    0.489350 0.649336 0.648289 0.242358
H44   H     H_    0.483932 0.444921 0.694626 0.172071
C63   C     C_3   0.572412 0.546380 0.702727 -0.777722
H45   H     H_    0.593786 0.413144 0.719363 0.223726
H46   H     H_    0.570745 0.631828 0.745707 0.228779
H47   H     H_    0.599081 0.619676 0.673061 0.257613
O26   O     O_3   0.545937 0.612808 0.433283 -0.553940
C64   C     C_3   0.501213 0.562620 0.379362 0.094719
H48   H     H_    0.503575 0.411409 0.373216 0.197244
H49   H     H_    0.506270 0.624062 0.332587 0.068129
C65   C     C_3   0.440830 0.612939 0.391987 -0.237438
H50   H     H_    0.436891 0.558269 0.439810 0.271231
H51   H     H_    0.436384 0.765007 0.392811 0.164466
C66   C     C_3   0.391067 0.534548 0.340010 -0.798881
H52   H     H_    0.393314 0.590290 0.291856 0.220570
H53   H     H_    0.348061 0.573565 0.350729 0.230157
H54   H     H_    0.393908 0.382084 0.338967 0.261920
O27   O     O_3   0.047402 0.884873 0.935103 -0.561325
C67   C     C_3   0.989781 0.895719 0.896142 0.141610
H55   H     H_    0.961290 0.961428 0.925421 0.227779
H56   H     H_    0.969245 0.759244 0.880940 0.071693
C68   C     C_3   0.989914 0.014299 0.836483 -0.308498
H57   H     H_    0.010650 0.149337 0.851711 0.242358
H58   H     H_    0.016069 0.944922 0.805373 0.172071
C69   C     C_3   0.927588 0.046382 0.797272 -0.777723
H59   H     H_    0.906214 0.913146 0.780635 0.223726
H60   H     H_    0.929256 0.131830 0.754291 0.228780
H61   H     H_    0.900918 0.119678 0.826937 0.257612
O28   O     O_3   0.954065 0.112809 0.066718 -0.553939
C70   C     C_3   0.998790 0.062628 0.120639 0.094719
H62   H     H_    0.996429 0.911418 0.126787 0.197242
H63   H     H_    0.993736 0.124079 0.167413 0.068135
C71   C     C_3   0.059173 0.112941 0.108009 -0.237436
H64   H     H_    0.063108 0.058265 0.060186 0.271238
H65   H     H_    0.063619 0.265009 0.107183 0.164463
C72   C     C_3   0.108938 0.034552 0.159983 -0.798883
H66   H     H_    0.106694 0.090302 0.208137 0.220572
H67   H     H_    0.151942 0.073563 0.149261 0.230157
H68   H     H_    0.106095 0.882089 0.161029 0.261920

loop_
_geom_bond_atom_site_label_1
_geom_bond_atom_site_label_2
_ccdc_geom_bond_type
C34   C38   A    
O1    C5    A    
O25   C61   S    
C31   C35   A    
O19   V1    S    
O13   V1    S    
O3    C7    A    
C56   H29   S    
C63   H47   S    
O15   V3    S    
C3    C22   S    
C52   C53   S    
C61   C62   S    
C64   H48   S    
C37   O25   S    
C70   H63   S    
C5    C12   S    
C72   H66   S    
O7    C3    A    
C6    C11   S    
C62   H44   S    
C26   C30   A    
C48   F3    S    
C9    C18   T    
C40   C44   A    
O9    V1    S    
C67   H55   S    
C63   H46   S    
C22   C42   A    
C26   H2    S    
C30   C34   A    
O4    C8    A    
C49   H14   S    
C58   C59   S    
C71   H64   S    
C36   C48   S    
C52   H20   S    
O1    V3    S    
C55   H27   S    
O2    V4    S    
C66   H54   S    
C13   C18   S    
O3    V1    S    
O24   C58   S    
C53   H22   S    
C40   O28   S    
C52   H21   S    
C47   F4    S    
C1    O15   A    
C16   C19   S    
C23   C27   A    
C2    O16   A    
C45   F2    S    
O2    C6    A    
C60   H40   S    
O23   C55   S    
C65   C66   S    
O14   V2    S    
C50   H16   S    
C69   H60   S    
O8    C4    A    
O11   C7    A    
C44   H7    S    
C72   H67   S    
O12   C8    A    
C66   H53   S    
C56   C57   S    
C10   C17   T    
O10   V2    S    
C23   C43   A    
C64   H49   S    
C57   H31   S    
C70   C71   S    
O5    V1    S    
C58   H35   S    
C62   C63   S    
C39   C43   A    
O27   C67   S    
O7    V3    S    
C38   C42   A    
C14   O21   S    
O8    V4    S    
C63   H45   S    
C14   C17   S    
C54   H25   S    
C70   H62   S    
C29   C33   A    
C49   H13   S    
C34   C46   S    
C61   H42   S    
O21   C49   S    
C46   F1    S    
C32   C36   A    
C13   O22   S    
C29   H10   S    
O5    C1    A    
C13   C14   D    
C69   H61   S    
C68   H57   S    
C21   C25   A    
C66   H52   S    
C7    C10   S    
O22   C52   S    
C51   H18   S    
C68   C69   S    
O9    C5    A    
C56   H30   S    
O26   C64   S    
C24   C44   A    
C50   C51   S    
O11   V3    S    
C11   C20   T    
C15   C20   S    
C16   O23   S    
C65   H51   S    
O6    V2    S    
C21   C41   A    
O28   C70   S    
C25   H1    S    
O12   V4    S    
C51   H19   S    
C59   H37   S    
C2    C23   S    
C64   C65   S    
C27   H3    S    
C32   H11   S    
C53   H23   S    
O16   V4    S    
C72   H68   S    
C42   H5    S    
C3    O13   A    
C41   H6    S    
O17   V3    S    
C67   C68   S    
C43   H8    S    
C38   O26   S    
C4    C21   S    
C28   H4    S    
C49   C50   S    
O6    C2    A    
C57   H32   S    
C58   H34   S    
C33   C37   A    
C61   H41   S    
O18   V4    S    
C69   H59   S    
C15   O24   S    
C62   H43   S    
C22   C26   A    
C35   C39   A    
C8    C9    S    
C31   H12   S    
C55   C56   S    
C36   C40   A    
O10   C6    A    
C59   C60   S    
C67   H56   S    
C68   H58   S    
C59   H36   S    
C39   O27   S    
C47   C48   D    
C60   H38   S    
C71   H65   S    
C25   C29   A    
O20   V2    S    
C51   H17   S    
C55   H28   S    
C54   H26   S    
C27   C31   A    
C65   H50   S    
C53   C54   S    
C45   C46   D    
C57   H33   S    
C15   C16   D    
C37   C41   A    
C24   C28   A    
C1    C24   S    
C4    O14   A    
C54   H24   S    
C60   H39   S    
C12   C19   T    
C33   C45   S    
C50   H15   S    
C30   H9    S    
O4    V2    S    
C28   C32   A    
C35   C47   S    
C71   C72   S    
