data_mof_unit_422.cif
_audit_creation_date              2012-12-11T15:52:41-0500
_audit_creation_method            fapswitch 2.2
_symmetry_space_group_name_H-M    P1
_symmetry_Int_Tables_number       1
_space_group_crystal_system       triclinic
_cell_length_a                    6.932546
_cell_length_b                    14.668637
_cell_length_c                    15.932061
_cell_angle_alpha                 90.086809
_cell_angle_beta                  89.820321
_cell_angle_gamma                 89.839049
_cell_volume                      1620.13098699

loop_
_atom_site_label
_atom_site_type_symbol
_atom_type_description
_atom_site_fract_x
_atom_site_fract_y
_atom_site_fract_z
_atom_type_partial_charge
O1    O     O_R   0.494400 0.415640 0.412830 -0.514147
O2    O     O_R   0.823920 0.405510 0.586560 -0.544604
O3    O     O_R   0.994250 0.584360 0.587170 -0.505229
C1    C     C_R   0.654283 0.380143 0.612593 0.687201
O4    O     O_R   0.824110 0.404610 0.413450 -0.547170
O5    O     O_R   0.994440 0.583460 0.412820 -0.537319
C2    C     C_R   0.654762 0.380715 0.385533 0.696799
O6    O     O_R   0.494210 0.416540 0.587180 -0.549117
O7    O     O_3   0.660810 0.558680 0.500000 -0.352197
V1    V     V_3+5 0.935650 0.489110 0.500000 1.480158
O8    O     O_R   0.324150 0.594490 0.413440 -0.544935
C3    C     C_R   0.155074 0.616717 0.384451 0.697581
O9    O     O_R   0.323970 0.595390 0.586550 -0.547918
C4    C     C_R   0.154285 0.616459 0.616666 0.708212
V2    V     V_3+5 0.435660 0.510890 0.500000 1.472393
O10   O     O_3   0.160630 0.441320 0.500000 -0.373764
C5    C     C_3   0.034370 0.649874 0.767340 0.311974
H1    H     H_    0.135346 0.599624 0.796396 0.058844
C6    C     C_3   0.000324 0.729544 0.830678 -0.397111
H2    H     H_    0.036627 0.705604 0.895023 0.097732
H3    H     H_    0.845840 0.749842 0.831282 0.140873
C7    C     C_3   0.038744 0.777304 0.654267 -0.195922
C8    C     C_3   0.344215 0.716667 0.715967 -0.434977
C9    C     C_3   0.139282 0.687714 0.686692 -0.020773
H4    H     H_    0.416133 0.753285 0.663610 0.178067
H5    H     H_    0.433289 0.656000 0.731690 0.171322
C10   C     C_3   0.122482 0.813958 0.808208 0.004865
C11   C     C_3   0.050544 0.854816 0.722861 -0.208246
C12   C     C_3   0.333216 0.780513 0.793296 -0.356893
H6    H     H_    0.386667 0.743875 0.849807 0.146681
H7    H     H_    0.429529 0.839662 0.782671 0.154302
H8    H     H_    0.122021 0.801514 0.598617 0.137696
H9    H     H_    0.163827 0.903458 0.701395 0.153010
C13   C     C_R   0.953313 0.774175 0.216218 -0.159233
H10   H     H_    0.812581 0.792645 0.192246 0.115852
C14   C     C_R   0.964340 0.711031 0.281884 -0.129453
H11   H     H_    0.831562 0.682652 0.306306 0.122555
C15   C     C_R   0.143913 0.684801 0.315339 -0.045089
C16   C     C_R   0.312126 0.723598 0.281339 -0.151844
H12   H     H_    0.452856 0.705141 0.305325 0.122759
C17   C     C_R   0.301096 0.786756 0.215687 -0.154139
H13   H     H_    0.433871 0.815170 0.191300 0.119595
C18   C     C_R   0.121542 0.812885 0.182142 -0.049767
C19   C     C_R   0.809650 0.264147 0.707292 -0.164589
H14   H     H_    0.949577 0.279895 0.680708 0.115904
C20   C     C_R   0.799302 0.201383 0.773219 -0.082951
H15   H     H_    0.931603 0.170057 0.794971 0.131590
C21   C     C_R   0.621021 0.179683 0.810663 -0.038938
C22   C     C_R   0.453011 0.221355 0.779470 -0.155170
H16   H     H_    0.313111 0.205947 0.806238 0.118371
C23   C     C_R   0.463433 0.284546 0.713931 -0.149658
H17   H     H_    0.331287 0.316477 0.692739 0.116807
C24   C     C_R   0.642193 0.307763 0.677742 -0.057505
C25   C     C_R   0.804859 0.291158 0.267208 -0.220624
H18   H     H_    0.940096 0.325935 0.278106 0.177933
C26   C     C_R   0.794646 0.227879 0.201310 -0.153099
H19   H     H_    0.922884 0.215134 0.164052 0.136274
C27   C     C_R   0.620769 0.183002 0.182665 -0.102072
C28   C     C_R   0.458724 0.201356 0.233062 -0.240621
H20   H     H_    0.323719 0.166728 0.221054 0.133592
C29   C     C_R   0.469634 0.261757 0.301711 0.421823
C30   C     C_R   0.642709 0.310237 0.317700 -0.146733
O11   O     O_R   0.771300 0.080930 0.910090 -0.536280
O12   O     O_R   0.441270 0.092800 0.083770 -0.543546
O13   O     O_R   0.271080 0.913920 0.084380 -0.541597
C31   C     C_R   0.610130 0.115206 0.112887 0.706299
O14   O     O_R   0.441580 0.091910 0.910670 -0.546030
O15   O     O_R   0.271390 0.913020 0.910040 -0.542531
C32   C     C_R   0.610529 0.113221 0.880989 0.703763
O16   O     O_R   0.770990 0.081830 0.084440 -0.540946
O17   O     O_3   0.604750 0.938760 0.997250 -0.374262
V3    V     V_3+5 0.329850 0.008280 0.997210 1.398449
O18   O     O_R   0.941680 0.901940 0.910610 -0.545845
C33   C     C_R   0.111169 0.882269 0.879947 0.706217
O19   O     O_R   0.941370 0.902830 0.083720 -0.544353
C34   C     C_R   0.110421 0.880768 0.112849 0.684857
V4    V     V_3+5 0.829860 0.986420 0.997150 1.405177
O20   O     O_3   0.104830 0.056030 0.997180 -0.370749
O21   O     O_3   0.859685 0.603757 0.748402 -0.557441
C35   C     C_3   0.771222 0.569753 0.822699 0.059307
H21   H     H_    0.666761 0.620826 0.847289 0.119568
H22   H     H_    0.876263 0.553021 0.873349 0.107809
C36   C     C_3   0.660936 0.483604 0.803377 -0.716603
H23   H     H_    0.766144 0.429508 0.787178 0.221298
H24   H     H_    0.577746 0.461735 0.859482 0.173431
H25   H     H_    0.559450 0.495363 0.750731 0.214678
O22   O     O_3   0.308590 0.273527 0.352133 -0.553346
C37   C     C_3   0.303030 0.201673 0.411149 0.093676
H26   H     H_    0.424009 0.208422 0.456583 0.110036
H27   H     H_    0.311951 0.133645 0.380000 0.113936
C38   C     C_3   0.113590 0.205173 0.459606 -0.666041
H28   H     H_    0.990073 0.200302 0.415639 0.213555
H29   H     H_    0.106689 0.147263 0.504322 0.180147
H30   H     H_    0.102378 0.269593 0.495695 0.229358
C39   C     C_2   0.836084 0.759528 0.624077 0.427619
H31   H     H_    0.729846 0.734048 0.667476 0.076199
O23   O     O_2   0.791299 0.773723 0.551191 -0.534520
C40   C     C_2   0.867427 0.910750 0.731260 0.384634
H32   H     H_    0.738360 0.880558 0.757157 0.024001
O24   O     O_2   0.863956 0.990433 0.709318 -0.538880

loop_
_geom_bond_atom_site_label_1
_geom_bond_atom_site_label_2
_ccdc_geom_bond_type
O22   C37   S    
C1    C24   S    
C10   C12   S    
C17   H13   S    
C39   H31   S    
C21   C32   S    
C1    O6    A    
C16   C17   A    
V4    O20   S    
O13   C34   A    
C7    H8    S    
C8    C12   S    
C14   H11   S    
C6    H3    S    
C13   H10   S    
O5    C3    A    
C15   C16   A    
O15   C33   A    
V2    O10   S    
C5    O21   S    
C26   H19   S    
O14   V3    S    
O18   C33   A    
C8    H5    S    
C4    C9    S    
V3    O20   S    
C29   O22   S    
C25   H18   S    
O8    V2    S    
C19   C24   A    
C27   C31   S    
O11   C32   A    
C22   C23   A    
C8    C9    S    
O1    V2    S    
C10   C33   S    
C6    C10   S    
O7    V1    S    
C38   H28   S    
C8    H4    S    
C28   H20   S    
C7    C11   S    
O9    C4    A    
O16   V4    S    
C17   C18   A    
C35   C36   S    
C19   C20   A    
C25   C26   A    
C20   C21   A    
C28   C29   A    
C5    C9    S    
C23   H17   S    
C35   H22   S    
C16   H12   S    
O4    C2    A    
C25   C30   A    
C27   C28   A    
C23   C24   A    
O12   C31   A    
O2    C1    A    
O19   C34   A    
C2    C30   S    
C12   H6    S    
C38   H29   S    
C36   H23   S    
C37   C38   S    
O15   V3    S    
C5    H1    S    
O19   V4    S    
O3    C4    A    
C21   C22   A    
C36   H24   S    
C37   H27   S    
C11   H9    S    
C22   H16   S    
O6    V2    S    
C40   O24   D    
O9    V2    S    
C7    C9    S    
O2    V1    S    
O17   V4    S    
C19   H14   S    
O11   V4    S    
C11   C40   S    
C18   C34   S    
C20   H15   S    
O1    C2    A    
C13   C18   A    
C35   H21   S    
O5    V1    S    
O8    C3    A    
C39   O23   D    
O13   V3    S    
C6    H2    S    
C14   C15   A    
O7    V2    S    
O17   V3    S    
C12   H7    S    
O3    V1    S    
V1    O10   S    
C38   H30   S    
C31   O16   A    
C5    C6    S    
C26   C27   A    
C13   C14   A    
O12   V3    S    
C3    C15   S    
C29   C30   A    
O21   C35   S    
C7    C39   S    
O4    V1    S    
C36   H25   S    
C37   H26   S    
C40   H32   S    
C10   C11   S    
O18   V4    S    
O14   C32   A    
