data_mof_unit_2063.cif
_audit_creation_date              2012-12-11T16:37:25-0500
_audit_creation_method            fapswitch 2.2
_symmetry_space_group_name_H-M    P1
_symmetry_Int_Tables_number       1
_space_group_crystal_system       triclinic
_cell_length_a                    19.359545
_cell_length_b                    7.090929
_cell_length_c                    18.032123
_cell_angle_alpha                 90.168437
_cell_angle_beta                  107.931504
_cell_angle_gamma                 90.284027
_cell_volume                      2355.10188982

loop_
_atom_site_label
_atom_site_type_symbol
_atom_type_description
_atom_site_fract_x
_atom_site_fract_y
_atom_site_fract_z
_atom_type_partial_charge
O1    O     O_R   0.561710 0.369960 0.440200 -0.506012
O2    O     O_R   0.061710 0.630040 0.940200 -0.499975
O3    O     O_R   0.412630 0.033330 0.406330 -0.530465
O4    O     O_R   0.912630 0.966670 0.906330 -0.513963
O5    O     O_R   0.438290 0.869790 0.559800 -0.550809
O6    O     O_R   0.938290 0.130210 0.059800 -0.548619
C1    C     C_R   0.385579 0.203456 0.382911 0.727865
C2    C     C_R   0.884237 0.795082 0.884385 0.718272
O7    O     O_R   0.559570 0.039810 0.430640 -0.539737
O8    O     O_R   0.059570 0.960190 0.930640 -0.542429
O9    O     O_R   0.586280 0.876320 0.584290 -0.514771
O10   O     O_R   0.086280 0.123680 0.084290 -0.548788
C3    C     C_R   0.580536 0.210227 0.415143 0.813356
C4    C     C_R   0.079534 0.789710 0.914044 0.730810
O11   O     O_R   0.413720 0.363440 0.415710 -0.527812
O12   O     O_R   0.913720 0.636560 0.915710 -0.531537
O13   O     O_3   0.508590 0.205630 0.550380 -0.332089
O14   O     O_3   0.008590 0.794370 0.050380 -0.331806
V1    V     V_3+5 0.498410 0.928130 0.490650 1.661351
V2    V     V_3+5 0.998410 0.071870 0.990650 1.643669
O15   O     O_R   0.587370 0.546990 0.593670 -0.490461
O16   O     O_R   0.087370 0.453010 0.093670 -0.478724
C5    C     C_R   0.614739 0.716407 0.616620 0.761056
C6    C     C_R   0.115083 0.284643 0.116260 0.752997
O17   O     O_R   0.440430 0.540520 0.569360 -0.537696
O18   O     O_R   0.940430 0.459480 0.069360 -0.534966
C7    C     C_R   0.421307 0.709779 0.586135 0.677089
C8    C     C_R   0.920575 0.290298 0.085319 0.690141
V3    V     V_3+5 0.501590 0.428960 0.509350 1.742663
V4    V     V_3+5 0.001590 0.571040 0.009350 1.720948
O19   O     O_3   0.491410 0.701330 0.449620 -0.342231
O20   O     O_3   0.991410 0.298670 0.949620 -0.329701
C9    C     C_R   0.253377 0.824434 0.642820 0.178976
C10   C     C_R   0.751474 0.180299 0.141041 0.181641
C11   C     C_R   0.303824 0.814922 0.601449 -0.143619
C12   C     C_R   0.801679 0.190435 0.099299 -0.148753
H1    H     H_    0.289832 0.874735 0.543601 0.160068
H2    H     H_    0.786622 0.135121 0.040420 0.154922
C13   C     C_R   0.370289 0.722141 0.632235 -0.064658
C14   C     C_R   0.869520 0.277986 0.131323 -0.069027
C15   C     C_R   0.387340 0.644138 0.706757 -0.140507
C16   C     C_R   0.887894 0.351511 0.206975 -0.134807
H3    H     H_    0.438645 0.573246 0.731824 0.134619
H4    H     H_    0.940217 0.418702 0.232865 0.139215
C17   C     C_R   0.339164 0.662196 0.750476 -0.134265
C18   C     C_R   0.839610 0.334125 0.250611 -0.134215
H5    H     H_    0.355134 0.605621 0.808986 0.152900
H6    H     H_    0.856347 0.387731 0.309822 0.154980
C19   C     C_R   0.271332 0.751544 0.719481 0.028972
C20   C     C_R   0.770661 0.248993 0.218676 0.026958
C21   C     C_R   0.212362 0.603628 0.811073 -0.138765
C22   C     C_R   0.712712 0.397295 0.310976 -0.140074
H7    H     H_    0.241070 0.474664 0.807849 0.132559
H8    H     H_    0.741859 0.526310 0.307831 0.132725
C23   C     C_R   0.168636 0.609845 0.860100 0.213851
C24   C     C_R   0.669107 0.391360 0.360177 0.210357
C25   C     C_R   0.128303 0.775236 0.863895 -0.112695
C26   C     C_R   0.628742 0.225184 0.364309 -0.093299
C27   C     C_R   0.135255 0.930260 0.818148 -0.138130
C28   C     C_R   0.634793 0.070046 0.317884 -0.155866
H9    H     H_    0.103891 0.056433 0.817152 0.184990
H10   H     H_    0.603112 0.943574 0.316811 0.154661
C29   C     C_R   0.182805 0.925933 0.773241 -0.071833
C30   C     C_R   0.681678 0.074762 0.272202 -0.062380
H11   H     H_    0.190017 0.052744 0.743170 0.146175
H12   H     H_    0.687937 0.948278 0.241229 0.144199
C31   C     C_R   0.220626 0.760740 0.767501 0.066166
C32   C     C_R   0.720134 0.239973 0.266870 0.067387
C33   C     C_R   0.802690 0.618619 0.764085 -0.025387
C34   C     C_R   0.299717 0.388314 0.270262 0.008752
C35   C     C_R   0.815050 0.772279 0.816521 -0.103976
C36   C     C_R   0.318878 0.221803 0.312567 -0.075840
C37   C     C_R   0.755052 0.890772 0.806593 -0.127331
C38   C     C_R   0.268890 0.075407 0.284876 0.007598
H13   H     H_    0.756070 0.984897 0.853086 0.196471
H14   H     H_    0.280285 0.943076 0.311294 0.161649
C39   C     C_R   0.691433 0.875158 0.740732 -0.046198
C40   C     C_R   0.202971 0.100004 0.223159 -0.019792
H15   H     H_    0.645334 0.963384 0.735013 0.223126
H16   H     H_    0.165179 0.987574 0.205418 0.226863
C41   C     C_R   0.682825 0.731317 0.685115 -0.064881
C42   C     C_R   0.184301 0.269346 0.183196 -0.084103
C43   C     C_R   0.737566 0.595295 0.702907 0.053593
C44   C     C_R   0.236051 0.411242 0.209518 0.062157
C45   C     C_3   0.732036 0.388614 0.717576 0.462651
C46   C     C_3   0.233488 0.616197 0.222313 0.476209
C47   C     C_3   0.809250 0.411358 0.779304 0.254234
C48   C     C_3   0.309813 0.591732 0.286717 0.256817
I1    I     I_    0.149153 0.929068 0.579647 -0.254997
I2    I     I_    0.645991 0.080461 0.077713 -0.269726
S1    S     S_3+6 0.726280 0.261881 0.627497 0.090223
O21   O     O_2   0.650250 0.198933 0.588287 -0.309905
O22   O     O_2   0.747377 0.393272 0.572971 -0.284140
O23   O     O_3   0.779742 0.071890 0.637678 -0.426794
H17   H     H_    0.789002 0.031604 0.691767 0.351498
S2    S     S_3+6 0.234000 0.729202 0.131978 0.054094
O24   O     O_2   0.285788 0.893453 0.146337 -0.297782
O25   O     O_2   0.256229 0.590465 0.080630 -0.285737
O26   O     O_3   0.152451 0.806516 0.082001 -0.485116
H18   H     H_    0.163971 0.902918 0.048023 0.343926
S3    S     S_3+6 0.653387 0.353349 0.756459 -0.029247
O27   O     O_2   0.586842 0.289081 0.693735 -0.322725
O28   O     O_2   0.665555 0.213727 0.821120 -0.348053
O29   O     O_3   0.632823 0.554684 0.794275 -0.512568
H19   H     H_    0.583069 0.535475 0.797354 0.364911
S4    S     S_3+6 0.154230 0.655039 0.258403 -0.040382
O30   O     O_2   0.165727 0.808778 0.318512 -0.342377
O31   O     O_2   0.087294 0.704358 0.193622 -0.320842
O32   O     O_3   0.136905 0.456382 0.300694 -0.509788
H20   H     H_    0.088818 0.476504 0.307998 0.372969
S5    S     S_3+6 0.889918 0.339572 0.754665 0.084615
O33   O     O_2   0.906456 0.135311 0.772454 -0.319626
O34   O     O_2   0.882237 0.372879 0.670293 -0.245819
O35   O     O_3   0.962190 0.466105 0.806661 -0.474949
H21   H     H_    0.959229 0.587021 0.778489 0.330412
S6    S     S_3+6 0.392271 0.655076 0.262477 0.095776
O36   O     O_2   0.456842 0.554845 0.314582 -0.337123
O37   O     O_2   0.386669 0.594131 0.181018 -0.236619
O38   O     O_3   0.408470 0.888037 0.270104 -0.477822
H22   H     H_    0.456198 0.904897 0.261393 0.359413
I3    I     I_    0.814956 0.333267 0.897165 -0.244228
I4    I     I_    0.310722 0.652124 0.406023 -0.251212
I5    I     I_    0.173620 0.361343 0.927445 -0.242255
I6    I     I_    0.673549 0.642515 0.426489 -0.211670

loop_
_geom_bond_atom_site_label_1
_geom_bond_atom_site_label_2
_ccdc_geom_bond_type
C29   H11   S    
S3    O27   D    
C37   H13   S    
S5    O33   D    
O4    C2    A    
V1    O19   S    
O35   H21   S    
C45   S1    S    
C13   C15   A    
O9    V1    S    
C38   H14   S    
C24   I6    S    
C11   H1    S    
C44   C46   S    
O3    C1    A    
C40   H16   S    
C25   C27   A    
C47   S5    S    
S4    O30   D    
C8    C14   S    
C9    C19   A    
S2    O26   S    
O13   V3    S    
S6    O36   D    
C28   H10   S    
C16   C18   A    
C33   C35   A    
O7    C3    A    
C6    C42   S    
C1    O11   A    
O5    C7    A    
O7    V1    S    
O6    C8    A    
C7    C13   S    
S2    O25   D    
O3    V1    S    
O14   V4    S    
C17   C19   A    
C34   C44   A    
C21   C23   A    
C33   C47   S    
C17   H5    S    
C34   C48   S    
C2    O12   A    
C15   H3    S    
C46   S4    S    
C16   H4    S    
C20   C32   S    
O29   H19   S    
C41   C43   A    
C22   H8    S    
O11   V3    S    
C23   I5    S    
C39   H15   S    
O17   V3    S    
C29   C31   A    
C10   C20   A    
C27   H9    S    
C46   C48   S    
C12   C14   A    
C36   C38   A    
O8    C4    A    
O8    V2    S    
S1    O21   D    
C35   C37   A    
O13   V1    S    
C3    C26   S    
O15   V3    S    
C21   H7    S    
C30   H12   S    
C48   S6    S    
C11   C13   A    
C10   I2    S    
C33   C43   A    
C9    I1    S    
S1    O22   D    
C40   C42   A    
O26   H18   S    
C39   C41   A    
S2    O24   D    
O10   V2    S    
O1    V3    S    
S5    O34   D    
C21   C31   A    
C46   S2    S    
S6    O37   D    
C48   I4    S    
C43   C45   S    
O18   V4    S    
S3    O29   S    
C42   C44   A    
C23   C25   A    
O16   C6    A    
O1    C3    A    
O12   V4    S    
C12   H2    S    
C30   C32   A    
C1    C36   S    
C45   S3    S    
C47   I3    S    
V2    O20   S    
C4    C25   S    
C18   C20   A    
C2    C35   S    
C37   C39   A    
C5    C41   S    
O18   C8    A    
C14   C16   A    
C22   C32   A    
O38   H22   S    
C19   C31   S    
O5    V1    S    
O17   C7    A    
O6    V2    S    
O10   C6    A    
C27   C29   A    
S6    O38   S    
O2    V4    S    
C28   C30   A    
O15   C5    A    
V3    O19   S    
O16   V4    S    
O32   H20   S    
S1    O23   S    
V4    O20   S    
S4    O31   D    
O9    C5    A    
C9    C11   A    
C10   C12   A    
C24   C26   A    
S5    O35   S    
O14   V2    S    
O23   H17   S    
O2    C4    A    
O4    V2    S    
C18   H6    S    
C45   C47   S    
S3    O28   D    
C38   C40   A    
C15   C17   A    
C34   C36   A    
C26   C28   A    
C22   C24   A    
S4    O32   S    
