data_mof_unit_2831.cif
_audit_creation_date              2013-03-05T15:44:58-0500
_audit_creation_method            fapswitch 2.2
_symmetry_space_group_name_H-M    P1
_symmetry_Int_Tables_number       1
_space_group_crystal_system       triclinic
_cell_length_a                    17.311076
_cell_length_b                    24.32593
_cell_length_c                    14.94096
_cell_angle_alpha                 89.747525
_cell_angle_beta                  125.439884
_cell_angle_gamma                 90.400372
_cell_volume                      5125.92295532

loop_
_atom_site_label
_atom_site_type_symbol
_atom_site_description
_atom_site_fract_x
_atom_site_fract_y
_atom_site_fract_z
_atom_type_partial_charge
C1    C     C_R   0.310720 0.375409 0.908973 -0.105727
C2    C     C_R   0.681873 0.366853 0.091136 -0.083333
C3    C     C_R   0.810720 0.875409 0.908973 -0.105725
C4    C     C_R   0.181878 0.866858 0.091134 -0.083356
H1    H     H_    0.252699 0.370590 0.823633 0.102024
H2    H     H_    0.735442 0.356556 0.175182 0.092934
H3    H     H_    0.752699 0.870590 0.823632 0.102020
H4    H     H_    0.235448 0.856560 0.175179 0.092941
N1    N     N_R   0.395440 0.396300 0.944370 -0.044570
N2    N     N_R   0.604560 0.396300 0.055630 -0.046496
N3    N     N_R   0.895440 0.896300 0.944370 -0.044566
N4    N     N_R   0.104560 0.896300 0.055630 -0.046501
C5    C     C_R   0.442605 0.651014 0.090628 -0.126471
C6    C     C_R   0.558604 0.651332 0.909764 -0.065970
C7    C     C_R   0.942607 0.151014 0.090628 -0.126453
C8    C     C_R   0.058601 0.151334 0.909766 -0.066165
H5    H     H_    0.488348 0.664085 0.175276 0.104670
H6    H     H_    0.512004 0.665065 0.825664 0.083855
H7    H     H_    0.988351 0.164085 0.175276 0.104619
H8    H     H_    0.011997 0.165069 0.825668 0.084045
N5    N     N_R   0.449890 0.602500 0.055780 -0.043484
N6    N     N_R   0.550110 0.602500 0.944220 -0.043801
N7    N     N_R   0.949890 0.102500 0.055780 -0.043478
N8    N     N_R   0.050110 0.102500 0.944220 -0.043849
C9    C     C_R   0.552494 0.454012 0.304597 -0.157545
C10   C     C_R   0.507802 0.454391 0.737820 -0.119090
C11   C     C_R   0.052500 0.954007 0.304598 -0.157531
C12   C     C_R   0.007800 0.954403 0.737804 -0.118976
H9    H     H_    0.574038 0.412257 0.332622 0.094162
H10   H     H_    0.503146 0.413027 0.711019 0.088739
H11   H     H_    0.074040 0.912251 0.332618 0.094156
H12   H     H_    0.003145 0.913042 0.710990 0.088735
N9    N     N_R   0.525090 0.470990 0.205640 -0.045744
N10   N     N_R   0.474910 0.470990 0.794360 -0.043888
N11   N     N_R   0.025090 0.970990 0.205640 -0.045747
N12   N     N_R   0.974910 0.970990 0.794360 -0.043883
C13   C     C_R   0.247682 0.545009 0.695785 -0.166775
C14   C     C_R   0.768897 0.546017 0.273298 -0.104046
C15   C     C_R   0.747682 0.045008 0.695785 -0.166736
C16   C     C_R   0.268896 0.046017 0.273300 -0.103963
H13   H     H_    0.238176 0.587054 0.667371 0.103751
H14   H     H_    0.790881 0.588621 0.290487 0.111886
H15   H     H_    0.738175 0.087053 0.667369 0.103766
H16   H     H_    0.290880 0.088621 0.290487 0.111884
N13   N     N_R   0.320240 0.527820 0.794510 -0.044372
N14   N     N_R   0.679760 0.527820 0.205490 -0.050474
N15   N     N_R   0.820240 0.027820 0.794510 -0.044369
N16   N     N_R   0.179760 0.027820 0.205490 -0.050477
C17   C     C_R   0.547490 0.545280 0.302275 -0.088259
C18   C     C_R   0.515227 0.545980 0.745916 -0.082079
C19   C     C_R   0.047501 0.045276 0.302283 -0.088157
C20   C     C_R   0.015213 0.045991 0.745914 -0.082399
H17   H     H_    0.558971 0.587961 0.326015 0.151040
H18   H     H_    0.523666 0.588730 0.734452 0.151157
H19   H     H_    0.058991 0.087957 0.326039 0.150796
H20   H     H_    0.023619 0.088743 0.734462 0.151522
N17   N     N_R   0.524580 0.527810 0.205160 -0.052124
N18   N     N_R   0.475420 0.527810 0.794840 -0.056493
N19   N     N_R   0.024580 0.027810 0.205160 -0.052107
N20   N     N_R   0.975420 0.027810 0.794840 -0.056484
C21   C     C_R   0.248803 0.453699 0.695773 -0.097425
C22   C     C_R   0.767836 0.453929 0.277315 -0.046932
C23   C     C_R   0.748804 0.953699 0.695773 -0.097419
C24   C     C_R   0.267836 0.953929 0.277318 -0.046930
H21   H     H_    0.241935 0.411710 0.669239 0.173163
H22   H     H_    0.789794 0.412445 0.306256 0.098694
H23   H     H_    0.741938 0.911710 0.669240 0.173165
H24   H     H_    0.289793 0.912445 0.306259 0.098691
N21   N     N_R   0.320750 0.470990 0.794990 -0.063313
N22   N     N_R   0.679250 0.470990 0.205010 -0.061444
N23   N     N_R   0.820750 0.970990 0.794990 -0.063314
N24   N     N_R   0.179250 0.970990 0.205010 -0.061453
C25   C     C_R   0.351624 0.651126 0.907596 -0.119844
C26   C     C_R   0.649809 0.651199 0.092322 -0.121580
C27   C     C_R   0.851626 0.151126 0.907597 -0.119834
C28   C     C_R   0.149809 0.151199 0.092323 -0.121636
H25   H     H_    0.313361 0.664391 0.823089 0.086332
H26   H     H_    0.687461 0.664761 0.176519 0.093731
H27   H     H_    0.813364 0.164392 0.823089 0.086343
H28   H     H_    0.187461 0.164761 0.176521 0.093749
N25   N     N_R   0.393580 0.602500 0.942610 -0.041524
N26   N     N_R   0.606420 0.602500 0.057390 -0.038896
N27   N     N_R   0.893580 0.102500 0.942610 -0.041517
N28   N     N_R   0.106420 0.102500 0.057390 -0.038915
C29   C     C_R   0.402356 0.375461 0.092782 -0.116903
C30   C     C_R   0.588910 0.364668 0.908376 -0.116724
C31   C     C_R   0.902356 0.875461 0.092782 -0.116908
C32   C     C_R   0.088918 0.864678 0.908373 -0.116772
H29   H     H_    0.429519 0.370732 0.178077 0.095162
H30   H     H_    0.555993 0.350427 0.825801 0.090390
H31   H     H_    0.929518 0.870732 0.178076 0.095165
H32   H     H_    0.056006 0.850445 0.825793 0.090399
N29   N     N_R   0.451750 0.396300 0.057540 -0.044065
N30   N     N_R   0.548250 0.396300 0.942460 -0.039533
N31   N     N_R   0.951750 0.896300 0.057540 -0.044062
N32   N     N_R   0.048250 0.896300 0.942460 -0.039540
C33   C     C_R   0.312212 0.362641 0.000792 0.044366
C34   C     C_R   0.677005 0.350085 0.999862 0.046625
C35   C     C_R   0.812211 0.862641 0.000791 0.044362
C36   C     C_R   0.177014 0.850096 0.999859 0.046624
C37   C     C_R   0.382996 0.683055 0.999111 0.044375
C38   C     C_R   0.620004 0.683272 0.001086 0.050708
C39   C     C_R   0.883001 0.183056 0.999112 0.044376
C40   C     C_R   0.120002 0.183273 0.001088 0.050746
C41   C     C_R   0.568875 0.499635 0.368320 0.115930
C42   C     C_R   0.541234 0.500195 0.713988 0.113015
C43   C     C_R   0.068900 0.999627 0.368326 0.115917
C44   C     C_R   0.041219 0.000218 0.713963 0.112790
C45   C     C_R   0.203292 0.499408 0.630962 0.192688
C46   C     C_R   0.825287 0.499913 0.315519 0.231832
C47   C     C_R   0.703292 0.999407 0.630962 0.192681
C48   C     C_R   0.325287 0.999913 0.315521 0.231831
Ni1   Ni    Ni4+2 0.435420 0.434250 0.870220 0.232748
Ni2   Ni    Ni4+2 0.564580 0.434250 0.129780 0.219141
Ni3   Ni    Ni4+2 0.935420 0.934250 0.870220 0.232728
Ni4   Ni    Ni4+2 0.064580 0.934250 0.129780 0.219126
Ni5   Ni    Ni4+2 0.563400 0.564580 0.128670 0.236881
Ni6   Ni    Ni4+2 0.436600 0.564580 0.871330 0.215260
Ni7   Ni    Ni4+2 0.063400 0.064580 0.128670 0.236873
Ni8   Ni    Ni4+2 0.936600 0.064580 0.871330 0.215257
C49   C     C_2   0.976906 0.465757 0.365565 0.397475
C50   C     C_2   0.079026 0.458154 0.452841 0.396571
C51   C     C_2   0.476904 0.965757 0.365566 0.397437
C52   C     C_2   0.579024 0.958151 0.452844 0.396585
C53   C     C_2   0.927188 0.498799 0.386822 -0.324951
C54   C     C_2   0.128787 0.502164 0.513454 -0.280396
C55   C     C_2   0.427187 0.998800 0.386823 -0.324949
C56   C     C_2   0.628787 0.002162 0.513454 -0.280374
H33   H     H_    0.961031 0.523553 0.460890 0.117599
H34   H     H_    0.100873 0.543057 0.481810 0.096274
H35   H     H_    0.461032 0.023555 0.460891 0.117621
H36   H     H_    0.600876 0.043055 0.481807 0.096274
C57   C     C_R   0.288776 0.765078 0.899886 -0.160077
C58   C     C_R   0.710144 0.767662 0.100316 -0.156066
C59   C     C_R   0.788776 0.265077 0.899887 -0.160081
C60   C     C_R   0.210143 0.267663 0.100318 -0.156073
H37   H     H_    0.268584 0.749463 0.821429 0.109275
H38   H     H_    0.733065 0.750343 0.178758 0.115518
H39   H     H_    0.768586 0.249463 0.821430 0.109284
H40   H     H_    0.233064 0.250344 0.178760 0.115520
C61   C     C_R   0.734293 0.306070 0.900174 -0.151991
C62   C     C_R   0.257208 0.313855 0.100166 -0.153456
C63   C     C_R   0.234300 0.806076 0.900172 -0.152027
C64   C     C_R   0.757207 0.813855 0.100165 -0.153463
H41   H     H_    0.675154 0.321518 0.821989 0.107657
H42   H     H_    0.314618 0.330347 0.178480 0.111720
H43   H     H_    0.175163 0.821526 0.821986 0.107643
H44   H     H_    0.814617 0.830347 0.178479 0.111722
C65   C     C_R   0.750281 0.321591 0.999835 0.149211
C66   C     C_R   0.238477 0.332966 0.000739 0.129936
C67   C     C_R   0.250290 0.821600 0.999832 0.149210
C68   C     C_R   0.738476 0.832966 0.000738 0.129948
C69   C     C_R   0.833931 0.305733 0.099268 -0.142294
C70   C     C_R   0.158042 0.313658 0.901345 -0.140161
C71   C     C_R   0.333937 0.805740 0.099265 -0.142316
C72   C     C_R   0.658042 0.813657 0.901343 -0.140164
H45   H     H_    0.853083 0.320688 0.177714 0.133433
H46   H     H_    0.137330 0.329967 0.822982 0.120183
H47   H     H_    0.353091 0.820696 0.177711 0.133437
H48   H     H_    0.637330 0.829967 0.822981 0.120163
C73   C     C_R   0.388600 0.764894 0.098959 -0.171359
C74   C     C_R   0.610912 0.767490 0.901390 -0.129718
C75   C     C_R   0.888601 0.264893 0.098961 -0.171357
C76   C     C_R   0.110910 0.267491 0.901392 -0.129680
H49   H     H_    0.447079 0.749199 0.177258 0.125724
H50   H     H_    0.555620 0.750068 0.822963 0.122292
H51   H     H_    0.947084 0.249199 0.177259 0.125701
H52   H     H_    0.055618 0.250069 0.822965 0.122388
C77   C     C_R   0.358556 0.739952 0.999289 0.132696
C78   C     C_R   0.643573 0.741052 0.000940 0.120233
C79   C     C_R   0.858560 0.239953 0.999290 0.132691
C80   C     C_R   0.143571 0.241053 0.000942 0.120214
C81   C     C_R   0.621393 0.546924 0.636346 0.215979
C82   C     C_R   0.630190 0.546443 0.548272 0.214020
C83   C     C_R   0.121273 0.046976 0.636190 0.216536
C84   C     C_R   0.130205 0.046454 0.548224 0.213696
C85   C     C_R   0.603445 0.498306 0.483859 -0.031060
C86   C     C_R   0.587470 0.498940 0.657098 -0.032999
C87   C     C_R   0.103511 0.998302 0.483876 -0.030904
C88   C     C_R   0.087435 0.998981 0.657044 -0.033348
C89   C     C_R   0.594979 0.448688 0.524892 -0.194102
C90   C     C_R   0.588507 0.448927 0.611944 -0.185754
C91   C     C_R   0.095073 0.948693 0.524955 -0.194124
C92   C     C_R   0.088575 0.948955 0.611991 -0.185619
H53   H     H_    0.582571 0.409909 0.483533 0.131807
H54   H     H_    0.574509 0.409938 0.634652 0.128991
H55   H     H_    0.082719 0.909904 0.483646 0.131791
H56   H     H_    0.074639 0.909967 0.634768 0.128983
N33   N     N_R   0.654220 0.593173 0.709300 0.243005
O1    O     O_R   0.615953 0.641285 0.672906 -0.367590
O2    O     O_R   0.714015 0.585682 0.814659 -0.380845
N34   N     N_R   0.673194 0.591801 0.530228 0.240651
O3    O     O_R   0.739928 0.582661 0.516927 -0.407845
O4    O     O_R   0.638983 0.641131 0.514211 -0.357637
N35   N     N_R   0.153831 0.093309 0.708894 0.243117
O5    O     O_R   0.114950 0.141281 0.672332 -0.368278
O6    O     O_R   0.214116 0.086006 0.814261 -0.380565
N36   N     N_R   0.173301 0.091782 0.530230 0.240484
O7    O     O_R   0.239898 0.082589 0.516717 -0.407974
O8    O     O_R   0.139463 0.141186 0.514750 -0.357154
O9    O     O_3   0.931135 0.436031 0.268776 -0.754005
H57   H     H_    0.979942 0.417582 0.264802 0.319582
O10   O     O_3   0.117703 0.406136 0.481795 -0.766195
H58   H     H_    0.066527 0.378814 0.437083 0.322465
O11   O     O_3   0.431133 0.936030 0.268778 -0.754042
H59   H     H_    0.479939 0.917577 0.264808 0.319578
O12   O     O_3   0.617694 0.906133 0.481805 -0.766206
H60   H     H_    0.566516 0.878813 0.437093 0.322464

loop_
_geom_bond_atom_site_label_1
_geom_bond_atom_site_label_2
_geom_bond_distance
_ccdc_geom_bond_type
N13   Ni6   1.864714 S    
C38   C78   1.461176 S    
C39   C79   1.450583 S    
O10   H58   0.991065 S    
C32   N32   1.331754 A    
C28   C40   1.383374 A    
C31   H31   1.078391 S    
O9    H57   0.991220 S    
C62   H42   1.080620 S    
C75   H51   1.080375 S    
C3    N3    1.334654 A    
C64   H44   1.080620 S    
C21   C45   1.383023 A    
C10   C42   1.389150 A    
C61   C65   1.400687 A    
C51   C52   1.479480 S    
C16   C48   1.379724 A    
C81   C82   1.409776 A    
N22   Ni2   1.843674 S    
N10   Ni1   1.852519 S    
C57   H37   1.080491 S    
N21   Ni1   1.852300 S    
N9    Ni2   1.861924 S    
C18   H18   1.075837 S    
N7    N27   1.377602 A    
C69   C75   1.378718 A    
C13   H13   1.082087 S    
C1    H1    1.078347 S    
C24   H24   1.077368 S    
C15   N15   1.334750 A    
C30   N30   1.331757 A    
C70   H46   1.080654 S    
C3    H3    1.078346 S    
N13   N21   1.382493 A    
N7    Ni7   1.852795 S    
C17   H17   1.077911 S    
C6    C38   1.382419 A    
N2    N30   1.377603 A    
N3    N31   1.377602 A    
C3    C35   1.390830 A    
N18   Ni6   1.861666 S    
C17   N17   1.333789 A    
C22   N22   1.332181 A    
N11   N19   1.382250 A    
C90   H54   1.078274 S    
C81   N33   1.435366 S    
C4    H4    1.072182 S    
N33   O2    1.301198 A    
C65   C69   1.400262 A    
C88   C92   1.399063 A    
C48   C55   1.438200 S    
C60   C62   1.384117 A    
C20   N20   1.334678 A    
C74   H50   1.080208 S    
C29   N29   1.333826 A    
C60   H40   1.080371 S    
C10   N10   1.328505 A    
C84   C87   1.413161 A    
C32   H32   1.073583 S    
C54   H34   1.088209 S    
C31   N31   1.333826 A    
N5    Ni5   1.852796 S    
C33   C66   1.461618 S    
N32   Ni3   1.844943 S    
C37   C77   1.450591 S    
N36   O7    1.301456 A    
C59   C79   1.400098 A    
C14   C46   1.379725 A    
C75   C79   1.400583 A    
C16   H16   1.080908 S    
C87   C91   1.396181 A    
N2    Ni2   1.861657 S    
N19   Ni7   1.852292 S    
C61   H41   1.080972 S    
C52   C56   1.341375 D    
C73   C77   1.400583 A    
C25   C37   1.382058 A    
C72   C74   1.383752 A    
C8    N8    1.333294 A    
C27   C39   1.382055 A    
C28   N28   1.333553 A    
C2    H2    1.072183 S    
C26   N26   1.333550 A    
C56   H36   1.088206 S    
C57   C77   1.400099 A    
N30   Ni1   1.844943 S    
C8    C40   1.382415 A    
N16   Ni7   1.873344 S    
C31   C35   1.389645 A    
C36   C67   1.449976 S    
C9    H9    1.080077 S    
C23   H23   1.077880 S    
C57   C63   1.379071 A    
C18   C42   1.389787 A    
N8    Ni8   1.843881 S    
C22   H22   1.077365 S    
C71   H47   1.080476 S    
O12   H60   0.991056 S    
C18   N18   1.334770 A    
C68   C72   1.401349 A    
C12   H12   1.069728 S    
C1    N1    1.334656 A    
C30   H30   1.073584 S    
C1    C33   1.390833 A    
C23   C47   1.383019 A    
C89   H53   1.079920 S    
C15   H15   1.082086 S    
N35   O5    1.300843 A    
C51   O11   1.383607 S    
C11   N11   1.328762 A    
C89   C90   1.368689 A    
C11   H11   1.080083 S    
N25   Ni6   1.864875 S    
C19   N19   1.333795 A    
C71   C73   1.378720 A    
C92   H56   1.078278 S    
N14   Ni5   1.873344 S    
C26   H26   1.079804 S    
N34   O4    1.300397 A    
N27   Ni8   1.864875 S    
C50   C54   1.341375 D    
C7    H7    1.079950 S    
C91   C92   1.368752 A    
C49   C53   1.347811 D    
C83   N35   1.435238 S    
C21   H21   1.077880 S    
C51   C55   1.347809 D    
C83   C84   1.409715 A    
C74   C78   1.402487 A    
C11   C43   1.382097 A    
N31   Ni4   1.836023 S    
C8    H8    1.079723 S    
N23   Ni3   1.852300 S    
N11   Ni4   1.861924 S    
C86   C90   1.398994 A    
C82   C85   1.413286 A    
N15   N23   1.382493 A    
C49   C50   1.479488 S    
C32   C36   1.380498 A    
C25   N25   1.329016 A    
C76   H52   1.080208 S    
C41   C85   1.463190 S    
N15   Ni8   1.864714 S    
N5    N25   1.377602 A    
C63   H43   1.080972 S    
C67   C71   1.400263 A    
C4    C36   1.379989 A    
C52   O12   1.381184 S    
C58   C78   1.401906 A    
N35   O6    1.301482 A    
C76   C80   1.402487 A    
C50   O10   1.381197 S    
C4    N4    1.331335 A    
N16   N24   1.382433 A    
C13   N13   1.334747 A    
C2    N2    1.331333 A    
N1    N29   1.377602 A    
C27   N27   1.329015 A    
N14   N22   1.382433 A    
N3    Ni3   1.851994 S    
C44   C88   1.467594 S    
N17   Ni5   1.852292 S    
C21   N21   1.335166 A    
C16   N16   1.335978 A    
O11   H59   0.991217 S    
C29   H29   1.078392 S    
C63   C67   1.400687 A    
C43   C87   1.463141 S    
C13   C45   1.376043 A    
C6    H6    1.079723 S    
C28   H28   1.079804 S    
C84   N36   1.436388 S    
N12   N20   1.382189 A    
C58   H38   1.080370 S    
C17   C41   1.384229 A    
C10   H10   1.069713 S    
C83   C88   1.414986 A    
C72   H48   1.080654 S    
N9    N17   1.382250 A    
C35   C68   1.461617 S    
N24   Ni4   1.843674 S    
N6    N26   1.377602 A    
C40   C80   1.461178 S    
C26   C38   1.383375 A    
C59   H39   1.080493 S    
N1    Ni1   1.851994 S    
N34   O3    1.301430 A    
C62   C66   1.401958 A    
N8    N28   1.377602 A    
C49   O9    1.383608 S    
C64   C68   1.401956 A    
C5    N5    1.327914 A    
C15   C47   1.376047 A    
C6    N6    1.333290 A    
C27   H27   1.080087 S    
C81   C86   1.414890 A    
C12   C44   1.389291 A    
N28   Ni7   1.855057 S    
C85   C89   1.396206 A    
C7    N7    1.327914 A    
C2    C34   1.379977 A    
C22   C46   1.377646 A    
N20   Ni8   1.861666 S    
C19   H19   1.077962 S    
N29   Ni2   1.836023 S    
C24   N24   1.332181 A    
C69   H45   1.080477 S    
N33   O1    1.300688 A    
C30   C34   1.380492 A    
C55   H35   1.086088 S    
C9    C41   1.382164 A    
C14   N14   1.335980 A    
C24   C48   1.377645 A    
C29   C33   1.389643 A    
C70   C76   1.383753 A    
C46   C53   1.438200 S    
C58   C64   1.384116 A    
C5    H5    1.079949 S    
C14   H14   1.080909 S    
C53   H33   1.086088 S    
C45   C54   1.457581 S    
C59   C61   1.379066 A    
C60   C80   1.401905 A    
C12   N12   1.328589 A    
C19   C43   1.384253 A    
C66   C70   1.401348 A    
N6    Ni6   1.843881 S    
C82   N34   1.436294 S    
C47   C56   1.457581 S    
N10   N18   1.382189 A    
C25   H25   1.080086 S    
N4    N32   1.377603 A    
C20   C44   1.389721 A    
N36   O8    1.300470 A    
N26   Ni5   1.855058 S    
C7    C39   1.381130 A    
N12   Ni3   1.852519 S    
C5    C37   1.381134 A    
C23   N23   1.335162 A    
C42   C86   1.467506 S    
C73   H49   1.080377 S    
C91   H55   1.079930 S    
C20   H20   1.075724 S    
C9    N9    1.328753 A    
N4    Ni4   1.861657 S    
C34   C65   1.449968 S    
