data_mof_unit_4705.cif
_audit_creation_date              2012-12-10T17:02:18-0500
_audit_creation_method            fapswitch 2.2
_symmetry_space_group_name_H-M    P1
_symmetry_Int_Tables_number       1
_space_group_crystal_system       triclinic
_cell_length_a                    10.630596
_cell_length_b                    10.654439
_cell_length_c                    10.110048
_cell_angle_alpha                 93.5368
_cell_angle_beta                  91.625143
_cell_angle_gamma                 89.647443
_cell_volume                      1142.44292131

loop_
_atom_site_label
_atom_site_type_symbol
_atom_type_description
_atom_site_fract_x
_atom_site_fract_y
_atom_site_fract_z
_atom_type_partial_charge
Br1   Br    Br    0.665941 0.056451 0.454942 -0.335227
Br2   Br    Br    0.654860 0.711040 0.860729 -0.352217
Br3   Br    Br    0.718624 0.651238 0.170671 -0.305521
Br4   Br    Br    0.327836 0.858686 0.264099 -0.302924
C1    C     C_R   0.500929 0.262593 0.495719 0.960884
C2    C     C_2   0.500569 0.129405 0.481121 0.059741
C3    C     C_2   0.567118 0.575319 0.933757 0.234937
C4    C     C_R   0.258903 0.505471 0.497734 0.897435
C5    C     C_2   0.580799 0.562410 0.080972 0.332477
C6    C     C_R   0.491102 0.737028 0.503990 1.000744
C7    C     C_R   0.738402 0.480361 0.500974 0.941189
C8    C     C_R   0.097690 0.628175 0.711119 -0.070140
C9    C     C_R   0.038783 0.628535 0.836054 -0.092605
C10   C     C_R   0.951326 0.534422 0.856577 -0.140720
C11   C     C_R   0.903994 0.457356 0.749963 -0.109940
C12   C     C_R   0.055811 0.540158 0.606530 0.063160
C13   C     C_R   0.942924 0.478816 0.621110 -0.004270
C14   C     C_2   0.127692 0.389535 0.260576 1.031556
C15   C     C_2   0.452238 0.384546 0.889283 0.979982
C16   C     C_2   0.192470 0.725277 0.687251 0.943458
C17   C     C_2   0.060410 0.726986 0.945305 1.035012
C18   C     C_2   0.821975 0.349510 0.775739 1.005140
C19   C     C_2   0.862831 0.340819 0.275340 1.008820
C20   C     C_2   0.262963 0.121844 0.474550 0.987471
C21   C     C_R   0.122514 0.504135 0.490499 -0.115509
C22   C     C_R   0.060452 0.437272 0.380358 -0.084948
C23   C     C_R   0.931853 0.412222 0.386541 -0.135684
C24   C     C_R   0.871437 0.446674 0.505045 -0.206817
C25   C     C_2   0.400455 0.931444 0.428075 0.372219
C26   C     C_2   0.463119 0.867816 0.518681 -0.347772
C27   C     C_2   0.391352 0.066076 0.457355 -0.220762
H1    H     H_    0.414844 0.482932 0.103835 0.139118
H2    H     H_    0.075350 0.100002 0.446529 0.365309
H3    H     H_    0.914893 0.525181 0.954433 0.247551
H4    H     H_    0.492210 0.915429 0.613025 0.167347
H5    H     H_    0.195749 0.427544 0.083514 0.344756
H6    H     H_    0.479250 0.223344 0.981494 0.368646
H7    H     H_    0.339929 0.828782 0.760482 0.360655
H8    H     H_    0.057676 0.773193 0.141947 0.396691
H9    H     H_    0.894550 0.232040 0.631391 0.323200
H10   H     H_    0.846481 0.293415 0.080422 0.393281
N1    N     N_2   0.501340 0.501330 0.852150 -0.195945
N2    N     N_2   0.501380 0.501360 0.147810 -0.197173
O1    O     O_R   0.499980 0.319060 0.613040 -0.583590
O2    O     O_R   0.156923 0.472119 0.164008 -0.719926
O3    O     O_2   0.347209 0.352350 0.848857 -0.581196
O4    O     O_R   0.525180 0.303583 0.964279 -0.751613
O5    O     O_2   0.188062 0.778888 0.583736 -0.606755
O6    O     O_R   0.286274 0.755503 0.783552 -0.752532
O7    O     O_2   0.084977 0.834929 0.920771 -0.543224
O8    O     O_R   0.044464 0.697939 0.076777 -0.717167
O9    O     O_2   0.751792 0.358084 0.868866 -0.563741
O10   O     O_R   0.824342 0.236812 0.697127 -0.716034
O11   O     O_2   0.779360 0.268103 0.299545 -0.562557
O12   O     O_R   0.500020 0.319100 0.386900 -0.588722
O13   O     O_R   0.893415 0.355057 0.143746 -0.769489
O14   O     O_2   0.248616 0.223976 0.534082 -0.643368
O15   O     O_R   0.157137 0.053677 0.427579 -0.683914
O16   O     O_R   0.316750 0.499980 0.613090 -0.584391
O17   O     O_R   0.316790 0.500020 0.386950 -0.612774
O18   O     O_R   0.499980 0.680900 0.613100 -0.594155
O19   O     O_R   0.500020 0.680940 0.386960 -0.553676
O20   O     O_R   0.683210 0.499980 0.613050 -0.617922
O21   O     O_R   0.683250 0.500020 0.386910 -0.570713
O22   O     O_2   0.153120 0.277702 0.244614 -0.599988
Zn1   Zn    Zn3+2 0.499970 0.499970 0.650990 1.084435
Zn2   Zn    Zn3+2 0.500030 0.500030 0.349010 1.090409

loop_
_geom_bond_atom_site_label_1
_geom_bond_atom_site_label_2
_ccdc_geom_bond_type
C10   H3    S    
O12   Zn2   S    
O21   Zn2   S    
H10   O13   S    
C11   C13   A    
C25   C26   D    
Br3   C5    S    
C19   C23   S    
H6    O4    S    
C6    C26   S    
H8    O8    S    
Br4   C25   S    
C14   C22   S    
C15   N1    S    
C17   O8    S    
H2    O15   S    
C8    C16   S    
C2    C27   D    
O20   Zn1   S    
C9    C17   S    
H5    O2    S    
C25   C27   S    
H7    O6    S    
C6    O19   A    
C9    C10   A    
C4    O17   A    
C14   O22   D    
C4    C21   S    
C22   C23   A    
C16   O6    S    
C7    C24   S    
C26   H4    S    
C20   O15   S    
C17   O7    D    
C1    O1    A    
C7    O21   A    
C18   O10   S    
C7    O20   A    
C11   C18   S    
C4    O16   A    
C1    C2    S    
C15   O4    S    
C15   O3    D    
C6    O18   A    
C5    N2    D    
Br1   C2    S    
C14   O2    S    
C8    C12   A    
C19   O13   S    
N1    Zn1   S    
C8    C9    A    
C19   O11   D    
C18   O9    D    
H9    O10   S    
C20   O14   D    
C3    N1    D    
C12   C21   A    
C3    C5    S    
H1    N2    S    
C10   C11   A    
C12   C13   A    
N2    Zn2   S    
C16   O5    D    
C20   C27   S    
C21   C22   A    
C13   C24   A    
O1    Zn1   S    
O18   Zn1   S    
C1    O12   A    
O19   Zn2   S    
Br2   C3    S    
O17   Zn2   S    
O16   Zn1   S    
C23   C24   A    
