data_mof_unit_1891.cif
_audit_creation_date              2012-10-26T21:21:55-0400
_audit_creation_method            fapswitch 2.2
_symmetry_space_group_name_H-M    P1
_symmetry_Int_Tables_number       1
_space_group_crystal_system       monoclinic
_cell_length_a                    18.386246
_cell_length_b                    18.38051
_cell_length_c                    11.677286
_cell_angle_alpha                 90.0
_cell_angle_beta                  75.97469
_cell_angle_gamma                 90.0
_cell_volume                      3828.67746284

loop_
_atom_site_label
_atom_site_type_symbol
_atom_type_description
_atom_site_fract_x
_atom_site_fract_y
_atom_site_fract_z
_atom_type_partial_charge
C1    C     C_R   0.399320 0.100272 0.521404 0.544222
C2    C     C_R   0.464290 0.000537 0.038618 -0.048920
C3    C     C_R   0.035710 0.500537 0.961382 -0.048921
C4    C     C_R   0.964290 0.500537 0.038618 -0.048920
C5    C     C_R   0.410052 0.999949 0.866245 0.426498
C6    C     C_R   0.589948 0.999949 0.133755 0.426498
C7    C     C_R   0.910052 0.499949 0.866245 0.426498
C8    C     C_R   0.089948 0.499949 0.133755 0.426497
C9    C     C_R   0.401424 0.999218 0.990647 -0.160510
C10   C     C_R   0.598576 0.999218 0.009353 -0.160510
C11   C     C_R   0.901424 0.499218 0.990647 -0.160510
C12   C     C_R   0.601321 0.900351 0.478396 0.547830
C13   C     C_R   0.098576 0.499218 0.009353 -0.160510
C14   C     C_R   0.542545 0.000448 0.837717 -0.003592
C15   C     C_R   0.457455 0.000448 0.162283 -0.003592
C16   C     C_R   0.042545 0.500448 0.837717 -0.003592
C17   C     C_R   0.957455 0.500448 0.162283 -0.003592
C18   C     C_R   0.656116 0.158154 0.466787 -0.000063
C19   C     C_R   0.341745 0.843880 0.534135 0.001349
C20   C     C_R   0.343884 0.158154 0.533212 -0.000063
C21   C     C_R   0.658255 0.843880 0.465865 0.001349
C22   C     C_R   0.156116 0.658154 0.466787 -0.000063
C23   C     C_R   0.600680 0.100272 0.478596 0.544221
C24   C     C_R   0.841745 0.343880 0.534135 0.001349
C25   C     C_R   0.843884 0.658154 0.533212 -0.000063
C26   C     C_R   0.158255 0.343880 0.465865 0.001349
C27   C     C_R   0.261633 0.753835 0.653528 -0.144237
C28   C     C_R   0.734588 0.249677 0.348333 -0.142224
C29   C     C_R   0.738367 0.753836 0.346472 -0.144237
C30   C     C_R   0.265412 0.249677 0.651667 -0.142223
C31   C     C_R   0.761633 0.253836 0.653528 -0.144237
C32   C     C_R   0.234587 0.749678 0.348333 -0.142223
C33   C     C_R   0.238367 0.253836 0.346472 -0.144237
C34   C     C_R   0.398679 0.900351 0.521604 0.547831
C35   C     C_R   0.765412 0.749677 0.651667 -0.142223
C36   C     C_R   0.314539 0.808979 0.643048 -0.131190
C37   C     C_R   0.681667 0.194555 0.358851 -0.145892
C38   C     C_R   0.685462 0.808979 0.356952 -0.131190
C39   C     C_R   0.318333 0.194555 0.641149 -0.145892
C40   C     C_R   0.814539 0.308979 0.643048 -0.131190
C41   C     C_R   0.181667 0.694556 0.358851 -0.145892
C42   C     C_R   0.185461 0.308979 0.356952 -0.131190
C43   C     C_R   0.818332 0.694555 0.641149 -0.145892
C44   C     C_R   0.314858 0.824152 0.436137 -0.132798
C45   C     C_R   0.899320 0.600272 0.521404 0.544222
C46   C     C_R   0.682847 0.178050 0.564877 -0.130114
C47   C     C_R   0.685142 0.824152 0.563863 -0.132799
C48   C     C_R   0.317153 0.178050 0.435123 -0.130114
C49   C     C_R   0.814858 0.324152 0.436136 -0.132798
C50   C     C_R   0.182847 0.678049 0.564877 -0.130114
C51   C     C_R   0.185142 0.324152 0.563863 -0.132799
C52   C     C_R   0.817153 0.678050 0.435123 -0.130114
C53   C     C_R   0.261690 0.769321 0.446049 0.049182
C54   C     C_R   0.735244 0.233565 0.555403 0.048628
C55   C     C_R   0.738309 0.769321 0.553951 0.049182
C56   C     C_R   0.101321 0.400351 0.478396 0.547830
C57   C     C_R   0.264756 0.233565 0.444597 0.048628
C58   C     C_R   0.761690 0.269321 0.446049 0.049182
C59   C     C_R   0.235244 0.733565 0.555402 0.048628
C60   C     C_R   0.238309 0.269321 0.553951 0.049182
C61   C     C_R   0.764756 0.733565 0.444597 0.048628
C62   C     C_3   0.710967 0.039862 0.132680 -0.000466
C63   C     C_3   0.779012 0.995360 0.068347 -0.272534
C64   C     C_3   0.845316 0.044514 0.014207 -0.483958
C65   C     C_3   0.289033 0.039862 0.867320 -0.000466
C66   C     C_3   0.220988 0.995359 0.931654 -0.272534
C67   C     C_R   0.100680 0.600272 0.478596 0.544221
C68   C     C_3   0.154684 0.044513 0.985795 -0.483958
C69   C     C_3   0.210966 0.539863 0.132681 -0.000465
C70   C     C_3   0.279013 0.495362 0.068347 -0.272534
C71   C     C_3   0.345315 0.544516 0.014209 -0.483958
C72   C     C_3   0.789033 0.539862 0.867320 -0.000467
C73   C     C_3   0.720988 0.495359 0.931654 -0.272534
C74   C     C_3   0.654684 0.544512 0.985795 -0.483958
C75   C     C_R   0.898679 0.400351 0.521604 0.547831
C76   C     C_R   0.535710 0.000537 0.961382 -0.048921
Cu1   Cu    Cu3+1 0.507800 1.000000 0.383250 0.986588
Cu2   Cu    Cu3+1 0.492200 0.000000 0.616750 0.986589
Cu3   Cu    Cu3+1 0.007800 0.500000 0.383250 0.986588
Cu4   Cu    Cu3+1 0.992200 0.500000 0.616750 0.986589
H1    H     H_    0.402410 0.000349 0.222351 0.117114
H2    H     H_    0.835201 0.351370 0.352036 0.117285
H3    H     H_    0.836901 0.650332 0.351331 0.115877
H4    H     H_    0.164799 0.351370 0.647963 0.117285
H5    H     H_    0.660412 0.180842 0.282835 0.120271
H6    H     H_    0.334662 0.823731 0.719753 0.148153
H7    H     H_    0.339588 0.180842 0.717165 0.120272
H8    H     H_    0.665339 0.823732 0.280246 0.148154
H9    H     H_    0.160411 0.680843 0.282836 0.120271
H10   H     H_    0.834662 0.323732 0.719754 0.148153
H11   H     H_    0.839588 0.680842 0.717165 0.120271
H12   H     H_    0.597590 0.000349 0.777648 0.117114
H13   H     H_    0.165338 0.323732 0.280246 0.148154
H14   H     H_    0.741576 0.226990 0.737938 0.098748
H15   H     H_    0.254050 0.777034 0.264242 0.100189
H16   H     H_    0.258424 0.226990 0.262062 0.098748
H17   H     H_    0.745949 0.777033 0.735759 0.100189
H18   H     H_    0.241577 0.726989 0.737938 0.098748
H19   H     H_    0.754051 0.277033 0.264242 0.100189
H20   H     H_    0.758424 0.726990 0.262062 0.098748
H21   H     H_    0.245949 0.277033 0.735758 0.100189
H22   H     H_    0.346230 0.996455 0.049764 0.080437
H23   H     H_    0.902410 0.500349 0.222351 0.117114
H24   H     H_    0.653770 0.996455 0.950237 0.080437
H25   H     H_    0.846229 0.496455 0.049764 0.080437
H26   H     H_    0.153771 0.496454 0.950237 0.080437
H27   H     H_    0.726760 0.069304 0.206034 0.158335
H28   H     H_    0.696766 0.082592 0.073765 0.096299
H29   H     H_    0.795548 0.957530 0.131914 0.173868
H30   H     H_    0.764629 0.962271 0.997417 0.153140
H31   H     H_    0.830565 0.081704 0.948304 0.145423
H32   H     H_    0.893893 0.010695 0.969180 0.148049
H33   H     H_    0.861705 0.077188 0.083978 0.149207
H34   H     H_    0.097590 0.500349 0.777648 0.117114
H35   H     H_    0.273239 0.069304 0.793967 0.158335
H36   H     H_    0.303233 0.082592 0.926236 0.096299
H37   H     H_    0.204452 0.957530 0.868086 0.173868
H38   H     H_    0.235372 0.962270 0.002582 0.153140
H39   H     H_    0.169435 0.081702 0.051699 0.145423
H40   H     H_    0.106107 0.010693 0.030822 0.148049
H41   H     H_    0.138294 0.077187 0.916025 0.149207
H42   H     H_    0.226759 0.569304 0.206035 0.158336
H43   H     H_    0.196765 0.582592 0.073766 0.096299
H44   H     H_    0.295548 0.457532 0.131914 0.173868
H45   H     H_    0.663099 0.150332 0.648669 0.115877
H46   H     H_    0.264630 0.462273 0.997417 0.153140
H47   H     H_    0.330565 0.581707 0.948307 0.145423
H48   H     H_    0.393894 0.510698 0.969182 0.148049
H49   H     H_    0.361704 0.577190 0.083981 0.149207
H50   H     H_    0.773239 0.569304 0.793967 0.158335
H51   H     H_    0.803233 0.582592 0.926236 0.096299
H52   H     H_    0.704452 0.457530 0.868086 0.173868
H53   H     H_    0.735372 0.462270 0.002582 0.153140
H54   H     H_    0.669435 0.581702 0.051698 0.145423
H55   H     H_    0.606107 0.510692 0.030822 0.148049
H56   H     H_    0.335200 0.851371 0.352037 0.117284
H57   H     H_    0.638294 0.577187 0.916025 0.149207
H58   H     H_    0.336901 0.150332 0.351331 0.115877
H59   H     H_    0.664799 0.851370 0.647964 0.117285
H60   H     H_    0.163100 0.650331 0.648668 0.115877
N1    N     N_R   0.519530 0.000000 0.207810 -0.217044
N2    N     N_R   0.480470 1.000000 0.792190 -0.217044
N3    N     N_R   0.019530 0.500000 0.207810 -0.217044
N4    N     N_R   0.980470 0.500000 0.792190 -0.217044
O1    O     O_R   0.430030 0.075530 0.417420 -0.522904
O2    O     O_R   0.583140 0.924490 0.385390 -0.454477
O3    O     O_R   0.583140 0.075510 0.385390 -0.477320
O4    O     O_R   0.416860 0.924490 0.614610 -0.454477
O5    O     O_R   0.916860 0.575510 0.614610 -0.477320
O6    O     O_R   0.083140 0.424490 0.385390 -0.454477
O7    O     O_R   0.083140 0.575510 0.385390 -0.477321
O8    O     O_R   0.916860 0.424490 0.614610 -0.454477
O9    O     O_3   0.650983 0.992571 0.183408 -0.534433
O10   O     O_3   0.349017 0.992572 0.816592 -0.534432
O11   O     O_3   0.150983 0.492571 0.183407 -0.534433
O12   O     O_R   0.569970 0.924470 0.582580 -0.524016
O13   O     O_3   0.849017 0.492572 0.816592 -0.534432
O14   O     O_R   0.569970 0.075530 0.582580 -0.522904
O15   O     O_R   0.430030 0.924470 0.417420 -0.524016
O16   O     O_R   0.930030 0.575530 0.417420 -0.522904
O17   O     O_R   0.069970 0.424470 0.582580 -0.524016
O18   O     O_R   0.069970 0.575530 0.582580 -0.522904
O19   O     O_R   0.930030 0.424470 0.417420 -0.524016
O20   O     O_R   0.416860 0.075510 0.614610 -0.477320

loop_
_geom_bond_atom_site_label_1
_geom_bond_atom_site_label_2
_ccdc_geom_bond_type
C44   H56   S    
C66   C68   S    
C14   N2    A    
C27   H18   S    
Cu2   O20   S    
C8    C13   A    
Cu1   O1    S    
C42   H13   S    
C73   C74   S    
C46   H45   S    
C41   H9    S    
C39   H7    S    
C25   C43   A    
C53   C59   A    
C48   C57   A    
C15   H1    S    
Cu1   Cu2   S    
C7    C11   A    
C69   O11   S    
C50   C59   A    
C69   H42   S    
C47   C55   A    
C16   N4    A    
C18   C37   A    
C52   C61   A    
Cu2   N2    S    
C68   H39   S    
C50   H60   S    
C64   H32   S    
C22   C41   A    
C62   H28   S    
C69   H43   S    
C5    O10   S    
C23   O14   A    
C55   C61   A    
C31   C40   A    
C75   O19   A    
C12   O2    A    
C8    O11   S    
C15   N1    A    
C34   O4    A    
C44   C53   A    
Cu2   O14   S    
Cu3   N3    S    
C21   C38   A    
C1    O20   A    
C9    H22   S    
Cu4   N4    S    
C66   H37   S    
C30   C60   A    
C29   C38   A    
C11   H25   S    
C32   C41   A    
C70   C71   S    
C35   C43   A    
Cu1   O3    S    
C3    C13   A    
Cu2   O4    S    
C22   C50   A    
C34   O15   A    
C70   H46   S    
C73   H52   S    
C65   H35   S    
C71   H47   S    
C45   O16   A    
C10   C76   A    
C12   O12   A    
C18   C46   A    
C7    N4    A    
Cu4   O5    S    
Cu4   O17   S    
C74   H57   S    
C29   C61   A    
C67   O7    A    
C18   C23   S    
Cu1   O2    S    
C17   N3    A    
Cu3   O16   S    
C20   C39   A    
C72   C73   S    
C57   C60   A    
C62   H27   S    
C36   H6    S    
C35   C55   A    
C56   O17   A    
C43   H11   S    
C72   O13   S    
C63   C64   S    
C38   H8    S    
C4    C11   A    
C14   C76   A    
C49   H2    S    
C63   H29   S    
C52   H3    S    
C5    C9    A    
C62   C63   S    
C71   H49   S    
C75   O8    A    
C14   H12   S    
C74   H55   S    
C46   C54   A    
C6    N1    A    
C2    C15   A    
Cu4   O18   S    
C20   C48   A    
C26   C56   S    
Cu1   O15   S    
Cu3   O6    S    
C4    C17   A    
C28   H19   S    
C73   H53   S    
C65   H36   S    
C71   H48   S    
C1    O1    A    
C33   C42   A    
C56   O6    A    
C3    C4    A    
C33   H16   S    
C25   C45   S    
C32   C53   A    
C2    C76   A    
C19   C44   A    
C26   C42   A    
C72   H51   S    
Cu3   O7    S    
C54   C58   A    
C37   H5    S    
C24   C49   A    
Cu4   O8    S    
C1    C20   S    
C33   C57   A    
C64   H33   S    
C29   H20   S    
Cu3   O19   S    
C13   H26   S    
C64   H31   S    
C19   C34   S    
C16   H34   S    
C68   H41   S    
C6    C10   A    
C24   C75   S    
C72   H50   S    
C7    O13   S    
C28   C58   A    
C27   C36   A    
C31   H14   S    
C62   O9    S    
C48   H58   S    
C19   C36   A    
C63   H30   S    
C10   H24   S    
C17   H23   S    
C25   C52   A    
C27   C59   A    
C26   C51   A    
C68   H40   S    
C67   O18   A    
Cu2   O12   S    
C5    N2    A    
C23   O3    A    
C28   C37   A    
C74   H54   S    
C30   H21   S    
C24   C40   A    
C30   C39   A    
C8    N3    A    
C45   O5    A    
C31   C54   A    
C69   C70   S    
Cu1   N1    S    
C22   C67   S    
C6    O9    S    
C49   C58   A    
Cu3   Cu4   S    
C12   C21   S    
C70   H44   S    
C32   H15   S    
C65   C66   S    
C66   H38   S    
C47   H59   S    
C51   C60   A    
C65   O10   S    
C40   H10   S    
C35   H17   S    
C2    C9    A    
C51   H4    S    
C3    C16   A    
C21   C47   A    
