data_mof_unit_1571.cif
_audit_creation_date              2012-12-10T17:05:16-0500
_audit_creation_method            fapswitch 2.2
_symmetry_space_group_name_H-M    P1
_symmetry_Int_Tables_number       1
_space_group_crystal_system       triclinic
_cell_length_a                    10.065253
_cell_length_b                    10.699731
_cell_length_c                    15.468958
_cell_angle_alpha                 90.313631
_cell_angle_beta                  67.403535
_cell_angle_gamma                 89.59291
_cell_volume                      1537.95015528

loop_
_atom_site_label
_atom_site_type_symbol
_atom_type_description
_atom_site_fract_x
_atom_site_fract_y
_atom_site_fract_z
_atom_type_partial_charge
C1    C     C_R   0.503544 0.736829 0.493230 0.781319
C2    C     C_R   0.689408 0.375701 0.047119 0.006252
C3    C     C_R   0.573257 0.459339 0.091940 0.103066
C4    C     C_R   0.409181 0.500740 0.676175 0.894720
C5    C     C_R   0.784846 0.343849 0.090047 -0.280110
C6    C     C_R   0.761989 0.389433 0.179729 0.532422
C7    C     C_R   0.563141 0.515588 0.176009 -0.330028
C8    C     C_2   0.616291 0.066902 0.475408 -0.248262
C9    C     C_2   0.494039 0.131097 0.520102 0.468273
C10   C     C_2   0.618823 0.933201 0.481683 -0.285635
C11   C     C_2   0.516585 0.866138 0.468564 0.461103
C12   C     C_R   0.399187 0.471381 0.919014 0.104572
C13   C     C_2   0.111943 0.442668 0.437110 -0.094480
C14   C     C_2   0.957610 0.426605 0.447582 0.029542
C15   C     C_R   0.498090 0.262977 0.504619 0.777978
C16   C     C_R   0.590618 0.496790 0.324074 0.887294
C17   C     C_R   0.350145 0.501860 0.778510 -0.208307
C18   C     C_R   0.647035 0.473389 0.223453 -0.175585
C19   C     C_R   0.172385 0.566439 0.928710 -0.322681
C20   C     C_R   0.210376 0.546328 0.832497 0.538866
C21   C     C_R   0.440958 0.462818 0.822246 -0.315584
C22   C     C_3   0.309721 0.134469 0.666202 -0.314961
C23   C     C_R   0.268379 0.534174 0.971009 0.100906
C24   C     C_3   0.468162 0.891409 0.337896 -0.301375
C25   C     C_3   0.811472 0.637608 0.614461 -0.140208
C26   C     C_3   0.974024 0.385735 0.199129 -0.317098
C27   C     C_3   0.998420 0.509777 0.816583 -0.296044
C28   C     C_3   0.519970 0.167768 0.876544 -0.321269
C29   C     C_R   0.491745 0.431313 0.963389 -0.058894
C30   C     C_R   0.468349 0.480990 0.053294 0.032137
C31   C     C_R   0.337639 0.545961 0.103300 -0.201895
C32   C     C_R   0.238218 0.569260 0.063232 -0.238907
C33   C     C_R   0.604387 0.341298 0.922510 0.490107
C34   C     C_R   0.703433 0.317836 0.963316 -0.318245
H1    H     H_    0.139715 0.619509 0.103493 0.142065
H2    H     H_    0.466604 0.789041 0.325215 0.144392
H3    H     H_    0.577683 0.929044 0.298718 0.152947
H4    H     H_    0.393760 0.936759 0.309893 0.198780
H5    H     H_    0.195562 0.400122 0.376599 0.141690
H6    H     H_    0.067898 0.518803 0.562689 0.215008
H7    H     H_    0.933774 0.350260 0.409641 0.101320
H8    H     H_    0.790529 0.552952 0.659280 0.123326
H9    H     H_    0.709451 0.685480 0.622801 0.190090
H10   H     H_    0.872832 0.703141 0.640548 0.144257
H11   H     H_    0.483969 0.587197 0.209888 0.157047
H12   H     H_    0.070884 0.612255 0.969331 0.154714
H13   H     H_    0.034562 0.338574 0.236481 0.182894
H14   H     H_    0.968772 0.487166 0.216356 0.169102
H15   H     H_    0.035022 0.369006 0.122924 0.163889
H16   H     H_    0.788889 0.249942 0.930615 0.170756
H17   H     H_    0.029243 0.409140 0.803252 0.151558
H18   H     H_    0.934969 0.534114 0.774071 0.180217
H19   H     H_    0.927631 0.525462 0.891321 0.165975
H20   H     H_    0.305951 0.576071 0.175071 0.147342
H21   H     H_    0.406078 0.200490 0.908803 0.162476
H22   H     H_    0.546878 0.108253 0.926500 0.169266
H23   H     H_    0.549447 0.434885 0.778869 0.230713
H24   H     H_    0.530614 0.108703 0.815027 0.192078
H25   H     H_    0.870014 0.275719 0.057454 0.151349
H26   H     H_    0.716750 0.112933 0.434670 0.152086
H27   H     H_    0.250902 0.220638 0.661310 0.178814
H28   H     H_    0.393019 0.156682 0.694822 0.132077
H29   H     H_    0.230582 0.071902 0.716854 0.198346
H30   H     H_    0.701729 0.890924 0.501148 0.162542
N1    N     N_2   0.148330 0.498670 0.499030 -0.161992
N2    N     N_2   0.852680 0.498640 0.499000 0.093486
O1    O     O_R   0.386950 0.680940 0.500010 -0.557025
O2    O     O_3   0.420551 0.919445 0.434318 -0.536861
O3    O     O_3   0.894047 0.610935 0.519496 -0.532539
O4    O     O_3   0.834776 0.335471 0.230008 -0.608010
O5    O     O_3   0.120388 0.587121 0.789443 -0.591486
O6    O     O_3   0.615444 0.268857 0.845692 -0.625646
O7    O     O_R   0.613110 0.680900 0.499990 -0.634886
O8    O     O_R   0.322330 0.500030 0.632270 -0.569727
O9    O     O_R   0.548480 0.499990 0.632240 -0.637360
O10   O     O_R   0.386890 0.319100 0.500010 -0.595653
O11   O     O_R   0.613050 0.319060 0.499990 -0.640722
O12   O     O_R   0.451520 0.500010 0.367760 -0.621167
O13   O     O_R   0.677670 0.499970 0.367730 -0.572222
O14   O     O_3   0.368955 0.072152 0.578725 -0.550516
Zn1   Zn    Zn3+2 0.349000 0.500030 0.500020 0.990823
Zn2   Zn    Zn3+2 0.651000 0.499970 0.499980 0.985395

loop_
_geom_bond_atom_site_label_1
_geom_bond_atom_site_label_2
_ccdc_geom_bond_type
C12   C29   A    
C19   C20   A    
C1    C11   S    
C25   H9    S    
C28   H22   S    
C19   H12   S    
C13   N1    D    
C27   H18   S    
C12   C23   A    
C24   H2    S    
C5    C6    A    
C7    H11   S    
C3    C7    A    
C30   C31   A    
N2    O3    S    
C22   H28   S    
C29   C33   A    
C17   C20   A    
C4    O9    A    
C33   O6    S    
C22   H29   S    
C8    C9    D    
C24   H4    S    
C20   O5    S    
C4    O8    A    
C26   H14   S    
C2    C34   A    
C15   O10   A    
C13   C14   S    
C28   O6    S    
C25   H10   S    
C28   H21   S    
C27   H17   S    
C33   C34   A    
C6    C18   A    
C34   H16   S    
C5    H25   S    
C32   H1    S    
C26   H15   S    
C12   C21   A    
C17   C21   A    
C9    O14   S    
C25   H8    S    
C3    C30   A    
C19   C23   A    
C21   H23   S    
C29   C30   A    
N2    Zn2   S    
N1    Zn1   S    
C31   C32   A    
C7    C18   A    
C24   H3    S    
C14   N2    D    
C26   H13   S    
C14   H7    S    
C4    C17   S    
C16   C18   S    
O1    Zn1   S    
H6    N1    S    
C26   O4    S    
C2    C5    A    
C25   O3    S    
O8    Zn1   S    
O7    Zn2   S    
C27   O5    S    
C11   O2    S    
C6    O4    S    
C10   H30   S    
O10   Zn1   S    
O13   Zn2   S    
C27   H19   S    
O9    Zn2   S    
C28   H24   S    
C16   O13   A    
C1    O7    A    
C23   C32   A    
C2    C3    A    
C9    C15   S    
C22   O14   S    
C8    H26   S    
C22   H27   S    
O12   Zn1   S    
C15   O11   A    
O11   Zn2   S    
C1    O1    A    
C16   O12   A    
C31   H20   S    
C13   H5    S    
C10   C11   D    
C24   O2    S    
C8    C10   S    
