data_mof_unit_2472.cif
_audit_creation_date              2012-10-26T21:14:49-0400
_audit_creation_method            fapswitch 2.2
_symmetry_space_group_name_H-M    P1
_symmetry_Int_Tables_number       1
_space_group_crystal_system       triclinic
_cell_length_a                    15.080395
_cell_length_b                    10.832971
_cell_length_c                    13.678182
_cell_angle_alpha                 90.057824
_cell_angle_beta                  89.866924
_cell_angle_gamma                 89.727371
_cell_volume                      2234.51030484

loop_
_atom_site_label
_atom_site_type_symbol
_atom_type_description
_atom_site_fract_x
_atom_site_fract_y
_atom_site_fract_z
_atom_type_partial_charge
C1    C     C_R   0.497567 0.262139 0.499760 0.547714
C2    C     C_R   0.579053 0.879416 0.667640 0.050414
C3    C     C_R   0.459355 0.108012 0.239167 -0.100604
C4    C     C_R   0.540645 0.891988 0.760833 -0.100604
C5    C     C_R   0.421310 0.167073 0.158538 -0.115222
C6    C     C_R   0.578690 0.832927 0.841461 -0.115222
C7    C     C_R   0.344601 0.238498 0.170264 -0.100065
C8    C     C_R   0.655399 0.761503 0.829736 -0.100065
C9    C     C_R   0.468752 0.933347 0.419857 -0.152947
C10   C     C_R   0.531248 0.066653 0.580143 -0.152947
C11   C     C_R   0.504331 0.871729 0.500758 -0.002819
C12   C     C_R   0.502433 0.737861 0.500239 0.547714
C13   C     C_R   0.495669 0.128271 0.499241 -0.002819
C14   C     C_R   0.536887 0.938831 0.581703 -0.032712
C15   C     C_R   0.463113 0.061169 0.418297 -0.032712
C16   C     C_R   0.328444 0.500130 0.500090 0.545770
C17   C     C_R   0.671556 0.499870 0.499910 0.545771
C18   C     C_R   0.557159 0.424119 0.793051 0.033936
C19   C     C_R   0.442841 0.575881 0.206949 0.033937
C20   C     C_R   0.442918 0.575915 0.793441 0.045170
C21   C     C_R   0.557081 0.424085 0.206559 0.045170
C22   C     C_R   0.441612 0.577843 0.896547 -0.017511
C23   C     C_R   0.045804 0.482238 0.677635 -0.135301
C24   C     C_R   0.558388 0.422157 0.103453 -0.017511
C25   C     C_R   0.500016 0.500012 0.948161 0.049789
C26   C     C_R   0.499984 0.499988 0.051839 0.049789
C27   C     C_R   0.558447 0.422198 0.896149 -0.020004
C28   C     C_R   0.441552 0.577802 0.103851 -0.020004
C29   C     C_R   0.383675 0.655547 0.949019 -0.155637
C30   C     C_R   0.616325 0.344453 0.050981 -0.155636
C31   C     C_R   0.383610 0.655480 0.051766 -0.154861
C32   C     C_R   0.616390 0.344520 0.948234 -0.154861
C33   C     C_R   0.814902 0.508614 0.411205 -0.140804
C34   C     C_R   0.954196 0.517761 0.322366 -0.135302
C35   C     C_R   0.185098 0.491384 0.588796 -0.140803
C36   C     C_R   0.768374 0.499638 0.499825 -0.016709
C37   C     C_R   0.231626 0.500362 0.500175 -0.016708
C38   C     C_R   0.814539 0.490336 0.588455 -0.147458
C39   C     C_R   0.185461 0.509664 0.411544 -0.147458
C40   C     C_R   0.906891 0.490709 0.589175 0.010316
C41   C     C_R   0.093108 0.509291 0.410824 0.010316
C42   C     C_R   0.953523 0.499891 0.499957 0.062171
C43   C     C_R   0.046477 0.500109 0.500043 0.062171
C44   C     C_R   0.907295 0.508776 0.410647 0.011386
C45   C     C_R   0.305236 0.249919 0.262461 -0.094941
C46   C     C_R   0.092705 0.491223 0.589353 0.011387
C47   C     C_R   0.953351 0.481977 0.677545 -0.137698
C48   C     C_R   0.046649 0.518022 0.322454 -0.137698
C49   C     C_R   0.694764 0.750082 0.737539 -0.094941
C50   C     C_R   0.343000 0.190997 0.343326 -0.051836
C51   C     C_R   0.657000 0.809003 0.656674 -0.051837
C52   C     C_R   0.420947 0.120584 0.332360 0.050414
Cu1   Cu    Cu3+1 0.500010 0.499980 0.597420 0.935261
Cu2   Cu    Cu3+1 0.499990 0.500020 0.402580 0.935261
H1    H     H_    0.601659 0.364927 0.751878 0.115849
H2    H     H_    0.081814 0.525008 0.253508 0.102713
H3    H     H_    0.080618 0.475403 0.746652 0.105528
H4    H     H_    0.919382 0.524596 0.253349 0.105529
H5    H     H_    0.245505 0.304536 0.271252 0.100144
H6    H     H_    0.754496 0.695465 0.728748 0.100143
H7    H     H_    0.312204 0.201211 0.414521 0.098483
H8    H     H_    0.687796 0.798789 0.585479 0.098483
H9    H     H_    0.451696 0.158271 0.087082 0.113008
H10   H     H_    0.548304 0.841728 0.912918 0.113008
H11   H     H_    0.779353 0.515746 0.342604 0.124811
H12   H     H_    0.398340 0.635073 0.248122 0.115849
H13   H     H_    0.220647 0.484252 0.657397 0.124810
H14   H     H_    0.442419 0.881571 0.358589 0.126994
H15   H     H_    0.557581 0.118429 0.641410 0.126994
H16   H     H_    0.338281 0.716207 0.090466 0.103482
H17   H     H_    0.661719 0.283793 0.909534 0.103482
H18   H     H_    0.315637 0.284876 0.107893 0.108423
H19   H     H_    0.684364 0.715125 0.892107 0.108423
H20   H     H_    0.519411 0.054142 0.229336 0.100800
H21   H     H_    0.480589 0.945857 0.770663 0.100800
H22   H     H_    0.398641 0.635404 0.752575 0.121881
H23   H     H_    0.601359 0.364596 0.247424 0.121881
H24   H     H_    0.338448 0.716382 0.910615 0.102595
H25   H     H_    0.661552 0.283618 0.089385 0.102595
H26   H     H_    0.778724 0.482379 0.656969 0.118249
H27   H     H_    0.221276 0.517621 0.343029 0.118248
H28   H     H_    0.918186 0.474991 0.746491 0.102714
N1    N     N_R   0.499960 0.499900 0.743810 -0.234714
N2    N     N_R   0.500040 0.500100 0.256190 -0.234714
O1    O     O_R   0.500000 0.319630 0.582270 -0.512653
O2    O     O_R   0.500000 0.680370 0.417730 -0.512653
O3    O     O_R   0.499990 0.319660 0.417730 -0.490812
O4    O     O_R   0.500010 0.680340 0.582270 -0.490812
O5    O     O_R   0.370260 0.499960 0.582280 -0.510370
O6    O     O_R   0.629740 0.500040 0.417720 -0.510370
O7    O     O_R   0.370250 0.499990 0.417740 -0.509209
O8    O     O_R   0.629750 0.500010 0.582260 -0.509209

loop_
_geom_bond_atom_site_label_1
_geom_bond_atom_site_label_2
_ccdc_geom_bond_type
C1    O3    A    
C40   C47   A    
C38   C40   A    
C22   C29   A    
Cu2   N2    S    
C33   H11   S    
C39   C41   A    
Cu1   Cu2   S    
C17   O8    A    
C5    H9    S    
C49   H6    S    
C7    C45   A    
C35   C37   A    
C24   C26   A    
Cu2   O6    S    
Cu2   O3    S    
C11   C14   A    
C33   C36   A    
C20   H22   S    
C19   H12   S    
C48   H2    S    
C47   H28   S    
C6    H10   S    
C3    H20   S    
C4    H21   S    
C31   H16   S    
C29   H24   S    
C49   C51   A    
C22   C25   A    
C50   C52   A    
C17   C36   S    
C16   C37   S    
C40   C42   A    
C16   O5    A    
C23   C46   A    
C41   C43   A    
C51   H8    S    
C42   C44   A    
C32   H17   S    
C1    O1    A    
C23   C47   A    
C17   O6    A    
C34   C44   A    
C39   H27   S    
C4    C6    A    
C10   C14   A    
C7    H18   S    
Cu2   O2    S    
C12   O4    A    
C6    C8    A    
C25   C26   A    
C2    C4    A    
C21   N2    A    
C35   H13   S    
C3    C52   A    
Cu1   O8    S    
C18   N1    A    
C15   C52   S    
C19   C28   A    
C9    C11   A    
C18   H1    S    
C30   H25   S    
C20   C22   A    
C13   C15   A    
Cu1   O5    S    
C21   C24   A    
C1    C13   S    
C42   C43   A    
C19   N2    A    
C5    C7    A    
C23   H3    S    
C45   H5    S    
C27   C32   A    
C33   C44   A    
C28   C31   A    
C18   C27   A    
C3    C5    A    
C10   C13   A    
C11   C12   S    
C25   C27   A    
C26   C28   A    
C12   O2    A    
Cu1   N1    S    
C36   C38   A    
C9    C15   A    
C9    H14   S    
Cu2   O7    S    
C29   C31   A    
C30   C32   A    
C38   H26   S    
C45   C50   A    
C8    H19   S    
C41   C48   A    
Cu1   O4    S    
C2    C14   S    
C43   C46   A    
C24   C30   A    
C2    C51   A    
C10   H15   S    
C34   C48   A    
C16   O7    A    
C37   C39   A    
C20   N1    A    
C21   H23   S    
C34   H4    S    
C50   H7    S    
Cu1   O1    S    
C35   C46   A    
C8    C49   A    
