data_mof_unit_3648.cif
_audit_creation_date              2013-03-05T15:41:54-0500
_audit_creation_method            fapswitch 2.2
_symmetry_space_group_name_H-M    P1
_symmetry_Int_Tables_number       1
_space_group_crystal_system       triclinic
_cell_length_a                    23.402177
_cell_length_b                    8.900644
_cell_length_c                    7.488709
_cell_angle_alpha                 101.682294
_cell_angle_beta                  95.507952
_cell_angle_gamma                 92.857997
_cell_volume                      1516.64489514

loop_
_atom_site_label
_atom_site_type_symbol
_atom_site_description
_atom_site_fract_x
_atom_site_fract_y
_atom_site_fract_z
_atom_type_partial_charge
O1    O     O_R   0.504120 0.286130 0.619770 -0.583890
O2    O     O_R   0.495880 0.713870 0.380230 -0.565932
O3    O     O_R   0.493410 0.256770 0.308360 -0.598184
O4    O     O_R   0.506590 0.743230 0.691640 -0.584950
C1    C     C_R   0.498444 0.200980 0.455173 0.817352
C2    C     C_R   0.501553 0.798701 0.545127 0.874983
O5    O     O_R   0.423230 0.514630 0.655730 -0.582608
O6    O     O_R   0.576770 0.485370 0.344270 -0.596156
O7    O     O_R   0.412530 0.485280 0.344320 -0.588866
O8    O     O_R   0.587470 0.514720 0.655680 -0.567387
C3    C     C_R   0.391272 0.499426 0.499814 0.865149
C4    C     C_R   0.608804 0.502764 0.500555 0.853156
Cu1   Cu    Cu3+1 0.506340 0.517380 0.684380 0.954927
Cu2   Cu    Cu3+1 0.493660 0.482620 0.315620 0.941744
C5    C     C_R   0.891465 0.667461 0.657289 0.658254
C6    C     C_R   0.108561 0.363730 0.442212 0.568092
N1    N     N_R   0.852910 0.568943 0.534230 -0.439737
N2    N     N_R   0.147613 0.487495 0.507332 -0.431224
C7    C     C_R   0.871450 0.462733 0.396953 0.638575
C8    C     C_R   0.129340 0.605300 0.632887 0.656820
C9    C     C_R   0.930282 0.434142 0.399595 -0.075584
C10   C     C_R   0.070304 0.632333 0.631097 -0.084568
C11   C     C_R   0.970441 0.541090 0.518210 -0.115331
C12   C     C_R   0.029982 0.521643 0.518782 -0.100253
C13   C     C_R   0.950969 0.666877 0.637760 -0.103642
C14   C     C_R   0.049163 0.385111 0.419766 -0.105143
C15   C     C_R   0.949806 0.301687 0.290708 0.233377
C16   C     C_R   0.050875 0.767482 0.734114 0.223956
C17   C     C_R   0.008617 0.273464 0.307128 0.183719
C18   C     C_R   0.991498 0.785632 0.735218 0.188101
O9    O     O_2   0.872669 0.759285 0.802337 -0.557890
O10   O     O_2   0.125468 0.220370 0.426452 -0.519555
O11   O     O_2   0.832538 0.383066 0.262174 -0.482522
O12   O     O_2   0.167772 0.690184 0.765172 -0.489138
C19   C     C_R   0.241307 0.636181 0.497335 0.323285
C20   C     C_R   0.765238 0.427363 0.588117 0.307416
C21   C     C_R   0.302136 0.639148 0.521076 0.123352
C22   C     C_R   0.704791 0.404772 0.568696 0.138452
C23   C     C_R   0.328772 0.499873 0.494963 -0.138774
C24   C     C_R   0.671467 0.515173 0.506441 -0.114579
C25   C     C_R   0.296090 0.362981 0.417830 -0.323729
C26   C     C_R   0.698138 0.653085 0.484060 -0.352100
H1    H     H_    0.318578 0.261766 0.369193 0.153656
H2    H     H_    0.672087 0.744356 0.454546 0.149675
C27   C     C_R   0.235891 0.360212 0.385491 0.309127
C28   C     C_R   0.757996 0.681102 0.519271 0.215160
C29   C     C_R   0.207983 0.492533 0.464707 0.079635
C30   C     C_R   0.792109 0.562981 0.555550 0.190863
C31   C     C_2   0.499358 0.035174 0.429410 -0.026440
C32   C     C_2   0.501658 0.963970 0.573060 0.024063
N3    N     N_2   0.484110 0.456420 0.038520 -0.218486
N4    N     N_2   0.515890 0.543580 0.961480 -0.214427
H3    H     H_    0.450956 0.392795 0.951673 0.225679
H4    H     H_    0.548747 0.608484 0.048614 0.229072
N5    N     N_2   0.910461 0.196942 0.162313 -0.372117
H5    H     H_    0.922913 0.165984 0.033087 0.278601
C33   C     C_3   0.881869 0.075016 0.229842 -0.502439
H6    H     H_    0.900773 0.964194 0.182798 0.191433
H7    H     H_    0.835671 0.062273 0.175645 0.259573
H8    H     H_    0.885353 0.100562 0.381706 0.248670
N6    N     N_2   0.091195 0.885767 0.836952 -0.387355
H9    H     H_    0.082701 0.924309 0.969640 0.263994
C34   C     C_3   0.105854 0.008269 0.745251 -0.489429
H10   H     H_    0.070254 0.085618 0.742302 0.198219
H11   H     H_    0.115321 0.960566 0.603364 0.287036
H12   H     H_    0.144735 0.077255 0.820887 0.231723
N7    N     N_2   0.026393 0.136510 0.199404 -0.426190
H13   H     H_    0.060753 0.154414 0.128026 0.269054
C35   C     C_3   0.029927 0.006038 0.288408 -0.599192
H14   H     H_    0.073020 0.959805 0.281408 0.265211
H15   H     H_    0.997604 0.912446 0.218875 0.203484
H16   H     H_    0.022921 0.038547 0.434837 0.228593
N8    N     N_2   0.973721 0.931036 0.818630 -0.426927
H17   H     H_    0.955449 0.931279 0.937680 0.291359
C36   C     C_3   0.944925 0.017378 0.696104 -0.632878
H18   H     H_    0.899978 0.032570 0.726764 0.270479
H19   H     H_    0.943503 0.957727 0.550284 0.210475
H20   H     H_    0.967699 0.132782 0.715241 0.225514
N9    N     N_R   0.213331 0.773643 0.478384 0.128024
O13   O     O_R   0.172057 0.767647 0.347057 -0.402700
O14   O     O_R   0.227634 0.903778 0.592777 -0.376862
N10   N     N_R   0.799617 0.308610 0.630888 0.101028
O15   O     O_R   0.795245 0.176701 0.516940 -0.433437
O16   O     O_R   0.842041 0.340008 0.761308 -0.379549
N11   N     N_2   0.336989 0.780025 0.557183 -0.430910
H21   H     H_    0.325837 0.863098 0.662464 0.289525
C37   C     C_3   0.348693 0.837068 0.395605 -0.647367
H22   H     H_    0.374620 0.948726 0.436791 0.202121
H23   H     H_    0.308015 0.854246 0.315774 0.243199
H24   H     H_    0.373341 0.754770 0.306732 0.252023
N12   N     N_2   0.677562 0.276893 0.623032 -0.408177
H25   H     H_    0.700703 0.238476 0.727104 0.276159
C38   C     C_3   0.653751 0.153475 0.474101 -0.674698
H26   H     H_    0.688479 0.097693 0.399791 0.255421
H27   H     H_    0.623793 0.197869 0.376726 0.227520
H28   H     H_    0.629656 0.066037 0.530014 0.202896
N13   N     N_2   0.205825 0.244247 0.242447 -0.381031
H29   H     H_    0.181252 0.283814 0.142060 0.243216
C39   C     C_3   0.229690 0.097546 0.184930 -0.530954
H30   H     H_    0.195744 0.014067 0.101588 0.262210
H31   H     H_    0.245026 0.051567 0.306589 0.262999
H32   H     H_    0.265394 0.109999 0.100251 0.194362
N14   N     N_2   0.782713 0.833443 0.545603 -0.399330
H33   H     H_    0.772908 0.883054 0.434483 0.274155
C40   C     C_3   0.770033 0.928982 0.716846 -0.501671
H34   H     H_    0.802197 0.028123 0.760305 0.276665
H35   H     H_    0.771902 0.864179 0.829427 0.229707
H36   H     H_    0.726376 0.971094 0.700269 0.190914
N15   N     N_2   0.494282 0.948455 0.245346 -0.405545
H37   H     H_    0.458865 0.970734 0.164766 0.260485
C41   C     C_3   0.546690 0.945300 0.157450 -0.632225
H38   H     H_    0.539235 0.867472 0.021139 0.259922
H39   H     H_    0.581503 0.901187 0.239931 0.203496
H40   H     H_    0.560004 0.061387 0.136917 0.228766
N16   N     N_2   0.502013 0.043836 0.758832 -0.431100
H41   H     H_    0.534560 0.127759 0.812242 0.282855
C42   C     C_3   0.445805 0.067090 0.820450 -0.649615
H42   H     H_    0.450491 0.132853 0.963753 0.228075
H43   H     H_    0.422635 0.954356 0.815973 0.241839
H44   H     H_    0.420150 0.132129 0.733336 0.214152

loop_
_geom_bond_atom_site_label_1
_geom_bond_atom_site_label_2
_geom_bond_distance
_ccdc_geom_bond_type
C37   H22   1.109400 S    
C34   H11   1.109163 S    
C38   H26   1.109878 S    
C15   C17   1.409582 A    
N8    C36   1.450921 S    
N8    H17   1.024783 S    
C41   H38   1.104408 S    
N1    C30   1.446513 S    
N5    H5    1.025429 S    
C19   C29   1.428304 A    
N2    C29   1.478498 S    
N13   H29   1.031654 S    
C23   C25   1.392993 A    
N11   H21   1.029117 S    
O5    C3    1.303548 A    
C40   H35   1.112547 S    
O1    C1    1.300615 A    
C21   N11   1.424424 S    
C19   C21   1.415812 A    
C12   C14   1.407645 A    
N15   C41   1.445389 S    
C15   N5    1.422285 S    
C33   H7    1.109659 S    
N16   H41   1.030468 S    
C5    O9    1.345119 S    
C35   H15   1.105948 S    
C32   N16   1.427412 S    
C26   C28   1.400584 A    
C19   N9    1.441568 S    
O4    Cu1   1.999611 S    
N6    C34   1.445433 S    
C17   N7    1.423554 S    
C41   H39   1.110374 S    
Cu2   N3    2.029843 S    
C20   N10   1.428110 S    
N16   C42   1.446013 S    
C11   C12   1.412326 A    
N6    H9    1.025296 S    
C8    O12   1.348771 S    
C16   N6    1.423000 S    
C27   C29   1.426071 A    
C9    C15   1.414027 A    
C34   H12   1.109170 S    
C38   H27   1.107063 S    
C10   C16   1.412425 A    
Cu1   Cu2   2.701368 S    
C25   H1    1.082767 S    
C1    C31   1.450600 S    
O2    C2    1.301374 A    
C26   H2    1.084760 S    
N13   C39   1.446906 S    
N4    H4    1.028339 S    
N11   C37   1.447579 S    
C9    C11   1.409433 A    
C6    C14   1.411086 A    
C40   H36   1.110132 S    
C28   C30   1.405051 A    
N3    N4    1.301495 D    
O4    C2    1.289123 A    
C7    O11   1.349114 S    
C42   H44   1.110666 S    
N12   H25   1.031000 S    
N9    O14   1.300771 A    
O7    Cu2   1.931909 S    
C33   H8    1.107853 S    
C34   H10   1.108314 S    
C22   N12   1.425530 S    
N7    H13   1.030499 S    
N7    C35   1.453315 S    
C4    C24   1.460858 S    
C35   H16   1.106261 S    
C36   H18   1.106959 S    
N12   C38   1.443812 S    
Cu1   N4    2.029843 S    
C36   H19   1.109924 S    
C39   H30   1.109439 S    
O6    C4    1.304744 A    
N14   C40   1.453363 S    
C2    C32   1.443099 S    
C3    C23   1.459821 S    
O7    C3    1.295125 A    
O3    Cu2   1.999611 S    
O8    C4    1.294866 A    
C39   H31   1.108690 S    
C8    C10   1.413412 A    
N10   O15   1.297161 A    
C38   H28   1.110183 S    
N10   O16   1.301285 A    
N5    C33   1.447746 S    
C10   C12   1.409925 A    
O1    Cu1   2.013580 S    
C31   N15   1.427742 S    
C40   H34   1.105258 S    
C13   C18   1.415711 A    
C18   N8    1.419288 S    
O6    Cu2   1.934552 S    
C7    C9    1.411557 A    
C24   C26   1.396938 A    
O3    C1    1.292781 A    
O8    Cu1   1.931909 S    
C5    N1    1.366194 A    
C6    O10   1.340509 S    
C28   N14   1.415497 S    
C42   H43   1.109321 S    
C16   C18   1.407509 A    
C21   C23   1.402063 A    
C27   N13   1.429352 S    
N15   H37   1.029213 S    
C22   C24   1.408269 A    
C33   H6    1.107024 S    
C20   C22   1.408182 A    
N1    C7    1.368106 A    
C20   C30   1.408882 A    
C41   H40   1.108946 S    
N2    C8    1.374405 A    
C11   C13   1.409232 A    
C35   H14   1.109915 S    
O2    Cu2   2.013580 S    
C36   H20   1.109413 S    
C5    C13   1.414234 A    
N9    O13   1.301634 A    
O5    Cu1   1.934552 S    
C39   H32   1.110629 S    
C14   C17   1.418542 A    
C6    N2    1.372227 A    
C31   C32   1.352845 D    
C37   H24   1.109341 S    
N14   H33   1.030703 S    
C37   H23   1.108733 S    
C25   C27   1.404490 A    
N3    H3    1.027530 S    
C42   H42   1.105866 S    
