data_mof_unit_843.cif
_audit_creation_date              2012-10-26T21:10:54-0400
_audit_creation_method            fapswitch 2.2
_symmetry_space_group_name_H-M    P1
_symmetry_Int_Tables_number       1
_space_group_crystal_system       triclinic
_cell_length_a                    10.84676
_cell_length_b                    14.659956
_cell_length_c                    14.561348
_cell_angle_alpha                 65.706558
_cell_angle_beta                  102.619915
_cell_angle_gamma                 102.149192
_cell_volume                      2040.41601118

loop_
_atom_site_label
_atom_site_type_symbol
_atom_type_description
_atom_site_fract_x
_atom_site_fract_y
_atom_site_fract_z
_atom_type_partial_charge
C1    C     C_R   0.475579 0.119339 0.311850 0.562082
C2    C     C_R   0.632778 0.778312 0.973509 -0.125809
C3    C     C_R   0.383642 0.151366 0.127698 0.258115
C4    C     C_R   0.617652 0.846526 0.872327 0.248813
C5    C     C_R   0.495969 0.289448 0.177511 -0.190916
C6    C     C_R   0.491995 0.711522 0.823092 -0.190078
C7    C     C_R   0.465813 0.360701 0.078649 0.016302
C8    C     C_R   0.515574 0.640118 0.923032 0.016726
C9    C     C_R   0.397583 0.324274 0.003186 0.006680
C10   C     C_R   0.584361 0.675951 0.998928 0.000425
C11   C     C_R   0.501980 0.466668 0.052711 0.044235
C12   C     C_R   0.524141 0.880605 0.688150 0.547119
C13   C     C_R   0.474580 0.534430 0.949477 0.045921
C14   C     C_R   0.409286 0.493892 0.876181 -0.139375
C15   C     C_R   0.563768 0.507161 0.126664 -0.134874
C16   C     C_R   0.263162 0.999219 0.503579 0.548457
C17   C     C_R   0.737150 0.999490 0.498617 0.538168
C18   C     C_R   0.370274 0.391114 0.903313 -0.142615
C19   C     C_R   0.605730 0.609338 0.099644 -0.142165
C20   C     C_R   0.708132 0.282976 0.671900 -0.169715
C21   C     C_R   0.298127 0.719897 0.323826 -0.183610
C22   C     C_R   0.677969 0.202566 0.640027 0.047236
C23   C     C_R   0.870553 0.996761 0.499833 -0.002163
C24   C     C_R   0.325129 0.798966 0.357562 0.025991
C25   C     C_R   0.521434 0.286446 0.507307 0.040601
C26   C     C_R   0.478589 0.713615 0.492677 0.033527
C27   C     C_R   0.550311 0.372401 0.533798 0.007496
C28   C     C_R   0.452759 0.628984 0.464214 0.014736
C29   C     C_R   0.642918 0.367227 0.620360 0.029940
C30   C     C_R   0.362743 0.635324 0.375969 0.038713
C31   C     C_R   0.488555 0.461144 0.479916 0.081278
C32   C     C_R   0.514949 0.540392 0.517902 0.074829
C33   C     C_R   0.603815 0.528920 0.607402 -0.123450
C34   C     C_R   0.130277 0.998339 0.507864 0.000927
C35   C     C_R   0.402317 0.473701 0.388941 -0.081898
C36   C     C_R   0.668055 0.445020 0.656125 -0.133922
C37   C     C_R   0.339475 0.558334 0.339173 -0.099053
C38   C     C_R   0.335902 0.152824 0.731026 -0.153146
C39   C     C_R   0.691880 0.886567 0.239056 -0.173522
C40   C     C_R   0.261998 0.087071 0.686395 -0.076939
C41   C     C_R   0.761963 0.937900 0.300103 -0.081123
C42   C     C_R   0.177604 0.124733 0.595813 0.000395
C43   C     C_R   0.823012 0.884073 0.397691 0.018216
C44   C     C_R   0.166143 0.228148 0.552191 -0.079203
C45   C     C_R   0.910143 0.939108 0.457027 -0.030125
C46   C     C_R   0.814348 0.778524 0.432927 -0.094226
C47   C     C_R   0.235507 0.293930 0.598238 0.282889
C48   C     C_R   0.746884 0.727051 0.370175 0.286734
C49   C     C_R   0.323657 0.255840 0.687274 -0.105889
C50   C     C_R   0.681741 0.781537 0.274913 -0.078807
C51   C     C_R   0.961181 0.053410 0.546962 -0.162124
C52   C     C_R   0.039368 0.939311 0.463436 -0.150633
C53   C     C_3   0.205666 0.440257 0.613792 0.000798
C54   C     C_3   0.085026 0.391447 0.664879 -0.284554
C55   C     C_3   0.051931 0.456705 0.712615 -0.484236
C56   C     C_R   0.090730 0.056409 0.550590 -0.031919
C57   C     C_3   0.852040 0.587725 0.424059 0.002897
C58   C     C_3   0.870563 0.567630 0.333202 -0.278969
C59   C     C_3   0.990216 0.518187 0.356357 -0.463768
C60   C     C_3   0.803424 0.952325 0.836262 0.003413
C61   C     C_3   0.886965 0.030838 0.875325 -0.265145
C62   C     C_3   0.018542 0.059246 0.842062 -0.489203
C63   C     C_3   0.404477 0.003248 0.117590 0.006594
C64   C     C_3   0.317774 0.961766 0.041548 -0.280832
C65   C     C_3   0.388508 0.902178 0.009879 -0.483330
C66   C     C_R   0.452447 0.186376 0.203605 -0.001052
C67   C     C_R   0.543678 0.813391 0.796549 -0.003834
C68   C     C_R   0.356985 0.220829 0.027959 -0.114408
Cu1   Cu    Cu3+1 0.466270 0.918260 0.475690 0.938223
Cu2   Cu    Cu3+1 0.533730 0.081740 0.524310 0.942305
H1    H     H_    0.384798 0.305068 0.721925 0.105150
H2    H     H_    0.446553 0.281215 0.446867 0.123266
H3    H     H_    0.276448 0.864814 0.316725 0.161935
H4    H     H_    0.727435 0.137406 0.679411 0.143158
H5    H     H_    0.780834 0.278791 0.737167 0.085477
H6    H     H_    0.228218 0.725365 0.256668 0.090587
H7    H     H_    0.626764 0.583991 0.641826 0.086029
H8    H     H_    0.381388 0.419235 0.353793 0.082798
H9    H     H_    0.402852 0.123887 0.799761 0.123847
H10   H     H_    0.646942 0.928297 0.163131 0.097474
H11   H     H_    0.270314 0.007179 0.722255 0.117666
H12   H     H_    0.624356 0.742662 0.227892 0.112140
H13   H     H_    0.770901 0.019561 0.270681 0.110697
H14   H     H_    0.100394 0.257707 0.482661 0.120224
H15   H     H_    0.861184 0.736724 0.508383 0.095410
H16   H     H_    0.931256 0.096955 0.581012 0.122819
H17   H     H_    0.068532 0.896162 0.428534 0.135806
H18   H     H_    0.318936 0.363168 0.845481 0.094850
H19   H     H_    0.656575 0.636201 0.158313 0.108537
H20   H     H_    0.433899 0.690004 0.763453 0.126386
H21   H     H_    0.554165 0.311914 0.236505 0.126935
H22   H     H_    0.195928 0.520773 0.565772 0.156235
H23   H     H_    0.302335 0.193886 0.970088 0.104979
H24   H     H_    0.292274 0.441951 0.670135 0.115191
H25   H     H_    0.003208 0.380929 0.607477 0.164522
H26   H     H_    0.100119 0.316078 0.725304 0.147030
H27   H     H_    0.133291 0.470824 0.768474 0.155363
H28   H     H_    0.968419 0.417234 0.752842 0.142535
H29   H     H_    0.027693 0.530107 0.652740 0.138375
H30   H     H_    0.849661 0.515403 0.491611 0.161787
H31   H     H_    0.935925 0.639018 0.443057 0.106287
H32   H     H_    0.786526 0.516902 0.314143 0.171300
H33   H     H_    0.878612 0.640235 0.266245 0.151357
H34   H     H_    0.686809 0.805162 0.031695 0.111270
H35   H     H_    0.075063 0.565479 0.379636 0.168856
H36   H     H_    0.004696 0.509692 0.287271 0.143679
H37   H     H_    0.980083 0.442154 0.418295 0.172183
H38   H     H_    0.807043 0.976074 0.753765 0.148172
H39   H     H_    0.845008 0.879890 0.877764 0.112343
H40   H     H_    0.840628 0.100118 0.846424 0.164284
H41   H     H_    0.897940 0.999570 0.959916 0.162656
H42   H     H_    0.066361 0.990955 0.868481 0.146361
H43   H     H_    0.078296 0.112876 0.875253 0.144101
H44   H     H_    0.009897 0.096462 0.757792 0.144898
H45   H     H_    0.386423 0.538933 0.796515 0.090557
H46   H     H_    0.440474 0.938957 0.184918 0.167638
H47   H     H_    0.489410 0.052496 0.082619 0.108690
H48   H     H_    0.234118 0.911592 0.076474 0.169206
H49   H     H_    0.282904 0.025352 0.972642 0.154657
H50   H     H_    0.471926 0.951185 0.973801 0.172851
H51   H     H_    0.323570 0.874072 0.953925 0.148335
H52   H     H_    0.421712 0.836403 0.077218 0.148219
H53   H     H_    0.581582 0.462429 0.206897 0.100358
H54   H     H_    0.736823 0.440300 0.723703 0.103694
H55   H     H_    0.272618 0.563987 0.270396 0.100385
H56   H     H_    0.550936 0.717957 0.554854 0.121996
N1    N     N_R   0.584450 0.204570 0.560790 -0.232448
N2    N     N_R   0.415550 0.795430 0.439210 -0.237456
O1    O     O_R   0.455540 0.022090 0.338120 -0.462182
O2    O     O_3   0.733093 0.622834 0.403983 -0.579737
O3    O     O_3   0.675472 0.945224 0.849237 -0.569788
O4    O     O_3   0.333446 0.050807 0.151799 -0.568039
O5    O     O_R   0.544460 0.977910 0.661880 -0.460810
O6    O     O_R   0.512510 0.160150 0.379180 -0.525087
O7    O     O_R   0.487490 0.839850 0.620820 -0.528484
O8    O     O_R   0.291160 0.930970 0.479480 -0.513308
O9    O     O_R   0.708840 0.069030 0.520520 -0.522179
O10   O     O_R   0.348130 0.069020 0.520540 -0.493317
O11   O     O_R   0.651870 0.930980 0.479460 -0.494538
O12   O     O_3   0.220655 0.395490 0.548096 -0.588317

loop_
_geom_bond_atom_site_label_1
_geom_bond_atom_site_label_2
_ccdc_geom_bond_type
Cu2   N1    S    
Cu1   O11   S    
C34   C56   A    
C8    C13   A    
C23   C45   A    
C27   C29   A    
C53   O12   S    
C14   C18   A    
C2    C4    A    
C3    C68   A    
C22   N1    A    
C39   C41   A    
C38   C49   A    
C53   C54   S    
C15   C19   A    
C29   C36   A    
C59   H35   S    
C64   H49   S    
C15   H53   S    
C35   C37   A    
C62   H44   S    
C1    O1    A    
C63   H47   S    
C24   H3    S    
C38   H9    S    
C14   H45   S    
C41   H13   S    
C33   C36   A    
C64   H48   S    
C60   O3    S    
C51   C56   A    
C26   H56   S    
C60   H39   S    
C16   C34   S    
C11   C15   A    
C2    C10   A    
Cu1   N2    S    
C12   O7    A    
C47   O12   S    
Cu2   O5    S    
C58   H32   S    
C65   H51   S    
C54   H26   S    
C60   H38   S    
C44   C47   A    
C46   H15   S    
C42   C56   S    
C40   C42   A    
Cu1   O7    S    
C13   C14   A    
C41   C43   A    
C48   O2    S    
C61   C62   S    
C42   C44   A    
C61   H40   S    
C51   H16   S    
C4    O3    S    
C37   H55   S    
C20   C29   A    
C12   C67   S    
C46   C48   A    
C59   H36   S    
C26   N2    A    
C27   C31   A    
C3    O4    S    
C57   O2    S    
C28   C32   A    
C62   H43   S    
C47   C49   A    
C5    C7    A    
C6    C8    A    
C45   C52   A    
C58   C59   S    
C6    H20   S    
C57   H30   S    
C59   H37   S    
C30   C37   A    
C60   C61   S    
C7    C11   A    
C19   H19   S    
C23   C51   A    
C31   C32   A    
C21   H6    S    
C2    H34   S    
C10   C19   A    
C55   H27   S    
C53   H22   S    
C1    C66   S    
C17   O11   A    
C25   H2    S    
C17   C23   S    
C65   H52   S    
C43   C45   S    
C54   H25   S    
C5    H21   S    
C63   H46   S    
Cu1   O1    S    
C6    C67   A    
C20   C22   A    
Cu2   O10   S    
Cu1   O8    S    
C12   O5    A    
C31   C35   A    
C3    C66   A    
C22   H4    S    
C1    O6    A    
C16   O8    A    
C50   H12   S    
C24   N2    A    
C7    C9    A    
C54   C55   S    
C32   C33   A    
C36   H54   S    
C53   H24   S    
C26   C28   A    
C40   H11   S    
C52   H17   S    
C16   O10   A    
C5    C66   A    
C44   H14   S    
C4    C67   A    
C25   C27   A    
C57   H31   S    
C21   C30   A    
C35   H8    S    
C34   C52   A    
C68   H23   S    
C39   H10   S    
C28   C30   A    
C25   N1    A    
C9    C68   A    
C64   C65   S    
C38   C40   A    
C11   C13   A    
C33   H7    S    
C57   C58   S    
C55   H28   S    
C48   C50   A    
C65   H50   S    
C63   O4    S    
Cu1   Cu2   S    
C43   C46   A    
C18   H18   S    
C63   C64   S    
C9    C18   A    
C39   C50   A    
C62   H42   S    
C20   H5    S    
Cu2   O9    S    
C8    C10   A    
C49   H1    S    
C21   C24   A    
C55   H29   S    
Cu2   O6    S    
C17   O9    A    
C58   H33   S    
C61   H41   S    
