data_mof_unit_3337.cif
_audit_creation_date              2012-12-10T16:32:41-0500
_audit_creation_method            fapswitch 2.2
_symmetry_space_group_name_H-M    P1
_symmetry_Int_Tables_number       1
_space_group_crystal_system       triclinic
_cell_length_a                    16.958453
_cell_length_b                    16.764172
_cell_length_c                    16.848153
_cell_angle_alpha                 64.437199
_cell_angle_beta                  66.00602
_cell_angle_gamma                 65.897384
_cell_volume                      3786.67853217

loop_
_atom_site_label
_atom_site_type_symbol
_atom_type_description
_atom_site_fract_x
_atom_site_fract_y
_atom_site_fract_z
_atom_type_partial_charge
C1    C     C_R   0.577259 0.061887 0.587862 0.012738
C2    C     C_R   0.821034 0.565784 0.029832 0.868572
C3    C     C_3   0.915565 0.544382 0.735869 -0.401600
C4    C     C_3   0.832596 0.626244 0.752803 -0.340723
C5    C     C_3   0.747891 0.617073 0.749967 -0.922336
C6    C     C_3   0.728794 0.107509 0.713410 -0.329709
C7    C     C_3   0.686385 0.171997 0.770792 -0.334471
C8    C     C_3   0.735870 0.135157 0.844691 -0.855516
C9    C     C_3   0.315549 0.842818 0.333094 -0.410597
C10   C     C_3   0.350160 0.762463 0.411861 -0.363662
C11   C     C_3   0.340675 0.671933 0.421761 -0.908148
C12   C     C_3   0.143969 0.697337 0.700971 -0.347479
C13   C     C_R   0.436960 0.964536 0.179908 0.881473
C14   C     C_3   0.224793 0.616436 0.725869 -0.358586
C15   C     C_3   0.298820 0.649228 0.721357 -0.935395
C16   C     C_3   0.852245 0.306582 0.302326 -0.367886
C17   C     C_3   0.769184 0.389180 0.285835 -0.343938
C18   C     C_3   0.690396 0.358538 0.298144 -0.935821
C19   C     C_3   0.703971 0.689634 0.144696 -0.363237
C20   C     C_3   0.628900 0.699080 0.233435 -0.358093
C21   C     C_3   0.665517 0.694579 0.304845 -0.948503
C22   C     C_3   0.288471 0.293515 0.874367 -0.345305
C23   C     C_3   0.248778 0.365946 0.795055 -0.333277
C24   C     C_R   0.560110 0.043979 0.820586 0.891859
C25   C     C_3   0.186469 0.331871 0.780402 -0.845854
C26   C     C_R   0.561358 0.820114 0.040670 0.900524
C27   C     C_R   0.437584 0.180766 0.961368 0.862502
C28   C     C_R   0.026225 0.569008 0.821491 0.913920
C29   C     C_R   0.968294 0.434405 0.179642 0.904757
C30   C     C_R   0.820849 0.030249 0.565948 0.883165
C31   C     C_R   0.177170 0.976007 0.431886 0.905671
C32   C     C_R   0.523337 0.051620 0.543438 0.142488
C33   C     C_R   0.400598 0.003314 0.395348 -0.003331
C34   C     C_R   0.443090 0.020822 0.445829 0.173380
C35   C     C_R   0.008551 0.553245 0.542567 0.134771
C36   C     C_R   0.968283 0.454277 0.471788 0.138854
C37   C     C_R   0.532862 0.548466 0.025693 0.150495
C38   C     C_R   0.455762 0.460746 0.980238 0.156214
C39   C     C_R   0.501061 0.120639 0.464479 -0.213626
C40   C     C_R   0.465515 0.951865 0.524602 -0.193352
C41   C     C_R   0.070848 0.471520 0.526692 -0.225446
C42   C     C_R   0.904024 0.533107 0.492632 -0.186413
C43   C     C_R   0.525389 0.579515 0.936787 -0.238414
C44   C     C_R   0.027902 0.601061 0.586039 0.020277
C45   C     C_R   0.464373 0.428818 0.069043 -0.216559
C46   C     C_R   0.459617 0.105974 0.417024 -0.237582
C47   C     C_R   0.504724 0.967371 0.573428 -0.201273
C48   C     C_R   0.487253 0.535989 0.914115 -0.197955
C49   C     C_R   0.502204 0.473083 0.091980 -0.204000
C50   C     C_R   0.052535 0.424955 0.487440 -0.235097
C51   C     C_R   0.925151 0.583930 0.524893 -0.204612
C52   C     C_R   0.534571 0.086362 0.668722 0.041964
C53   C     C_R   0.452812 0.967940 0.321544 0.028576
C54   C     C_R   0.068228 0.673935 0.533798 0.041122
C55   C     C_R   0.952919 0.409925 0.421462 0.000734
C56   C     C_R   0.932850 0.324879 0.467290 0.034712
C57   C     C_R   0.676867 0.554900 0.027270 0.034193
C58   C     C_R   0.319751 0.457945 0.958592 0.009553
C59   C     C_R   0.306508 0.019358 0.422652 0.012937
C60   C     C_R   0.672059 0.039273 0.554111 0.016858
C61   C     C_R   0.456323 0.333182 0.939984 0.048130
C62   C     C_R   0.537054 0.671743 0.067244 0.018998
C63   C     C_R   0.966304 0.448689 0.325344 0.010096
C64   C     C_R   0.999861 0.578166 0.682392 0.029746
C65   C     C_R   0.587957 0.078744 0.719619 -0.134324
C66   C     C_R   0.582239 0.589807 0.044680 0.005479
C67   C     C_R   0.407554 0.949158 0.278890 -0.142142
C68   C     C_R   0.076669 0.719989 0.583166 -0.166010
C69   C     C_R   0.928824 0.279614 0.414646 -0.156700
C70   C     C_R   0.722755 0.596151 0.048090 -0.145119
C71   C     C_R   0.275793 0.409305 0.944809 -0.129479
C72   C     C_R   0.270794 0.975389 0.393934 -0.123120
C73   C     C_R   0.721488 0.052900 0.597356 -0.152956
C74   C     C_R   0.408510 0.283221 0.934486 -0.158899
C75   C     C_R   0.589080 0.719131 0.068360 -0.140686
C76   C     C_R   0.948240 0.404795 0.279270 -0.128900
C77   C     C_R   0.409897 0.417148 0.958238 0.006536
C78   C     C_R   0.038723 0.606282 0.723731 -0.118726
C79   C     C_R   0.675662 0.085410 0.673989 -0.024852
C80   C     C_R   0.326069 0.930637 0.328761 0.021316
C81   C     C_R   0.087199 0.671517 0.669739 -0.010232
C82   C     C_R   0.913658 0.329465 0.330209 -0.005812
C83   C     C_R   0.673427 0.670232 0.082725 0.006395
C84   C     C_R   0.324985 0.330636 0.917155 -0.007156
C85   C     C_3   0.434690 0.136402 0.689431 -0.391827
C86   C     C_3   0.419176 0.236640 0.623420 -0.316743
C87   C     C_3   0.337072 0.269765 0.588663 -0.901588
C88   C     C_R   0.957779 0.179146 0.439766 0.891119
C89   C     C_3   0.555237 0.941878 0.294780 -0.376362
C90   C     C_3   0.592814 0.025624 0.236927 -0.289600
C91   C     C_3   0.688853 0.997854 0.177337 -0.900169
C92   C     C_3   0.090926 0.710441 0.428990 -0.371299
C93   C     C_3   0.156215 0.637975 0.381099 -0.370106
C94   C     C_3   0.205213 0.682743 0.282343 -0.943868
C95   C     C_3   0.905465 0.288229 0.571988 -0.358673
C96   C     C_3   0.986062 0.241778 0.612802 -0.287975
C97   C     C_3   0.967608 0.165681 0.703777 -0.907891
C98   C     C_3   0.725237 0.474749 0.987175 -0.354186
C99   C     C_R   0.044790 0.821064 0.558871 0.899156
C100  C     C_3   0.739417 0.380285 0.061547 -0.309562
C101  C     C_3   0.785285 0.302320 0.019689 -0.924314
C102  C     C_3   0.274962 0.554838 0.969103 -0.342331
C103  C     C_3   0.232413 0.550406 0.070105 -0.299446
C104  C     C_3   0.175807 0.645544 0.078719 -0.932342
C105  C     C_3   0.247000 0.085549 0.478180 -0.360163
C106  C     C_3   0.232216 0.037603 0.582589 -0.266889
C107  C     C_3   0.241305 0.093854 0.627709 -0.962377
C108  C     C_3   0.717535 0.003392 0.471452 -0.367138
C109  C     C_3   0.763668 0.899067 0.499374 -0.294258
C110  C     C_R   0.178429 0.435755 0.967891 0.900737
C111  C     C_3   0.818685 0.868082 0.414803 -0.890773
C112  C     C_3   0.557022 0.315230 0.901071 -0.406342
C113  C     C_3   0.580096 0.380962 0.801609 -0.319795
C114  C     C_3   0.669856 0.400610 0.773460 -0.910593
C115  C     C_3   0.434247 0.704052 0.097295 -0.366990
C116  C     C_3   0.392649 0.750769 0.016330 -0.276438
C117  C     C_3   0.304542 0.825632 0.034620 -0.899591
C118  C     C_3   0.994642 0.538437 0.276774 -0.354283
C119  C     C_3   0.912960 0.623812 0.262965 -0.302053
C120  C     C_3   0.935799 0.713114 0.234926 -0.921241
H1    H     H_    0.523247 0.912686 0.632980 0.133527
H2    H     H_    0.549395 0.637436 0.885113 0.139041
H3    H     H_    0.696716 0.240418 0.725274 0.200311
H4    H     H_    0.612930 0.182910 0.800023 0.215994
H5    H     H_    0.767237 0.039585 0.751764 0.249550
H6    H     H_    0.774365 0.145553 0.654078 0.186221
H7    H     H_    0.268498 0.675974 0.444051 0.277460
H8    H     H_    0.374282 0.656551 0.355929 0.261252
H9    H     H_    0.372214 0.615024 0.474886 0.252369
H10   H     H_    0.422426 0.754027 0.398987 0.226650
H11   H     H_    0.311986 0.777625 0.477642 0.217589
H12   H     H_    0.245213 0.848701 0.342341 0.220957
H13   H     H_    0.838365 0.556285 0.482088 0.126430
H14   H     H_    0.355655 0.826643 0.268096 0.189927
H15   H     H_    0.328449 0.688156 0.649551 0.261151
H16   H     H_    0.271356 0.694297 0.764705 0.256218
H17   H     H_    0.352877 0.588734 0.746508 0.251405
H18   H     H_    0.202263 0.571971 0.796642 0.221339
H19   H     H_    0.253579 0.575276 0.678417 0.221630
H20   H     H_    0.171542 0.753433 0.644076 0.202987
H21   H     H_    0.102506 0.725790 0.758429 0.217139
H22   H     H_    0.712480 0.310125 0.259561 0.257285
H23   H     H_    0.662199 0.323227 0.371829 0.260147
H24   H     H_    0.134940 0.446013 0.541397 0.137946
H25   H     H_    0.636722 0.419648 0.273078 0.254583
H26   H     H_    0.746756 0.427453 0.334766 0.225112
H27   H     H_    0.786756 0.437343 0.215403 0.216432
H28   H     H_    0.888752 0.282801 0.241472 0.217967
H29   H     H_    0.827537 0.248317 0.358381 0.203964
H30   H     H_    0.709903 0.624314 0.329336 0.256766
H31   H     H_    0.704226 0.745539 0.275323 0.267603
H32   H     H_    0.608809 0.710022 0.364340 0.251073
H33   H     H_    0.576372 0.765746 0.218233 0.206598
H34   H     H_    0.596778 0.642474 0.263256 0.230119
H35   H     H_    0.354193 0.245278 0.530648 0.264057
H36   H     H_    0.760898 0.631258 0.166435 0.203310
H37   H     H_    0.727397 0.752540 0.107645 0.221501
H38   H     H_    0.218619 0.259645 0.780053 0.248252
H39   H     H_    0.123213 0.333258 0.837209 0.276410
H40   H     H_    0.169646 0.376826 0.714775 0.245061
H41   H     H_    0.209406 0.432302 0.807390 0.215061
H42   H     H_    0.303777 0.380822 0.731402 0.195820
H43   H     H_    0.343691 0.242115 0.843187 0.179654
H44   H     H_    0.239192 0.256660 0.929177 0.236446
H45   H     H_    0.280714 0.243940 0.642783 0.268547
H46   H     H_    0.314544 0.346294 0.564035 0.244151
H47   H     H_    0.411427 0.282435 0.659314 0.199795
H48   H     H_    0.478414 0.245619 0.562549 0.215344
H49   H     H_    0.397565 0.098172 0.684522 0.212719
H50   H     H_    0.405997 0.139368 0.760259 0.188796
H51   H     H_    0.442478 0.160007 0.356530 0.128982
H52   H     H_    0.733192 0.944298 0.220667 0.248934
H53   H     H_    0.690218 0.970602 0.127106 0.266053
H54   H     H_    0.715098 0.058999 0.139074 0.240167
H55   H     H_    0.550043 0.079403 0.192009 0.240337
H56   H     H_    0.594062 0.056576 0.282550 0.208970
H57   H     H_    0.579128 0.904381 0.357256 0.179071
H58   H     H_    0.583938 0.891075 0.257583 0.226120
H59   H     H_    0.155524 0.731959 0.243497 0.266014
H60   H     H_    0.247618 0.719986 0.280078 0.270548
H61   H     H_    0.249211 0.628860 0.249073 0.259981
H62   H     H_    0.875376 0.645015 0.539775 0.143145
H63   H     H_    0.206481 0.588007 0.419016 0.227760
H64   H     H_    0.118118 0.600193 0.377313 0.241569
H65   H     H_    0.027679 0.740883 0.408326 0.199362
H66   H     H_    0.123405 0.766027 0.402516 0.225594
H67   H     H_    0.909030 0.195122 0.754448 0.256721
H68   H     H_    0.954169 0.111144 0.694557 0.271868
H69   H     H_    0.027196 0.134014 0.730579 0.241886
H70   H     H_    0.047801 0.212269 0.564554 0.233247
H71   H     H_    0.999429 0.293305 0.626560 0.215665
H72   H     H_    0.858317 0.345491 0.599772 0.173120
H73   H     H_    0.103709 0.365481 0.469902 0.136280
H74   H     H_    0.865191 0.240026 0.595886 0.204089
H75   H     H_    0.852245 0.308692 0.971509 0.259580
H76   H     H_    0.794695 0.234961 0.074911 0.245363
H77   H     H_    0.743226 0.304087 0.982406 0.261760
H78   H     H_    0.781194 0.374559 0.101003 0.252900
H79   H     H_    0.673540 0.371258 0.110291 0.214962
H80   H     H_    0.687036 0.473925 0.947954 0.195574
H81   H     H_    0.788654 0.483740 0.933555 0.219183
H82   H     H_    0.217270 0.694546 0.041941 0.267458
H83   H     H_    0.118535 0.671710 0.049466 0.263786
H84   H     H_    0.508808 0.448049 0.160583 0.125999
H85   H     H_    0.149197 0.641080 0.152087 0.255170
H86   H     H_    0.189826 0.502529 0.106758 0.226915
H87   H     H_    0.285920 0.523857 0.104398 0.215063
H88   H     H_    0.322734 0.596301 0.937867 0.175169
H89   H     H_    0.227969 0.599622 0.926555 0.224340
H90   H     H_    0.310762 0.099975 0.600358 0.292844
H91   H     H_    0.192978 0.163767 0.614308 0.261167
H92   H     H_    0.227266 0.058873 0.702888 0.248047
H93   H     H_    0.163507 0.028737 0.615375 0.233911
H94   H     H_    0.280644 0.967939 0.597904 0.216493
H95   H     H_    0.479035 0.563611 0.846015 0.129586
H96   H     H_    0.277366 0.142456 0.453743 0.193048
H97   H     H_    0.181199 0.122117 0.462429 0.184211
H98   H     H_    0.774590 0.884078 0.372827 0.254365
H99   H     H_    0.872480 0.903194 0.372617 0.263832
H100  H     H_    0.850728 0.792744 0.435924 0.239469
H101  H     H_    0.808568 0.879332 0.541744 0.234567
H102  H     H_    0.711466 0.861768 0.541338 0.203939
H103  H     H_    0.669972 0.015167 0.435463 0.194936
H104  H     H_    0.762986 0.044117 0.415991 0.215594
H105  H     H_    0.668932 0.430713 0.821098 0.267354
H106  H     H_    0.452955 0.885869 0.547894 0.123719
H107  H     H_    0.726837 0.337272 0.773395 0.261530
H108  H     H_    0.681087 0.450830 0.703231 0.245801
H109  H     H_    0.579139 0.353175 0.753304 0.192438
H110  H     H_    0.527766 0.448003 0.792159 0.217511
H111  H     H_    0.585953 0.322722 0.945134 0.209595
H112  H     H_    0.588295 0.244634 0.902130 0.232633
H113  H     H_    0.254696 0.795756 0.096275 0.258387
H114  H     H_    0.315765 0.880851 0.044915 0.279123
H115  H     H_    0.276696 0.856687 0.975115 0.231816
H116  H     H_    0.440003 0.782026 0.952238 0.233745
H117  H     H_    0.517551 0.184945 0.438586 0.139000
H118  H     H_    0.378005 0.698568 0.004705 0.212752
H119  H     H_    0.408005 0.644184 0.145914 0.173957
H120  H     H_    0.411226 0.750534 0.138389 0.201319
H121  H     H_    0.962256 0.710919 0.286545 0.267900
H122  H     H_    0.986312 0.724414 0.166989 0.262539
H123  H     H_    0.874111 0.772105 0.230164 0.246813
H124  H     H_    0.886715 0.628362 0.210277 0.240347
H125  H     H_    0.857657 0.618657 0.327506 0.210476
H126  H     H_    0.028681 0.546199 0.315776 0.197137
H127  H     H_    0.049025 0.537299 0.212448 0.216349
H128  H     H_    0.440416 0.370775 0.120628 0.130949
H129  H     H_    0.752963 0.626240 0.678948 0.260659
H130  H     H_    0.738288 0.548360 0.794333 0.259389
H131  H     H_    0.688457 0.671058 0.773472 0.248698
H132  H     H_    0.821267 0.631184 0.820509 0.212267
H133  H     H_    0.843659 0.692384 0.699960 0.224610
H134  H     H_    0.904639 0.510399 0.699232 0.219226
H135  H     H_    0.920449 0.488610 0.801160 0.207413
H136  H     H_    0.706491 0.083779 0.906479 0.277400
H137  H     H_    0.808519 0.101710 0.819110 0.237403
H138  H     H_    0.732979 0.190756 0.865380 0.230234
O1    O     O_R   0.982940 0.138950 0.510160 -0.626684
O2    O     O_R   0.982940 0.510160 0.138950 -0.643024
O3    O     O_R   0.861050 0.017060 0.489840 -0.624651
O4    O     O_R   0.138950 0.982940 0.510160 -0.648502
O5    O     O_R   0.867700 0.025880 0.612340 -0.652661
O6    O     O_R   0.132300 0.974120 0.387660 -0.633395
O7    O     O_R   0.025880 0.612340 0.867700 -0.632717
O8    O     O_R   0.974120 0.387660 0.132300 -0.622177
O9    O     O_R   0.612340 0.867700 0.025880 -0.623260
O10   O     O_R   0.387660 0.132300 0.974120 -0.629535
O11   O     O_R   0.387660 0.974120 0.132300 -0.619449
O12   O     O_R   0.017060 0.861050 0.489840 -0.635741
O13   O     O_R   0.612340 0.025880 0.867700 -0.604386
O14   O     O_R   0.132300 0.387660 0.974120 -0.615170
O15   O     O_R   0.867700 0.612340 0.025880 -0.629446
O16   O     O_R   0.974120 0.132300 0.387660 -0.621700
O17   O     O_R   0.025880 0.867700 0.612340 -0.619531
O18   O     O_R   0.138950 0.510160 0.982940 -0.637949
O19   O     O_R   0.861050 0.489840 0.017060 -0.637685
O20   O     O_R   0.510160 0.982940 0.138950 -0.620883
O21   O     O_R   0.489840 0.017060 0.861050 -0.632806
O22   O     O_R   0.489840 0.861050 0.017060 -0.614894
O23   O     O_R   0.510160 0.138950 0.982940 -0.636749
O24   O     O_R   0.017060 0.489840 0.861050 -0.646001
Zn1   Zn    Zn3+2 0.004880 0.004880 0.583590 0.884418
Zn2   Zn    Zn3+2 0.995120 0.995120 0.416410 0.911014
Zn3   Zn    Zn3+2 0.004880 0.583590 0.004880 0.902617
Zn4   Zn    Zn3+2 0.995120 0.416410 0.995120 0.901563
Zn5   Zn    Zn3+2 0.583590 0.004880 0.004880 0.897232
Zn6   Zn    Zn3+2 0.416410 0.995120 0.995120 0.907384

loop_
_geom_bond_atom_site_label_1
_geom_bond_atom_site_label_2
_ccdc_geom_bond_type
C46   H51   S    
O23   Zn5   S    
C40   C47   A    
C110  O14   A    
C55   C56   A    
C93   C94   S    
C65   C79   A    
C90   H56   S    
C97   H68   S    
O15   Zn3   S    
C5    H131  S    
C98   H81   S    
C36   C42   A    
C95   C96   S    
C103  H86   S    
C57   C66   A    
C18   H25   S    
C75   C83   A    
C118  H127  S    
C2    O19   A    
C26   O22   A    
C6    C79   S    
C53   C89   S    
C109  H101  S    
C113  H110  S    
C107  H90   S    
C87   H45   S    
C85   C86   S    
C108  C109  S    
C28   O24   A    
C56   C69   A    
C59   C105  S    
C112  H111  S    
C20   H34   S    
C91   H52   S    
C21   H31   S    
C42   H13   S    
C34   C40   A    
C68   C81   A    
C96   H71   S    
C18   H23   S    
C17   H27   S    
C103  H87   S    
C71   C84   A    
C109  C111  S    
C115  H120  S    
C108  H104  S    
C50   H73   S    
C101  H77   S    
C58   C71   A    
C47   H1    S    
C87   H46   S    
C107  H91   S    
C63   C76   A    
C117  H115  S    
C56   C95   S    
O14   Zn4   S    
C115  C116  S    
C71   C110  S    
C116  H118  S    
C60   C73   A    
O5    Zn1   S    
C116  C117  S    
C91   H53   S    
C25   H38   S    
C97   H67   S    
C30   O5    A    
C32   C39   A    
C96   H70   S    
C8    H137  S    
O4    Zn1   S    
C88   O16   A    
C118  C119  S    
C92   C93   S    
C38   C45   A    
C69   C82   A    
O11   Zn6   S    
C88   O1    A    
C114  H107  S    
C10   H11   S    
C92   H66   S    
C14   H18   S    
C15   H15   S    
C61   C77   A    
C16   C17   S    
C55   C63   A    
C25   H39   S    
C30   C73   S    
C12   H20   S    
C16   H29   S    
C34   C46   A    
C111  H98   S    
C89   H57   S    
C57   C70   A    
C27   C74   S    
C28   C78   S    
C119  H124  S    
C7    H4    S    
C38   C48   A    
O2    Zn3   S    
C60   C108  S    
C101  H76   S    
O7    Zn3   S    
C42   C51   A    
C120  H121  S    
C23   H42   S    
C9    H14   S    
C51   H62   S    
C97   H69   S    
C48   H95   S    
O9    Zn5   S    
C33   C59   A    
C105  H96   S    
O10   Zn6   S    
C8    H138  S    
C19   H36   S    
C3    H134  S    
C111  H99   S    
C4    H133  S    
C19   C83   S    
C11   H9    S    
C45   H128  S    
C112  C113  S    
C114  H105  S    
C13   O20   A    
C33   C34   S    
O18   Zn3   S    
C21   H32   S    
C33   C53   A    
C106  H94   S    
C12   H21   S    
C29   O2    A    
O20   Zn5   S    
C62   C66   A    
C24   O13   A    
C19   H37   S    
C104  H83   S    
C5    H129  S    
C7    C8    S    
C86   H48   S    
C4    H132  S    
C41   H24   S    
C113  C114  S    
C20   H33   S    
C1    C60   A    
C76   C82   A    
C29   C76   S    
C108  H103  S    
C99   O17   A    
C92   H65   S    
C94   H60   S    
C15   H16   S    
C3    C64   S    
C29   O8    A    
C90   H55   S    
C8    H136  S    
C1    C32   S    
C85   H49   S    
C28   O7    A    
C91   H54   S    
C31   O6    A    
C120  H123  S    
C104  H82   S    
C37   C43   A    
C11   H7    S    
O22   Zn6   S    
C94   H61   S    
C54   C92   S    
O17   Zn1   S    
C13   O11   A    
O3    Zn2   S    
C22   H44   S    
O8    Zn4   S    
C27   O10   A    
C117  H113  S    
C43   C48   A    
C96   C97   S    
C116  H116  S    
C25   H40   S    
C16   C82   S    
C17   C18   S    
C73   C79   A    
O16   Zn2   S    
C120  H122  S    
C104  H85   S    
C20   C21   S    
C113  H109  S    
C35   C44   S    
C43   H2    S    
C6    H6    S    
C37   C49   A    
C69   C88   S    
C24   C65   S    
C39   C46   A    
C58   C102  S    
C95   H72   S    
C31   C72   S    
C58   C77   A    
C12   C14   S    
O24   Zn4   S    
C95   H74   S    
C98   C100  S    
C31   O4    A    
C35   C51   A    
O6    Zn2   S    
C32   C47   A    
C110  O18   A    
C62   C75   A    
C111  H100  S    
C86   H47   S    
C3    C4    S    
C44   C64   A    
C41   C50   A    
C39   H117  S    
C36   C50   A    
C26   O9    A    
C13   C67   S    
C9    H12   S    
C63   C118  S    
C106  H93   S    
C52   C85   S    
C18   H22   S    
C86   C87   S    
C64   C78   A    
C5    H130  S    
C22   C23   S    
C67   C80   A    
C6    H5    S    
C74   C84   A    
C4    C5    S    
C27   O23   A    
C119  C120  S    
C118  H126  S    
C102  H89   S    
O13   Zn5   S    
C6    C7    S    
C107  H92   S    
C24   O21   A    
C61   C74   A    
O19   Zn4   S    
C59   C72   A    
C99   O12   A    
C105  H97   S    
C85   H50   S    
C112  H112  S    
C98   H80   S    
C16   H28   S    
C30   O3    A    
O21   Zn6   S    
C38   C77   S    
C19   C20   S    
O1    Zn1   S    
C11   H8    S    
C119  H125  S    
C68   C99   S    
C62   C115  S    
C72   C80   A    
C36   C55   S    
C53   C67   A    
C2    O15   A    
C115  H119  S    
C22   H43   S    
C93   H63   S    
C78   C81   A    
C21   H30   S    
C90   C91   S    
C70   C83   A    
C117  H114  S    
C57   C98   S    
C114  H108  S    
C15   H17   S    
C100  C101  S    
C93   H64   S    
C12   C81   S    
C9    C10   S    
C87   H35   S    
C94   H59   S    
C23   C25   S    
C37   C66   S    
C40   H106  S    
C102  C103  S    
C35   C41   A    
C1    C52   A    
C3    H135  S    
C49   H84   S    
C89   H58   S    
C10   C11   S    
C109  H102  S    
C17   H26   S    
C100  H79   S    
C44   C54   A    
C105  C106  S    
C54   C68   A    
C14   H19   S    
C26   C75   S    
C10   H10   S    
C106  C107  S    
C103  C104  S    
C22   C84   S    
C14   C15   S    
C45   C49   A    
O12   Zn2   S    
C89   C90   S    
C2    C70   S    
C61   C112  S    
C102  H88   S    
C9    C80   S    
C52   C65   A    
C101  H75   S    
C7    H3    S    
C23   H41   S    
C100  H78   S    
