data_mof_unit_3040.cif
_audit_creation_date              2012-10-26T21:10:49-0400
_audit_creation_method            fapswitch 2.2
_symmetry_space_group_name_H-M    P1
_symmetry_Int_Tables_number       1
_space_group_crystal_system       triclinic
_cell_length_a                    10.902892
_cell_length_b                    14.750411
_cell_length_c                    14.748938
_cell_angle_alpha                 65.210718
_cell_angle_beta                  103.803097
_cell_angle_gamma                 102.463724
_cell_volume                      2073.09416183

loop_
_atom_site_label
_atom_site_type_symbol
_atom_type_description
_atom_site_fract_x
_atom_site_fract_y
_atom_site_fract_z
_atom_type_partial_charge
C1    C     C_R   0.481046 0.119599 0.312339 0.537137
C2    C     C_R   0.571605 0.782455 0.972823 -0.120055
C3    C     C_R   0.490775 0.151730 0.133128 -0.136831
C4    C     C_R   0.561749 0.848662 0.871759 -0.134850
C5    C     C_R   0.489411 0.291417 0.178093 -0.129342
C6    C     C_R   0.528948 0.707908 0.821214 -0.133746
C7    C     C_R   0.509991 0.361143 0.080796 0.033331
C8    C     C_R   0.541446 0.639404 0.922988 0.030904
C9    C     C_R   0.512675 0.322897 0.007848 0.042862
C10   C     C_R   0.558819 0.678297 0.998850 0.046253
C11   C     C_R   0.528093 0.467354 0.054039 0.032655
C12   C     C_R   0.522702 0.880267 0.687669 0.537144
C13   C     C_R   0.533802 0.533526 0.951268 0.032678
C14   C     C_R   0.535509 0.491919 0.880911 -0.136720
C15   C     C_R   0.545363 0.509589 0.127168 -0.138609
C16   C     C_R   0.263423 0.998437 0.504288 0.537432
C17   C     C_R   0.736974 0.000243 0.497670 0.538616
C18   C     C_R   0.526961 0.388719 0.909330 -0.136359
C19   C     C_R   0.562370 0.613059 0.099895 -0.129888
C20   C     C_R   0.722378 0.294841 0.658340 -0.132808
C21   C     C_R   0.266394 0.700379 0.351533 -0.137407
C22   C     C_R   0.688614 0.209568 0.634813 0.168150
C23   C     C_R   0.870273 0.998786 0.496416 -0.003465
C24   C     C_R   0.317528 0.792100 0.360221 0.169689
C25   C     C_R   0.511205 0.281651 0.514850 0.033483
C26   C     C_R   0.473167 0.710904 0.499086 0.033316
C27   C     C_R   0.539125 0.367630 0.541819 0.000425
C28   C     C_R   0.435577 0.619654 0.481246 -0.003120
C29   C     C_R   0.646928 0.371366 0.615696 0.016890
C30   C     C_R   0.327980 0.616313 0.407124 0.020185
C31   C     C_R   0.465554 0.449925 0.498677 0.021774
C32   C     C_R   0.502713 0.533595 0.530415 0.023376
C33   C     C_R   0.607747 0.529634 0.608025 -0.150403
C34   C     C_R   0.130476 0.997397 0.508641 -0.009312
C35   C     C_R   0.356135 0.451376 0.425127 -0.150516
C36   C     C_R   0.679013 0.450509 0.648895 -0.148496
C37   C     C_R   0.287196 0.531998 0.382241 -0.139135
C38   C     C_R   0.332292 0.127350 0.746192 0.014819
C39   C     C_R   0.658413 0.829188 0.291609 0.011238
C40   C     C_R   0.260527 0.072751 0.688722 -0.054205
C41   C     C_R   0.734883 0.897079 0.332470 -0.056626
C42   C     C_R   0.180042 0.120765 0.597948 0.037146
C43   C     C_R   0.821976 0.861738 0.422929 0.037676
C44   C     C_R   0.171403 0.223649 0.566479 -0.122927
C45   C     C_R   0.909351 0.932619 0.464675 -0.026743
C46   C     C_R   0.834996 0.758547 0.469013 -0.119750
C47   C     C_R   0.241815 0.277389 0.624767 -0.133306
C48   C     C_R   0.761776 0.691905 0.426087 -0.137052
C49   C     C_R   0.322919 0.229679 0.713993 -0.105845
C50   C     C_R   0.672309 0.726747 0.338474 -0.109466
C51   C     C_R   0.962229 0.061887 0.534835 -0.151788
C52   C     C_R   0.038783 0.932642 0.472581 -0.159151
C53   C     C_3   0.278784 0.883022 0.265666 -0.214218
C54   C     C_3   0.166861 0.927588 0.268797 -0.415871
C55   C     C_3   0.773447 0.127149 0.695785 -0.245424
C56   C     C_R   0.091771 0.060817 0.543762 -0.025468
C57   C     C_3   0.780291 0.092491 0.810243 -0.459853
C58   C     C_1   0.411054 0.077476 0.840658 0.156161
C59   C     C_1   0.565318 0.864062 0.201750 0.145672
C60   C     C_R   0.483056 0.187516 0.205466 -0.011731
C61   C     C_R   0.538522 0.811908 0.795253 -0.010917
C62   C     C_R   0.503177 0.218843 0.034606 -0.127282
Cu1   Cu    Cu3+1 0.466270 0.918260 0.475690 0.931334
Cu2   Cu    Cu3+1 0.533730 0.081740 0.524310 0.926119
H1    H     H_    0.376879 0.272184 0.758487 0.107290
H2    H     H_    0.430961 0.273580 0.458740 0.122915
H3    H     H_    0.806851 0.300215 0.713224 0.098885
H4    H     H_    0.186328 0.697549 0.292194 0.095110
H5    H     H_    0.638732 0.587535 0.637991 0.093604
H6    H     H_    0.320566 0.390903 0.399158 0.098068
H7    H     H_    0.264833 0.992703 0.715604 0.109765
H8    H     H_    0.726157 0.976803 0.294745 0.108127
H9    H     H_    0.108000 0.261658 0.497908 0.108184
H10   H     H_    0.903283 0.729956 0.537574 0.110751
H11   H     H_    0.232877 0.356063 0.601115 0.128862
H12   H     H_    0.613487 0.673646 0.307827 0.110611
H13   H     H_    0.773815 0.612919 0.461160 0.129402
H14   H     H_    0.933474 0.110266 0.562253 0.128766
H15   H     H_    0.067701 0.881277 0.449152 0.136539
H16   H     H_    0.531649 0.360295 0.853523 0.108062
H17   H     H_    0.576459 0.642254 0.158329 0.106439
H18   H     H_    0.507421 0.681737 0.760449 0.118786
H19   H     H_    0.477274 0.316002 0.234231 0.115887
H20   H     H_    0.569602 0.928289 0.853219 0.156132
H21   H     H_    0.490719 0.072509 0.152935 0.144772
H22   H     H_    0.093838 0.866837 0.306484 0.138694
H23   H     H_    0.508434 0.189673 0.979666 0.143334
H24   H     H_    0.198756 0.981916 0.305794 0.187046
H25   H     H_    0.121648 0.970430 0.190177 0.124561
H26   H     H_    0.360026 0.939112 0.240435 0.182042
H27   H     H_    0.247669 0.859988 0.199901 0.123110
H28   H     H_    0.684874 0.085481 0.828311 0.179594
H29   H     H_    0.816303 0.018271 0.850470 0.140417
H30   H     H_    0.846543 0.146687 0.839116 0.141661
H31   H     H_    0.744406 0.059568 0.679570 0.214148
H32   H     H_    0.871327 0.156698 0.678049 0.112378
H33   H     H_    0.588038 0.812634 0.030706 0.151031
H34   H     H_    0.548815 0.537397 0.803863 0.099783
H35   H     H_    0.551015 0.464800 0.207126 0.104271
H36   H     H_    0.760731 0.451411 0.707404 0.109558
H37   H     H_    0.203992 0.530247 0.325142 0.111165
H38   H     H_    0.551118 0.717765 0.557268 0.123636
N1    N     N_R   0.584450 0.204570 0.560790 -0.228373
N2    N     N_R   0.415550 0.795430 0.439210 -0.223751
N3    N     N_1   0.474082 0.037498 0.916987 -0.324000
N4    N     N_1   0.489835 0.891477 0.129661 -0.321265
O1    O     O_R   0.455540 0.022090 0.338120 -0.519871
O2    O     O_R   0.544460 0.977910 0.661880 -0.518261
O3    O     O_R   0.512510 0.160150 0.379180 -0.505069
O4    O     O_R   0.487490 0.839850 0.620820 -0.511229
O5    O     O_R   0.291160 0.930970 0.479480 -0.507383
O6    O     O_R   0.708840 0.069030 0.520520 -0.529520
O7    O     O_R   0.348130 0.069020 0.520540 -0.496428
O8    O     O_R   0.651870 0.930980 0.479460 -0.496016

loop_
_geom_bond_atom_site_label_1
_geom_bond_atom_site_label_2
_ccdc_geom_bond_type
Cu2   N1    S    
C37   H37   S    
C34   C56   A    
C8    C13   A    
C23   C45   A    
C40   H7    S    
C27   C29   A    
C14   C18   A    
C20   H3    S    
C16   O7    A    
C12   O4    A    
C47   C49   A    
C38   C49   A    
C53   C54   S    
C7    C11   A    
C29   C36   A    
C17   C23   S    
C49   H1    S    
C6    H18   S    
C6    C61   A    
C35   C37   A    
C5    H19   S    
Cu2   O6    S    
C3    H21   S    
C33   C36   A    
C51   C56   A    
C1    O3    A    
C15   C19   A    
Cu1   O8    S    
C11   C15   A    
C2    H33   S    
C53   H27   S    
Cu2   O2    S    
C52   H15   S    
C44   C47   A    
C33   H5    S    
C16   C34   S    
C3    C60   A    
C40   C42   A    
C38   C40   A    
C57   H29   S    
C13   C14   A    
C41   C43   A    
C42   C44   A    
C17   O8    A    
C14   H34   S    
C5    C7    A    
C20   C29   A    
C46   C48   A    
C59   N4    T    
C27   C31   A    
C9    C62   A    
C28   C32   A    
C35   H6    S    
C54   H25   S    
C55   H31   S    
C1    C60   S    
C54   H22   S    
C25   N1    A    
C6    C8    A    
C45   C52   A    
C24   C53   S    
C4    C61   A    
C22   N1    A    
C30   C37   A    
C24   N2    A    
C48   H13   S    
C2    C4    A    
C50   H12   S    
C23   C51   A    
C31   C32   A    
C4    H20   S    
C10   C19   A    
C39   C59   S    
C36   H36   S    
C38   C58   S    
C42   C56   S    
C43   C45   S    
C1    O1    A    
C41   H8    S    
C18   H16   S    
C20   C22   A    
C57   H30   S    
C55   C57   S    
C21   H4    S    
C31   C35   A    
Cu1   O1    S    
C2    C10   A    
C17   O6    A    
C46   H10   S    
C12   O2    A    
C62   H23   S    
C3    C62   A    
C7    C9    A    
C55   H32   S    
Cu2   O7    S    
C5    C60   A    
C34   C52   A    
C25   H2    S    
C15   H35   S    
Cu1   N2    S    
C22   C55   S    
C25   C27   A    
C21   C30   A    
C26   C28   A    
C58   N3    T    
C32   C33   A    
Cu1   O4    S    
C28   C30   A    
C51   H14   S    
C47   H11   S    
C26   H38   S    
C54   H24   S    
C12   C61   S    
C11   C13   A    
Cu2   O3    S    
C48   C50   A    
C57   H28   S    
Cu1   O5    S    
C44   H9    S    
C43   C46   A    
C26   N2    A    
Cu1   Cu2   S    
C9    C18   A    
C39   C50   A    
C39   C41   A    
C8    C10   A    
C21   C24   A    
C53   H26   S    
C19   H17   S    
C16   O5    A    
