data_mof_unit_2668.cif
_audit_creation_date              2012-12-10T18:42:29-0500
_audit_creation_method            fapswitch 2.2
_symmetry_space_group_name_H-M    P1
_symmetry_Int_Tables_number       1
_space_group_crystal_system       triclinic
_cell_length_a                    8.591379
_cell_length_b                    10.694175
_cell_length_c                    9.846095
_cell_angle_alpha                 90.684441
_cell_angle_beta                  98.689232
_cell_angle_gamma                 90.073308
_cell_volume                      894.18535774

loop_
_atom_site_label
_atom_site_type_symbol
_atom_type_description
_atom_site_fract_x
_atom_site_fract_y
_atom_site_fract_z
_atom_type_partial_charge
C1    C     C_R   0.501523 0.260086 0.499122 0.899317
C2    C     C_R   0.498478 0.739913 0.500877 0.899323
C3    C     C_R   0.201072 0.499962 0.464040 0.964359
C4    C     C_R   0.798928 0.500038 0.535960 0.964359
C5    C     C_2   0.035930 0.499997 0.444699 -0.387143
C6    C     C_2   0.964070 0.500004 0.555301 -0.387140
C7    C     C_R   0.583234 0.060991 0.406811 0.211664
C8    C     C_R   0.416753 0.939006 0.593179 0.211673
C9    C     C_R   0.582772 0.932451 0.411784 -0.307650
C10   C     C_R   0.417220 0.067546 0.588211 -0.307635
C11   C     C_R   0.499254 0.872309 0.503141 -0.091536
C12   C     C_R   0.500743 0.127690 0.496855 -0.091543
C13   C     C_R   0.603174 0.573473 0.086436 -0.072724
C14   C     C_R   0.396825 0.426528 0.913564 -0.072727
C15   C     C_R   0.603216 0.573348 0.942594 -0.079884
C16   C     C_R   0.396782 0.426654 0.057405 -0.079886
H1    H     H_    0.973939 0.500035 0.339813 0.178565
H2    H     H_    0.026061 0.499965 0.660187 0.178566
H3    H     H_    0.648114 0.879600 0.344529 0.161621
H4    H     H_    0.351866 0.120397 0.655458 0.161623
H5    H     H_    0.685623 0.632299 0.152491 0.122236
H6    H     H_    0.314375 0.367702 0.847509 0.122239
H7    H     H_    0.685788 0.631971 0.899727 0.122005
H8    H     H_    0.314208 0.368034 0.100272 0.122004
N1    N     N_R   0.499960 0.499970 0.857200 -0.075166
N2    N     N_R   0.500040 0.500030 0.142800 -0.075165
O1    O     O_R   0.499990 0.316750 0.614620 -0.632093
O2    O     O_R   0.500010 0.683250 0.385380 -0.632097
O3    O     O_R   0.499990 0.316780 0.385290 -0.597134
O4    O     O_R   0.500010 0.683220 0.614710 -0.597137
O5    O     O_R   0.271750 0.499990 0.587840 -0.613863
O6    O     O_R   0.728250 0.500010 0.412160 -0.613865
O7    O     O_R   0.271750 0.500010 0.358510 -0.631086
O8    O     O_R   0.728250 0.499990 0.641490 -0.631085
Zn1   Zn    Zn3+2 0.500000 0.499980 0.653120 0.946111
Zn2   Zn    Zn3+2 0.500000 0.500020 0.346880 0.946107
N3    N     N_2   0.671875 0.122515 0.316213 -0.289171
H9    H     H_    0.786611 0.091523 0.325300 0.212701
C17   C     C_3   0.596636 0.122879 0.174386 -0.742296
H10   H     H_    0.591435 0.026500 0.130374 0.217127
H11   H     H_    0.665186 0.182916 0.113540 0.235932
H12   H     H_    0.475347 0.160874 0.166314 0.248115
N4    N     N_2   0.328072 0.877478 0.683733 -0.289183
H13   H     H_    0.213322 0.908442 0.674569 0.212708
C18   C     C_3   0.403214 0.877153 0.825583 -0.742338
H14   H     H_    0.408412 0.973549 0.869556 0.217132
H15   H     H_    0.524494 0.839128 0.833736 0.248132
H16   H     H_    0.334598 0.817160 0.886409 0.235925

loop_
_geom_bond_atom_site_label_1
_geom_bond_atom_site_label_2
_ccdc_geom_bond_type
N4    H13   S    
N3    H9    S    
C4    O8    A    
N4    C18   S    
C8    N4    S    
C2    O4    A    
C14   H6    S    
C1    O3    A    
C7    N3    S    
C13   H5    S    
C16   H8    S    
C18   H14   S    
C3    O5    A    
C9    C11   A    
O3    Zn2   S    
C4    O6    A    
C1    C12   S    
C10   C12   A    
O4    Zn1   S    
N1    Zn1   S    
C8    C11   A    
C5    C6    D    
C2    C11   S    
O6    Zn2   S    
C15   H7    S    
C17   H12   S    
C14   C16   A    
C18   H15   S    
C13   C15   A    
C16   N2    A    
C7    C12   A    
C6    H2    S    
O5    Zn1   S    
C13   N2    A    
C15   N1    A    
C4    C6    S    
C5    H1    S    
C3    O7    A    
C7    C9    A    
N3    C17   S    
O7    Zn2   S    
C14   N1    A    
O2    Zn2   S    
C17   H11   S    
O8    Zn1   S    
C18   H16   S    
N2    Zn2   S    
C17   H10   S    
C1    O1    A    
C2    O2    A    
O1    Zn1   S    
C9    H3    S    
C8    C10   A    
C10   H4    S    
C3    C5    S    
