data_mof_unit_2203.cif
_audit_creation_date              2012-12-10T18:45:03-0500
_audit_creation_method            fapswitch 2.2
_symmetry_space_group_name_H-M    P1
_symmetry_Int_Tables_number       1
_space_group_crystal_system       triclinic
_cell_length_a                    19.407885
_cell_length_b                    18.2035
_cell_length_c                    10.799604
_cell_angle_alpha                 89.032262
_cell_angle_beta                  91.067244
_cell_angle_gamma                 89.88726
_cell_volume                      3814.19164726

loop_
_atom_site_label
_atom_site_type_symbol
_atom_type_description
_atom_site_fract_x
_atom_site_fract_y
_atom_site_fract_z
_atom_type_partial_charge
C1    C     C_R   0.367510 0.500042 0.500939 0.980889
C2    C     C_R   0.291774 0.500014 0.499825 -0.100466
C3    C     C_R   0.962657 0.496340 0.376854 0.351249
C4    C     C_R   0.035796 0.494748 0.377775 0.395494
C5    C     C_R   0.071812 0.498383 0.491746 0.116426
C6    C     C_R   0.928246 0.496707 0.490286 0.014532
C7    C     C_R   0.036540 0.498196 0.603365 -0.157980
C8    C     C_R   0.965095 0.496623 0.602668 -0.170472
C9    C     C_R   0.449789 0.720047 0.432397 0.456208
C10   C     C_R   0.551712 0.723502 0.557019 0.419812
C11   C     C_R   0.444308 0.798215 0.434662 0.200106
C12   C     C_R   0.632504 0.499921 0.500086 0.800662
C13   C     C_R   0.554087 0.801010 0.545931 0.296275
C14   C     C_R   0.498078 0.839597 0.489862 -0.247295
C15   C     C_R   0.498192 0.500649 0.262459 0.911134
C16   C     C_R   0.496510 0.499178 0.737258 0.885806
C17   C     C_R   0.490857 0.959978 0.601815 -0.105222
C18   C     C_R   0.500939 0.963444 0.379818 -0.079639
C19   C     C_R   0.493114 0.037295 0.605152 0.373805
C20   C     C_R   0.500060 0.040941 0.379558 0.283816
C21   C     C_R   0.497240 0.079174 0.493182 -0.169152
C22   C     C_R   0.496009 0.922291 0.490196 0.119664
C23   C     C_R   0.852691 0.497452 0.492520 -0.062351
C24   C     C_R   0.439852 0.201566 0.528858 -0.187473
C25   C     C_R   0.557612 0.201283 0.463501 -0.094751
C26   C     C_R   0.441891 0.278654 0.531592 0.140549
C27   C     C_R   0.557230 0.278537 0.465419 0.092918
C28   C     C_R   0.498277 0.161696 0.495055 0.195915
C29   C     C_R   0.623264 0.523283 0.130499 -0.327204
C30   C     C_R   0.622133 0.523292 0.872798 -0.328442
C31   C     C_R   0.685038 0.534731 0.067131 0.481744
C32   C     C_R   0.684407 0.535043 0.937824 0.489176
C33   C     C_R   0.559614 0.511586 0.935722 0.011216
C34   C     C_R   0.147362 0.499757 0.495287 -0.011982
C35   C     C_R   0.560145 0.512043 0.065767 0.005849
C36   C     C_R   0.497468 0.502358 0.128327 -0.229139
C37   C     C_R   0.497225 0.496688 0.871333 -0.223831
C38   C     C_R   0.434331 0.492184 0.063350 0.314026
C39   C     C_R   0.435675 0.480429 0.934844 0.318600
C40   C     C_R   0.743944 0.432461 0.500738 -0.154389
C41   C     C_R   0.255698 0.433865 0.487185 -0.213018
C42   C     C_R   0.815584 0.430430 0.497732 0.419055
C43   C     C_R   0.183476 0.433241 0.484551 0.417571
C44   C     C_R   0.816949 0.565272 0.490437 0.438175
C45   C     C_R   0.183223 0.566608 0.508915 0.368049
C46   C     C_R   0.744999 0.565449 0.493794 -0.283867
C47   C     C_R   0.255243 0.566046 0.510794 -0.164415
C48   C     C_R   0.708204 0.499387 0.498634 -0.231797
Cu1   Cu    Cu3+1 0.500000 0.573360 0.500000 1.043524
Cu2   Cu    Cu3+1 0.500000 0.426640 0.500000 1.030216
H1    H     H_    0.486317 0.928471 0.687178 0.206908
H2    H     H_    0.283577 0.382656 0.478590 0.166417
H3    H     H_    0.717515 0.617255 0.491907 0.252114
H4    H     H_    0.282945 0.617196 0.521193 0.233233
H5    H     H_    0.064590 0.499225 0.690998 0.193366
H6    H     H_    0.938248 0.496604 0.689738 0.205116
H7    H     H_    0.247829 0.525314 0.098867 0.392866
H8    H     H_    0.268551 0.385660 0.899895 0.381195
H9    H     H_    0.393050 0.708111 0.285329 0.372128
H10   H     H_    0.585349 0.645964 0.665117 0.359592
H11   H     H_    0.263088 0.811185 0.334501 0.408082
H12   H     H_    0.505303 0.934680 0.293382 0.209652
H13   H     H_    0.734425 0.823319 0.647630 0.401576
H14   H     H_    0.538085 0.175688 0.833813 0.401915
H15   H     H_    0.402718 0.141215 0.253914 0.358458
H16   H     H_    0.738984 0.543574 0.219779 0.328845
H17   H     H_    0.736755 0.545104 0.786512 0.324749
H18   H     H_    0.897082 0.366573 0.495925 0.343679
H19   H     H_    0.179928 0.327139 0.465454 0.343375
H20   H     H_    0.944265 0.699696 0.588436 0.396395
H21   H     H_    0.052371 0.703769 0.429517 0.395158
H22   H     H_    0.950771 0.523274 0.202990 0.365499
H23   H     H_    0.392811 0.173207 0.552640 0.174009
H24   H     H_    0.045345 0.463313 0.208022 0.341447
H25   H     H_    0.603924 0.172609 0.437457 0.175995
H26   H     H_    0.396254 0.307808 0.558402 0.160487
H27   H     H_    0.603043 0.307814 0.438437 0.131443
H28   H     H_    0.625210 0.523554 0.230605 0.134146
H29   H     H_    0.623513 0.522338 0.772806 0.131992
H30   H     H_    0.716220 0.380902 0.504572 0.189741
N1    N     N_R   0.500000 0.683620 0.500000 -0.285155
N2    N     N_R   0.500000 0.316380 0.500000 -0.189645
O1    O     O_R   0.400190 0.561980 0.499980 -0.520235
O2    O     O_2   0.361153 0.557095 0.241588 -0.292220
O3    O     O_3   0.289619 0.528156 0.047722 -0.422590
O4    O     O_2   0.321935 0.506028 0.795192 -0.291531
O5    O     O_2   0.383378 0.391754 0.755441 -0.316577
O6    O     O_3   0.310865 0.395458 0.949562 -0.421251
O7    O     O_3   0.405458 0.679161 0.360969 -0.601440
O8    O     O_3   0.604148 0.689583 0.623568 -0.642621
O9    O     O_2   0.351659 0.909478 0.446771 -0.247472
O10   O     O_2   0.380580 0.864703 0.241325 -0.259078
O11   O     O_3   0.300928 0.784906 0.379435 -0.454729
O12   O     O_R   0.599810 0.561980 0.500020 -0.581002
O13   O     O_2   0.641542 0.916661 0.531124 -0.260258
O14   O     O_2   0.613461 0.869219 0.737854 -0.236085
O15   O     O_3   0.697920 0.794575 0.605401 -0.406739
O16   O     O_2   0.420743 0.106058 0.776481 -0.253152
O17   O     O_2   0.513613 0.024730 0.851733 -0.174971
O18   O     O_3   0.547184 0.150776 0.754916 -0.511980
O19   O     O_2   0.573534 0.113492 0.210615 -0.222134
O20   O     O_2   0.479131 0.037646 0.132275 -0.179637
O21   O     O_3   0.448663 0.161355 0.234071 -0.485251
O22   O     O_3   0.746864 0.545749 0.129353 -0.621499
O23   O     O_R   0.400190 0.438070 0.500040 -0.588238
O24   O     O_3   0.745610 0.546357 0.877201 -0.638787
O25   O     O_3   0.846460 0.361857 0.499933 -0.679123
O26   O     O_3   0.147012 0.368579 0.471869 -0.690272
O27   O     O_2   0.902336 0.654384 0.367112 -0.238898
O28   O     O_2   0.810942 0.713596 0.482902 -0.215732
O29   O     O_3   0.914481 0.656927 0.606935 -0.493030
O30   O     O_2   0.102201 0.651099 0.644655 -0.262904
O31   O     O_2   0.188650 0.714559 0.520201 -0.209641
O32   O     O_3   0.081130 0.661252 0.406724 -0.482997
O33   O     O_3   0.923550 0.499141 0.268675 -0.669317
O34   O     O_R   0.599810 0.438070 0.499960 -0.609664
O35   O     O_3   0.073386 0.489290 0.270946 -0.682156
O36   O     O_R   0.500000 0.561970 0.319650 -0.530570
O37   O     O_R   0.500000 0.561970 0.680350 -0.618015
O38   O     O_R   0.500010 0.438060 0.319710 -0.569824
O39   O     O_R   0.499990 0.438060 0.680290 -0.536600
O40   O     O_2   0.337174 0.427850 0.202043 -0.268021
S1    S     S_3+6 0.354592 0.500634 0.142855 0.068689
S2    S     S_3+6 0.362095 0.443595 0.854189 0.055029
S3    S     S_3+6 0.368569 0.842413 0.373794 0.046464
S4    S     S_3+6 0.627397 0.848380 0.606593 0.092809
S5    S     S_3+6 0.492434 0.079285 0.752047 0.081956
S6    S     S_3+6 0.501374 0.087913 0.234483 0.077918
S7    S     S_3+6 0.860997 0.650503 0.483327 0.066581
S8    S     S_3+6 0.139094 0.651271 0.523522 0.062440

loop_
_geom_bond_atom_site_label_1
_geom_bond_atom_site_label_2
_ccdc_geom_bond_type
O18   S5    S    
O32   S8    S    
C35   C36   A    
C7    H5    S    
O6    S2    S    
C3    C6    A    
O10   S3    D    
C17   H1    S    
C7    C8    A    
O2    S1    D    
H22   O33   S    
C23   C42   A    
Cu2   O38   S    
C11   S3    S    
C24   C26   A    
C20   S6    S    
O20   S6    D    
O5    S2    D    
C11   C14   A    
H11   O11   S    
C24   H23   S    
C2    C41   A    
O19   S6    D    
C15   O38   A    
O28   S7    D    
C1    C2    S    
H9    O7    S    
Cu1   N1    S    
C17   C19   A    
O29   S7    S    
C29   H28   S    
Cu1   O36   S    
Cu2   O23   S    
C26   H26   S    
C40   H30   S    
H18   O25   S    
Cu1   O12   S    
C42   O25   S    
C41   H2    S    
C18   C20   A    
C38   S1    S    
C12   C48   S    
C16   C37   S    
C40   C42   A    
C45   S8    S    
C26   N2    A    
C32   O24   S    
C13   C14   A    
C8    H6    S    
C41   C43   A    
C12   O12   A    
Cu2   O39   S    
H19   O26   S    
C44   C46   A    
C45   C47   A    
C38   C39   A    
C46   C48   A    
O31   S8    D    
H16   O22   S    
C16   O37   A    
C9    O7    S    
C5    C7    A    
C18   H12   S    
O17   S5    D    
C44   S7    S    
C33   C37   A    
C23   C44   A    
H21   O32   S    
C25   C28   A    
C16   O39   A    
C31   C32   A    
H14   O18   S    
C29   C31   A    
C5    C34   S    
O14   S4    D    
C34   C45   A    
O21   S6    S    
C9    C11   A    
C47   H4    S    
C13   S4    S    
O16   S5    D    
C21   C28   S    
O4    S2    D    
C4    O35   S    
C1    O1    A    
C30   H29   S    
C3    C4    A    
C15   C36   S    
Cu2   N2    S    
C40   C48   A    
H24   O35   S    
O9    S3    D    
C30   C33   A    
C19   C21   A    
C18   C22   A    
C27   N2    A    
C34   C43   A    
C24   C28   A    
O15   S4    S    
C27   H27   S    
C10   C13   A    
H8    O6    S    
C6    C8    A    
H17   O24   S    
H10   O8    S    
C2    C47   A    
C25   C27   A    
C29   C35   A    
C10   N1    A    
C17   C22   A    
C15   O36   A    
O30   S8    D    
C31   O22   S    
Cu1   O1    S    
C36   C38   A    
H13   O15   S    
C3    O33   S    
C30   C32   A    
O13   S4    D    
C14   C22   S    
Cu1   O37   S    
C6    C23   S    
C46   H3    S    
C19   S5    S    
C33   C35   A    
H7    O3    S    
O3    S1    S    
Cu2   O34   S    
C43   O26   S    
O11   S3    S    
H20   O29   S    
C39   S2    S    
C4    C5    A    
C20   C21   A    
C10   O8    S    
C37   C39   A    
Cu1   Cu2   S    
C1    O23   A    
H15   O21   S    
C25   H25   S    
O40   S1    D    
O27   S7    D    
C9    N1    A    
C12   O34   A    
