data_mof_unit_3786.cif
_audit_creation_date              2012-12-10T17:22:06-0500
_audit_creation_method            fapswitch 2.2
_symmetry_space_group_name_H-M    P1
_symmetry_Int_Tables_number       1
_space_group_crystal_system       triclinic
_cell_length_a                    10.230438
_cell_length_b                    10.606001
_cell_length_c                    15.744639
_cell_angle_alpha                 91.798142
_cell_angle_beta                  81.332944
_cell_angle_gamma                 95.197099
_cell_volume                      1681.63303812

loop_
_atom_site_label
_atom_site_type_symbol
_atom_type_description
_atom_site_fract_x
_atom_site_fract_y
_atom_site_fract_z
_atom_type_partial_charge
C1    C     C_R   0.554887 0.733013 0.489344 0.963610
C2    C     C_3   0.358200 0.507175 0.065179 -0.491752
C3    C     C_3   0.502774 0.501639 0.082670 0.032914
C4    C     C_3   0.553783 0.376537 0.041150 0.132288
C5    C     C_3   0.554429 0.377038 0.941750 -0.131943
C6    C     C_1   0.501682 0.499889 0.174394 0.084658
C7    C     C_1   0.500033 0.504337 0.825276 -0.050557
C8    C     C_1   0.500337 0.502864 0.750030 -0.179590
C9    C     C_2   0.583836 0.866372 0.471842 -0.468858
C10   C     C_2   0.496691 0.930969 0.438933 0.459454
C11   C     C_2   0.415938 0.131918 0.485612 -0.346036
C12   C     C_R   0.500099 0.500838 0.661386 0.888547
C13   C     C_2   0.513545 0.066867 0.444623 -0.193194
C14   C     C_2   0.928933 0.518792 0.504100 0.130827
C15   C     C_2   0.072323 0.493090 0.490350 -0.118121
C16   C     C_R   0.444853 0.266209 0.501184 0.919395
C17   C     C_R   0.500012 0.499438 0.338537 0.910563
C18   C     C_3   0.353093 0.516229 0.967083 0.485968
C19   C     C_3   0.601214 0.614818 0.943907 -0.211005
C20   C     C_3   0.591512 0.619694 0.043938 0.223792
C21   C     C_1   0.500552 0.499404 0.249726 -0.087026
C22   C     C_3   0.499023 0.504345 0.917093 0.080907
H1    H     H_    0.313555 0.587938 0.101978 0.227028
H2    H     H_    0.296818 0.421414 0.091928 0.204233
H3    H     H_    0.612792 0.111696 0.424325 0.172204
H4    H     H_    0.317363 0.086535 0.506939 0.184817
H5    H     H_    0.672601 0.914885 0.491977 0.129221
H6    H     H_    0.106730 0.424134 0.441612 0.153007
H7    H     H_    0.127975 0.614612 0.582421 0.180076
H8    H     H_    0.878334 0.376333 0.426131 0.155525
H9    H     H_    0.701378 0.583301 0.920173 0.154469
H10   H     H_    0.693359 0.616229 0.060128 0.161830
H11   H     H_    0.661021 0.384801 0.912761 0.183205
H12   H     H_    0.486871 0.298225 0.072361 0.149996
N1    N     N_2   0.842720 0.448890 0.465540 -0.203399
N2    N     N_2   0.157250 0.551040 0.534500 -0.189174
O1    O     O_R   0.431050 0.692470 0.506940 -0.556698
O2    O     O_R   0.651130 0.659650 0.484820 -0.632483
O3    O     O_R   0.389910 0.516410 0.633920 -0.598580
O4    O     O_R   0.609990 0.483590 0.611800 -0.640378
O5    O     O_R   0.348870 0.340350 0.515180 -0.605966
O6    O     O_R   0.568950 0.307530 0.493060 -0.606979
O7    O     O_R   0.390010 0.516410 0.388200 -0.588082
O8    O     O_R   0.610090 0.483590 0.366080 -0.593946
Zn1   Zn    Zn3+2 0.353060 0.521920 0.514770 0.987273
Zn2   Zn    Zn3+2 0.646940 0.478080 0.485230 0.946416
Cl1   Cl    Cl    0.240841 0.387385 0.935692 -0.673881
Cl2   Cl    Cl    0.715764 0.351173 0.065330 -0.626359
Cl3   Cl    Cl    0.358204 0.860739 0.393691 -0.565889
C23   C     C_3   0.888417 0.628506 0.564303 -0.347110
C24   C     C_3   0.939370 0.757617 0.524441 -0.332253
C25   C     C_3   0.907113 0.865750 0.588323 -0.905691
H13   H     H_    0.798457 0.862830 0.610133 0.251759
H14   H     H_    0.958579 0.858581 0.645060 0.266359
H15   H     H_    0.941011 0.957859 0.557146 0.265095
H16   H     H_    0.048367 0.763802 0.503912 0.251418
H17   H     H_    0.892511 0.770120 0.466388 0.251921
H18   H     H_    0.782296 0.628127 0.583467 0.260336
H19   H     H_    0.923300 0.618634 0.626973 0.155392
C26   C     C_3   0.294525 0.642488 0.948672 -0.419474
C27   C     C_3   0.143069 0.642881 0.976816 -0.269019
C28   C     C_3   0.097310 0.775806 0.976474 -0.898424
H20   H     H_    0.142018 0.837533 0.024672 0.284752
H21   H     H_    0.125407 0.817375 0.911698 0.263383
H22   H     H_    0.987722 0.771019 0.993629 0.257993
H23   H     H_    0.089218 0.582650 0.932003 0.269427
H24   H     H_    0.114194 0.604677 0.042517 0.251877
H25   H     H_    0.341641 0.721152 0.984091 0.225794
H26   H     H_    0.316482 0.663831 0.879095 0.200121
C29   C     C_3   0.609061 0.745843 0.899389 -0.366366
C30   C     C_3   0.745249 0.820371 0.900716 -0.331445
C31   C     C_3   0.752031 0.949912 0.860094 -0.843088
H27   H     H_    0.727188 0.940122 0.793763 0.245744
H28   H     H_    0.682207 0.010183 0.899546 0.281546
H29   H     H_    0.853998 0.997067 0.857250 0.265908
H30   H     H_    0.765582 0.834058 0.967850 0.268300
H31   H     H_    0.824495 0.766324 0.864398 0.208612
H32   H     H_    0.595686 0.732490 0.831011 0.192754
H33   H     H_    0.531105 0.805424 0.929161 0.249347
Cl4   Cl    Cl    0.535610 0.764506 0.094307 -0.632769
C32   C     C_3   0.502734 0.250000 0.897991 -0.347145
C33   C     C_3   0.430457 0.144738 0.957091 -0.284321
C34   C     C_3   0.377726 0.032907 0.904835 -0.882267
H34   H     H_    0.297412 0.060997 0.871000 0.284957
H35   H     H_    0.458144 0.998393 0.856805 0.250732
H36   H     H_    0.337133 0.954475 0.948634 0.262738
H37   H     H_    0.500452 0.110166 0.996830 0.244950
H38   H     H_    0.345048 0.180492 0.000110 0.264277
H39   H     H_    0.439062 0.268618 0.849611 0.257842
H40   H     H_    0.589465 0.208551 0.859434 0.183711

loop_
_geom_bond_atom_site_label_1
_geom_bond_atom_site_label_2
_ccdc_geom_bond_type
C2    C18   S    
C19   C20   S    
C3    C6    S    
C19   H9    S    
C18   Cl1   S    
C32   C33   S    
C7    C8    T    
O4    Zn2   S    
H7    N2    S    
H8    N1    S    
C23   H19   S    
C4    Cl2   S    
C30   H30   S    
C29   H32   S    
C33   H37   S    
C24   H16   S    
O6    Zn2   S    
C28   H21   S    
C27   H23   S    
C5    C22   S    
O8    Zn2   S    
C5    H11   S    
C29   C30   S    
C24   H17   S    
C9    C10   D    
C25   H15   S    
C1    O1    A    
O3    Zn1   S    
C32   H39   S    
C13   H3    S    
C10   Cl3   S    
C31   H29   S    
C25   H14   S    
C4    H12   S    
C20   Cl4   S    
C24   C25   S    
C23   H18   S    
C3    C20   S    
C19   C22   S    
C1    C9    S    
C31   H28   S    
C14   N1    D    
C4    C5    S    
C11   H4    S    
C6    C21   T    
C17   C21   S    
C26   C27   S    
C12   O4    A    
C17   O7    A    
C28   H20   S    
C5    C32   S    
C11   C16   S    
C27   H24   S    
C34   H34   S    
C8    C12   S    
C23   C24   S    
N2    Zn1   S    
O7    Zn1   S    
C1    O2    A    
C32   H40   S    
C18   C26   S    
C34   H35   S    
C2    H2    S    
O1    Zn1   S    
C3    C4    S    
C16   O6    A    
C15   N2    D    
C30   H31   S    
C25   H13   S    
C9    H5    S    
C20   H10   S    
C28   H22   S    
C29   H33   S    
C18   C22   S    
C31   H27   S    
C10   C13   S    
C7    C22   S    
C12   O3    A    
C2    C3    S    
C17   O8    A    
C30   C31   S    
C11   C13   D    
C15   H6    S    
C14   C23   S    
C26   H26   S    
C33   H38   S    
C27   C28   S    
O2    Zn2   S    
C34   H36   S    
C26   H25   S    
C33   C34   S    
C2    H1    S    
O5    Zn1   S    
C14   C15   S    
C19   C29   S    
N1    Zn2   S    
C16   O5    A    
