data_mof_unit_4621.cif
_audit_creation_date              2012-12-10T17:15:49-0500
_audit_creation_method            fapswitch 2.2
_symmetry_space_group_name_H-M    P1
_symmetry_Int_Tables_number       1
_space_group_crystal_system       triclinic
_cell_length_a                    10.214951
_cell_length_b                    10.638542
_cell_length_c                    10.449778
_cell_angle_alpha                 91.111699
_cell_angle_beta                  94.417134
_cell_angle_gamma                 81.704524
_cell_volume                      1120.34137706

loop_
_atom_site_label
_atom_site_type_symbol
_atom_type_description
_atom_site_fract_x
_atom_site_fract_y
_atom_site_fract_z
_atom_type_partial_charge
C1    C     C_R   0.445977 0.501263 0.265233 0.894399
C2    C     C_R   0.599415 0.054215 0.598985 0.065451
C3    C     C_R   0.502297 0.128275 0.517788 -0.065858
C4    C     C_R   0.404211 0.075726 0.444459 -0.192166
C5    C     C_R   0.405346 0.947530 0.443500 -0.210099
C6    C     C_R   0.504270 0.871290 0.516614 -0.094501
C7    C     C_2   0.420902 0.482006 0.127833 -0.026409
C8    C     C_2   0.500482 0.390737 0.066457 -0.090291
C9    C     C_2   0.578220 0.457538 0.870144 -0.398156
C10   C     C_2   0.497960 0.389795 0.927681 0.217467
C11   C     C_2   0.071713 0.492237 0.483986 0.222090
C12   C     C_R   0.500830 0.260567 0.505244 0.872163
C13   C     C_2   0.927220 0.513850 0.507527 -0.142441
C14   C     C_R   0.553846 0.485077 0.734401 0.917421
C15   C     C_R   0.501811 0.739128 0.505801 0.866684
C16   C     C_R   0.692664 0.108144 0.682235 -0.198131
C17   C     C_R   0.786909 0.031391 0.760741 0.228718
C18   C     C_R   0.786978 0.900579 0.761102 -0.167069
C19   C     C_R   0.693666 0.846124 0.682176 -0.229569
C20   C     C_R   0.600237 0.922194 0.598616 0.102588
H1    H     H_    0.330372 0.133321 0.382684 0.182100
H2    H     H_    0.891605 0.587214 0.575193 0.149181
H3    H     H_    0.875846 0.375925 0.388486 0.197049
H4    H     H_    0.120860 0.612139 0.622203 0.160332
H5    H     H_    0.692637 0.209530 0.689172 0.174967
H6    H     H_    0.858653 0.840953 0.823480 0.170921
H7    H     H_    0.694716 0.744775 0.689094 0.160910
H8    H     H_    0.331293 0.907161 0.382059 0.175199
H9    H     H_    0.653423 0.502208 0.925873 0.141802
N1    N     N_2   0.157290 0.551390 0.551110 -0.190999
N2    N     N_2   0.842740 0.448550 0.448960 -0.183786
O1    O     O_R   0.568950 0.489660 0.307530 -0.612730
O2    O     O_R   0.348880 0.522640 0.340350 -0.560303
O3    O     O_R   0.610060 0.300270 0.483590 -0.618030
O4    O     O_R   0.389990 0.333260 0.516410 -0.571190
O5    O     O_R   0.651120 0.477360 0.659650 -0.616128
O6    O     O_R   0.431050 0.510340 0.692470 -0.560612
O7    O     O_R   0.610010 0.666740 0.483590 -0.619578
O8    O     O_R   0.389940 0.699730 0.516410 -0.597120
Zn1   Zn    Zn3+2 0.646940 0.477980 0.478090 0.951265
Zn2   Zn    Zn3+2 0.353060 0.522020 0.521910 1.020971
I1    I     I_    0.273202 0.614803 0.029542 -0.306415
I2    I     I_    0.131533 0.363964 0.332231 -0.360773
I3    I     I_    0.928807 0.113882 0.879054 -0.338729
I4    I     I_    0.363838 0.276403 0.831786 -0.263410
C21   C     C_R   0.588983 0.285321 0.132982 0.124418
C22   C     C_R   0.537194 0.177276 0.169323 -0.143461
C23   C     C_R   0.621937 0.072991 0.222022 -0.130660
C24   C     C_R   0.758093 0.076976 0.241141 -0.077367
C25   C     C_R   0.810195 0.184280 0.205145 -0.112254
C26   C     C_R   0.726281 0.287773 0.149923 -0.080071
H10   H     H_    0.431824 0.172929 0.154461 0.159662
H11   H     H_    0.582261 0.988770 0.247644 0.151396
H12   H     H_    0.823326 0.996478 0.282720 0.143263
H13   H     H_    0.915902 0.186458 0.218378 0.165820
H14   H     H_    0.768122 0.369556 0.120443 0.142072

loop_
_geom_bond_atom_site_label_1
_geom_bond_atom_site_label_2
_ccdc_geom_bond_type
C9    C14   S    
N1    Zn2   S    
C11   I2    S    
C22   H10   S    
C5    H8    S    
C2    C16   A    
C9    C10   D    
C19   C20   A    
C18   H6    S    
C9    H9    S    
C25   H13   S    
O2    Zn2   S    
C10   I4    S    
C17   C18   A    
C17   I3    S    
C1    O2    A    
C7    C8    D    
O8    Zn2   S    
C12   O4    A    
O7    Zn1   S    
C4    H1    S    
C11   C13   S    
C15   O8    A    
C23   H11   S    
C15   O7    A    
C6    C20   A    
O3    Zn1   S    
C4    C5    A    
C23   C24   A    
C13   H2    S    
C2    C3    A    
H4    N1    S    
O1    Zn1   S    
O6    Zn2   S    
C5    C6    A    
O4    Zn2   S    
C8    C21   S    
C12   O3    A    
C24   H12   S    
O5    Zn1   S    
C19   H7    S    
N2    Zn1   S    
C8    C10   S    
C26   H14   S    
C7    I1    S    
C16   H5    S    
C24   C25   A    
C21   C22   A    
C18   C19   A    
C14   O5    A    
C3    C12   S    
C25   C26   A    
C6    C15   S    
C1    C7    S    
C2    C20   A    
C21   C26   A    
C13   N2    D    
C1    O1    A    
C3    C4    A    
C22   C23   A    
C11   N1    D    
C16   C17   A    
C14   O6    A    
H3    N2    S    
