data_mof_unit_3570.cif
_audit_creation_date              2012-12-10T19:07:01-0500
_audit_creation_method            fapswitch 2.2
_symmetry_space_group_name_H-M    P1
_symmetry_Int_Tables_number       1
_space_group_crystal_system       triclinic
_cell_length_a                    27.78467
_cell_length_b                    10.821296
_cell_length_c                    9.623416
_cell_angle_alpha                 91.765121
_cell_angle_beta                  89.670128
_cell_angle_gamma                 91.724158
_cell_volume                      2890.71924781

loop_
_atom_site_label
_atom_site_type_symbol
_atom_type_description
_atom_site_fract_x
_atom_site_fract_y
_atom_site_fract_z
_atom_type_partial_charge
C1    C     C_R   0.499599 0.262893 0.497607 0.861926
C2    C     C_R   0.276272 0.495834 0.385535 0.357916
C3    C     C_R   0.253153 0.533334 0.509279 0.116698
C4    C     C_R   0.100899 0.521431 0.520380 -0.065533
C5    C     C_R   0.126467 0.414475 0.486940 -0.080139
C6    C     C_R   0.101488 0.308674 0.436362 -0.174932
C7    C     C_R   0.126387 0.634334 0.543990 -0.108669
C8    C     C_R   0.354120 0.511042 0.501509 -0.234323
C9    C     C_R   0.644951 0.495337 0.503745 -0.218021
C10   C     C_R   0.973986 0.395156 0.508091 -0.003284
C11   C     C_R   0.973815 0.614710 0.583909 -0.112614
C12   C     C_R   0.407360 0.501122 0.500265 0.907574
C13   C     C_R   0.948616 0.503340 0.545393 -0.050559
C14   C     C_R   0.947557 0.280557 0.504955 0.508755
C15   C     C_R   0.897619 0.278973 0.492037 -0.200178
C16   C     C_R   0.872415 0.388147 0.509668 -0.066589
C17   C     C_R   0.897543 0.498358 0.549397 -0.126492
C18   C     C_R   0.871577 0.602544 0.593786 -0.179935
C19   C     C_R   0.820750 0.594777 0.589834 0.679137
C20   C     C_R   0.822240 0.388131 0.496774 0.661966
C21   C     C_R   0.716568 0.413459 0.606002 0.310111
C22   C     C_R   0.666618 0.414289 0.593478 -0.291900
C23   C     C_R   0.500826 0.737516 0.501917 0.820940
C24   C     C_R   0.673816 0.578684 0.428259 0.436641
C25   C     C_R   0.724100 0.569915 0.429984 0.201574
C26   C     C_R   0.745822 0.489570 0.522040 0.131529
C27   C     C_R   0.024737 0.403387 0.489188 -0.000601
C28   C     C_R   0.049858 0.515844 0.526013 -0.026577
C29   C     C_R   0.024459 0.624248 0.561381 -0.027819
C30   C     C_R   0.051562 0.307405 0.424495 0.311022
C31   C     C_R   0.100821 0.743046 0.560733 -0.233796
C32   C     C_R   0.947498 0.709176 0.653247 0.416789
C33   C     C_R   0.897053 0.708682 0.645896 0.392293
C34   C     C_R   0.592254 0.499127 0.500271 0.867702
C35   C     C_R   0.050564 0.739773 0.560413 0.516817
C36   C     C_R   0.463529 0.063357 0.563819 -0.072360
C37   C     C_R   0.498185 0.129752 0.489233 -0.139190
C38   C     C_R   0.530987 0.063932 0.404365 0.258067
C39   C     C_R   0.531497 0.934713 0.409513 -0.192803
C40   C     C_R   0.501840 0.871250 0.503684 -0.146976
C41   C     C_R   0.468142 0.938466 0.579214 -0.010652
C42   C     C_3   0.451970 0.947585 0.728664 0.639057
C43   C     C_3   0.441481 0.084066 0.704257 0.072194
C44   C     C_R   0.534858 0.563797 0.073331 0.146133
C45   C     C_R   0.176884 0.419344 0.491832 0.656103
C46   C     C_R   0.470678 0.420967 0.070713 0.250436
C47   C     C_R   0.467309 0.430228 0.923175 0.498569
C48   C     C_R   0.536380 0.557335 0.926955 0.039529
C49   C     C_3   0.553298 0.686616 0.912841 -0.578762
C50   C     C_3   0.549066 0.700136 0.071743 0.858065
C51   C     C_R   0.177016 0.636946 0.539176 0.635714
C52   C     C_R   0.280501 0.568086 0.627257 0.493871
C53   C     C_R   0.331073 0.560681 0.620084 -0.396452
C54   C     C_R   0.325771 0.472261 0.386164 0.352364
Cu1   Cu    Cu3+1 0.500000 0.499980 0.640670 0.999975
Cu2   Cu    Cu3+1 0.500000 0.500020 0.359330 1.064026
H1    H     H_    0.119593 0.832276 0.566484 0.213333
H2    H     H_    0.556789 0.884401 0.345896 0.204145
H3    H     H_    0.461626 0.151273 0.772683 0.192832
H4    H     H_    0.590457 0.688557 0.869787 0.191424
H5    H     H_    0.527845 0.740140 0.854283 0.255394
H6    H     H_    0.120985 0.231557 0.392062 0.213539
H7    H     H_    0.644529 0.353676 0.656825 0.206444
H8    H     H_    0.878541 0.190647 0.478258 0.189284
H9    H     H_    0.352496 0.589535 0.708727 0.210293
N1    N     N_R   0.201287 0.529837 0.516080 -0.419563
N2    N     N_R   0.797429 0.490863 0.535807 -0.438361
N3    N     N_R   0.500300 0.500930 0.147930 -0.269362
N4    N     N_R   0.500310 0.500890 0.852020 -0.229631
O1    O     O_R   0.500000 0.319640 0.618810 -0.576855
O2    O     O_2   0.798421 0.286390 0.445316 -0.491859
O3    O     O_2   0.201700 0.745679 0.555376 -0.531002
O4    O     O_2   0.794609 0.689868 0.638859 -0.465729
O5    O     O_R   0.500010 0.319680 0.381230 -0.503582
O6    O     O_R   0.430260 0.500000 0.618780 -0.544335
O7    O     O_R   0.430270 0.500040 0.381190 -0.542997
O8    O     O_R   0.499990 0.680320 0.618770 -0.584024
O9    O     O_R   0.500000 0.680360 0.381190 -0.556038
O10   O     O_R   0.569730 0.499960 0.618810 -0.594848
O11   O     O_R   0.569740 0.500000 0.381220 -0.513062
O12   O     O_2   0.201373 0.314368 0.471639 -0.517178
O13   O     O_3   0.345403 0.406096 0.275908 -0.569037
C55   C     C_3   0.332609 0.279574 0.291232 -0.125436
H10   H     H_    0.293661 0.262700 0.313864 0.197073
H11   H     H_    0.354633 0.239845 0.374034 0.186984
H12   H     H_    0.339865 0.228592 0.192057 0.201034
O14   O     O_3   0.256212 0.595723 0.750602 -0.570833
C56   C     C_3   0.276709 0.700988 0.820314 -0.201486
H13   H     H_    0.286849 0.775793 0.747735 0.227509
H14   H     H_    0.307990 0.675276 0.883449 0.151081
H15   H     H_    0.249476 0.738776 0.893484 0.181599
O15   O     O_3   0.969938 0.799583 0.736875 -0.531630
C57   C     C_3   0.979623 0.749067 0.866750 -0.226343
H16   H     H_    0.005617 0.673041 0.856360 0.145559
H17   H     H_    0.945920 0.715749 0.918487 0.173429
H18   H     H_    0.996279 0.822698 0.935077 0.192846
O16   O     O_3   0.653369 0.675288 0.361861 -0.510859
C58   C     C_3   0.648606 0.774006 0.460351 -0.232023
H19   H     H_    0.683270 0.798826 0.513403 0.191797
H20   H     H_    0.620213 0.752080 0.538518 0.114007
H21   H     H_    0.637683 0.857443 0.406493 0.187387
O17   O     O_3   0.872961 0.808204 0.703170 -0.511887
C59   C     C_3   0.874086 0.903722 0.606493 -0.140659
H22   H     H_    0.855969 0.873435 0.507751 0.171192
H23   H     H_    0.911548 0.937193 0.584846 0.173416
H24   H     H_    0.854212 0.983065 0.651246 0.199473
Br1   Br    Br    0.762363 0.671651 0.308543 -0.400522
O18   O     O_3   0.028036 0.850966 0.547529 -0.547029
C60   C     C_3   0.015177 0.863332 0.407172 -0.244820
H25   H     H_    0.990741 0.786262 0.369417 0.134421
H26   H     H_    0.047745 0.870088 0.339643 0.173458
H27   H     H_    0.995294 0.949881 0.398195 0.254134
Br2   Br    Br    0.579087 0.145544 0.292702 -0.504908
Br3   Br    Br    0.396820 0.837844 0.761102 -0.554733
O19   O     O_3   0.249173 0.466580 0.268337 -0.542657
C61   C     C_3   0.254483 0.564628 0.175907 -0.245869
H28   H     H_    0.292359 0.575640 0.138950 0.171975
H29   H     H_    0.242036 0.652966 0.224271 0.154785
H30   H     H_    0.231722 0.543100 0.083463 0.210871
O20   O     O_3   0.487392 0.933086 0.833499 -0.575971
C62   C     C_3   0.534107 0.982357 0.803483 -0.307165
H31   H     H_    0.534388 0.077713 0.764911 0.154947
H32   H     H_    0.553443 0.920599 0.729602 0.153716
H33   H     H_    0.555051 0.986669 0.901195 0.217135
Br4   Br    Br    0.374194 0.125269 0.682913 -0.449004
Br5   Br    Br    0.440271 0.278753 0.149950 -0.427987
O21   O     O_3   0.432039 0.364047 0.849696 -0.541513
C63   C     C_3   0.386310 0.409554 0.886455 -0.167161
H34   H     H_    0.371417 0.364039 0.979391 0.210430
H35   H     H_    0.386669 0.511925 0.904037 0.107502
H36   H     H_    0.360971 0.385508 0.800801 0.214633
O22   O     O_3   0.594313 0.721652 0.136740 -0.540588
C64   C     C_3   0.614691 0.838289 0.101771 -0.169828
H37   H     H_    0.589407 0.914500 0.120383 0.192973
H38   H     H_    0.627619 0.838507 0.992575 0.138127
H39   H     H_    0.646841 0.858308 0.166994 0.224097
O23   O     O_3   0.514267 0.786204 0.121590 -0.580968
C65   C     C_3   0.465776 0.756646 0.085620 -0.206176
H40   H     H_    0.448811 0.695165 0.163001 0.171247
H41   H     H_    0.461115 0.714705 0.979985 0.154001
H42   H     H_    0.445503 0.843424 0.089136 0.239701
Br6   Br    Br    0.743223 0.311764 0.744309 -0.409925
O24   O     O_3   0.969303 0.169224 0.524265 -0.580109
C66   C     C_3   0.976864 0.156176 0.667788 -0.259901
H43   H     H_    0.942237 0.156767 0.726615 0.164535
H44   H     H_    0.002206 0.229243 0.710319 0.163601
H45   H     H_    0.993336 0.065628 0.683528 0.256832
Br7   Br    Br    0.026155 0.198444 0.278509 -0.503079

loop_
_geom_bond_atom_site_label_1
_geom_bond_atom_site_label_2
_ccdc_geom_bond_type
C10   C27   A    
C21   C26   A    
C57   H16   S    
Cu2   O7    S    
C41   C42   S    
C20   N2    A    
C48   N4    A    
Cu1   Cu2   S    
C42   O20   S    
C63   H34   S    
C43   Br4   S    
O16   C58   S    
C50   O23   S    
C32   O15   S    
C52   C53   A    
C28   C29   A    
C49   H4    S    
C1    O5    A    
C36   C37   A    
O24   C66   S    
C21   Br6   S    
C4    C7    A    
C38   C39   A    
Cu1   O8    S    
C9    C22   A    
C15   C16   A    
Cu2   O9    S    
O18   C60   S    
C18   C19   A    
C49   C50   S    
C47   N4    A    
C62   H33   S    
C35   O18   S    
C59   H22   S    
C34   O11   A    
C22   H7    S    
C14   O24   S    
C42   Br3   S    
C16   C17   A    
C64   H39   S    
C15   H8    S    
C20   O2    S    
C19   N2    A    
C8    C12   S    
C53   H9    S    
C43   H3    S    
Cu1   O6    S    
C57   H17   S    
C21   C22   A    
C27   C30   A    
C36   C41   A    
C66   H45   S    
C4    C28   A    
Cu2   O5    S    
C33   O17   S    
C19   O4    S    
C7    C31   A    
C24   C25   A    
C66   H44   S    
C2    C54   A    
C60   H27   S    
C8    C54   A    
C39   C40   A    
C38   Br2   S    
O22   C64   S    
C25   C26   A    
Cu2   N3    S    
C39   H2    S    
C5    C45   A    
C10   C13   A    
C24   O16   S    
C51   N1    A    
C46   N3    A    
C37   C38   A    
C34   O10   A    
Cu1   O10   S    
C2    O19   S    
C55   H10   S    
C56   H15   S    
C16   C20   A    
C17   C18   A    
C59   H23   S    
C23   O8    A    
C30   Br7   S    
C62   H31   S    
Cu1   N4    S    
C50   O22   S    
C40   C41   A    
C55   H11   S    
C56   H14   S    
C11   C32   A    
O13   C55   S    
C57   H18   S    
C58   H20   S    
C12   O7    A    
C10   C14   A    
C64   H37   S    
C31   C35   A    
C44   N3    A    
C3    N1    S    
C42   C43   S    
C26   N2    S    
O21   C63   S    
C63   H36   S    
C54   O13   S    
O20   C62   S    
C25   Br1   S    
C44   C50   S    
C46   C47   A    
C48   C49   S    
C6    C30   A    
C46   Br5   S    
C52   O14   S    
C45   O12   S    
C66   H43   S    
C65   H42   S    
C63   H35   S    
C8    C53   A    
C3    C52   A    
C9    C24   A    
C47   O21   S    
C65   H41   S    
C1    C37   S    
C58   H21   S    
O23   C65   S    
C29   C35   A    
C1    O1    A    
Cu2   O11   S    
C61   H30   S    
C13   C17   A    
C32   C33   A    
C6    H6    S    
C60   H26   S    
C2    C3    A    
C7    C51   A    
C60   H25   S    
C11   C13   A    
C49   H5    S    
C31   H1    S    
O19   C61   S    
C5    C6    A    
C61   H28   S    
O15   C57   S    
C61   H29   S    
C9    C34   S    
C59   H24   S    
C23   O9    A    
O17   C59   S    
C18   C33   A    
C62   H32   S    
Cu1   O1    S    
C65   H40   S    
C44   C48   A    
C4    C5    A    
C55   H12   S    
C56   H13   S    
C11   C29   A    
O14   C56   S    
C58   H19   S    
C51   O3    S    
C12   O6    A    
C45   N1    A    
C64   H38   S    
C14   C15   A    
C36   C43   S    
C23   C40   S    
C27   C28   A    
