data_mof_unit_1162.cif
_audit_creation_date              2013-03-05T15:40:46-0500
_audit_creation_method            fapswitch 2.2
_symmetry_space_group_name_H-M    P1
_symmetry_Int_Tables_number       1
_space_group_crystal_system       triclinic
_cell_length_a                    6.914084
_cell_length_b                    17.354286
_cell_length_c                    24.091117
_cell_angle_alpha                 104.196106
_cell_angle_beta                  90.410821
_cell_angle_gamma                 90.030787
_cell_volume                      2802.31374168

loop_
_atom_site_label
_atom_site_type_symbol
_atom_site_description
_atom_site_fract_x
_atom_site_fract_y
_atom_site_fract_z
_atom_type_partial_charge
O1    O     O_R   0.494290 0.391990 0.999150 -0.581060
O2    O     O_R   0.827170 0.534410 0.082350 -0.556103
O3    O     O_R   0.994360 0.608010 0.000850 -0.581211
C1    C     C_R   0.658620 0.552399 0.106007 0.882855
O4    O     O_R   0.824210 0.388010 0.004470 -0.523157
O5    O     O_R   0.991370 0.460560 0.922410 -0.524263
C2    C     C_R   0.654625 0.355548 0.002847 0.883908
O6    O     O_R   0.497270 0.539440 0.077590 -0.535570
O7    O     O_3   0.659770 0.523970 0.973170 -0.241137
V1    V     V_3+5 0.935840 0.495550 0.004980 1.252326
O8    O     O_R   0.320910 0.465590 0.917650 -0.524738
C3    C     C_R   0.151274 0.450356 0.893718 0.912327
O9    O     O_R   0.323870 0.611990 0.995530 -0.512938
C4    C     C_R   0.154809 0.644901 0.998369 0.852519
V2    V     V_3+5 0.435470 0.504450 0.995020 1.276023
O10   O     O_3   0.161670 0.476030 0.026830 -0.269048
C5    C     C_2   0.147422 0.729282 0.996686 0.177504
C6    C     C_2   0.976650 0.769472 0.000816 -0.272774
H1    H     H_    0.842519 0.738791 0.004855 0.135323
C7    C     C_R   0.105882 0.244284 0.627321 0.625201
N1    N     N_R   0.098119 0.325035 0.647962 -0.449852
C8    C     C_R   0.070368 0.373859 0.611846 0.690508
C9    C     C_R   0.073582 0.342962 0.551734 -0.090517
C10   C     C_R   0.066935 0.259129 0.529992 -0.109889
C11   C     C_R   0.079214 0.209023 0.568095 -0.131396
C12   C     C_R   0.078546 0.392551 0.512689 0.366934
C13   C     C_R   0.056620 0.358476 0.454008 -0.068814
C14   C     C_R   0.039504 0.276122 0.432422 -0.062191
C15   C     C_R   0.047294 0.225611 0.470152 -0.075232
C16   C     C_R   0.035754 0.142071 0.447957 -0.093900
C17   C     C_R   0.047936 0.092209 0.486757 0.279934
C18   C     C_R   0.067293 0.125582 0.546006 0.305197
C19   C     C_R   0.020112 0.243296 0.373256 0.674845
N2    N     N_R   0.003967 0.162945 0.352131 -0.438716
C20   C     C_R   0.011195 0.112307 0.387734 0.690427
O11   O     O_2   0.140449 0.198674 0.664273 -0.437744
O12   O     O_2   0.033502 0.451457 0.634361 -0.388867
H2    H     H_    0.059597 0.396974 0.424780 0.174383
O13   O     O_2   0.018162 0.291409 0.336913 -0.496777
O14   O     O_2   0.992390 0.033805 0.364434 -0.413637
C21   C     C_R   0.142683 0.088701 0.261301 0.009565
H3    H     H_    0.269260 0.078043 0.285088 0.175867
C22   C     C_R   0.138095 0.059977 0.201757 0.237821
C23   C     C_R   0.975665 0.075126 0.169902 -0.181268
C24   C     C_R   0.817979 0.116580 0.199827 -0.151189
H4    H     H_    0.691512 0.127579 0.176144 0.164065
C25   C     C_R   0.819742 0.143558 0.259959 0.401347
C26   C     C_R   0.986695 0.130864 0.290893 0.141344
C27   C     C_R   0.270395 0.407419 0.733368 0.321296
C28   C     C_R   0.280442 0.440077 0.793207 0.209923
C29   C     C_R   0.138646 0.419736 0.829920 -0.211148
C30   C     C_R   0.984409 0.368706 0.804470 0.234984
C31   C     C_R   0.971380 0.340785 0.745070 0.003021
H5    H     H_    0.851667 0.302591 0.726454 0.161549
C32   C     C_R   0.113049 0.358789 0.709143 0.128843
C33   C     C_R   0.556048 0.878612 0.614003 0.705085
N3    N     N_R   0.546049 0.827113 0.648892 -0.442247
C34   C     C_R   0.566982 0.746822 0.626877 0.654105
C35   C     C_R   0.606656 0.715479 0.567908 -0.101951
C36   C     C_R   0.598996 0.767629 0.531016 -0.071678
C37   C     C_R   0.575293 0.849711 0.554293 -0.065905
C38   C     C_R   0.647642 0.633788 0.544218 0.379767
C39   C     C_R   0.653085 0.604574 0.484497 -0.018578
C40   C     C_R   0.637886 0.655586 0.447613 -0.068225
C41   C     C_R   0.616155 0.737843 0.470846 -0.070674
C42   C     C_R   0.610241 0.790026 0.433933 -0.097794
C43   C     C_R   0.575861 0.872329 0.457814 0.366397
C44   C     C_R   0.566116 0.901103 0.517531 -0.010431
C45   C     C_R   0.646767 0.625972 0.387741 0.632051
N4    N     N_R   0.646624 0.676894 0.352361 -0.436349
C46   C     C_R   0.641902 0.757634 0.374619 0.697556
O15   O     O_2   0.546230 0.957620 0.636979 -0.430224
O16   O     O_2   0.541003 0.697472 0.661578 -0.435617
H6    H     H_    0.679299 0.541815 0.466938 0.171635
O17   O     O_2   0.654403 0.546809 0.365113 -0.515745
O18   O     O_2   0.673134 0.805956 0.339486 -0.414787
H7    H     H_    0.541770 0.963978 0.535044 0.189220
C47   C     C_R   0.486640 0.659927 0.257202 0.351017
C48   C     C_R   0.489291 0.631300 0.196808 0.181908
C49   C     C_R   0.649426 0.585962 0.169554 -0.167087
C50   C     C_R   0.804991 0.572521 0.203968 -0.121606
H8    H     H_    0.929295 0.538473 0.184830 0.144714
C51   C     C_R   0.802671 0.601719 0.263454 0.008636
H9    H     H_    0.924874 0.590307 0.288580 0.162958
C52   C     C_R   0.644829 0.645384 0.290681 0.155195
C53   C     C_R   0.660596 0.849042 0.748439 0.003488
H10   H     H_    0.793760 0.818928 0.732676 0.156268
C54   C     C_R   0.637322 0.878857 0.807220 -0.092786
H11   H     H_    0.753317 0.869432 0.835265 0.142111
C55   C     C_R   0.468811 0.919937 0.829839 -0.165000
C56   C     C_R   0.320010 0.929869 0.791020 0.170250
C57   C     C_R   0.341918 0.897354 0.731181 0.365742
C58   C     C_R   0.514909 0.857669 0.709869 0.154075
C59   C     C_2   0.645906 0.272683 0.008007 0.091933
C60   C     C_2   0.478338 0.229845 0.997765 -0.220089
H12   H     H_    0.347983 0.257571 0.986394 0.113040
O19   O     O_R   0.618210 0.960470 0.922400 -0.563502
O20   O     O_R   0.291310 0.111960 0.995450 -0.537760
O21   O     O_R   0.124210 0.039530 0.077580 -0.534998
C61   C     C_R   0.461877 0.145335 0.999281 0.895641
O22   O     O_R   0.288310 0.965490 0.917650 -0.529643
O23   O     O_R   0.121180 0.892010 0.999220 -0.522573
C62   C     C_R   0.456719 0.951019 0.893615 0.915738
O24   O     O_R   0.621230 0.107990 0.000760 -0.531849
O25   O     O_3   0.455770 0.976060 0.026840 -0.228736
V3    V     V_3+5 0.179680 0.004440 0.995020 1.296575
O26   O     O_R   0.791670 0.888040 0.004570 -0.525039
C63   C     C_R   0.961687 0.854735 0.001017 0.891482
O27   O     O_R   0.794680 0.034510 0.082370 -0.551113
C64   C     C_R   0.964651 0.047733 0.106234 0.908742
V4    V     V_3+5 0.680070 0.995560 0.005010 1.291873
O28   O     O_3   0.953840 0.023940 0.973160 -0.247670
N5    N     N_R   0.328024 0.766996 0.990362 0.104069
O29   O     O_R   0.456499 0.777910 0.031265 -0.316951
O30   O     O_R   0.376998 0.776640 0.940452 -0.358108
N6    N     N_R   0.651331 0.182582 0.288728 0.107739
O31   O     O_R   0.611115 0.178505 0.340619 -0.349460
O32   O     O_R   0.527168 0.216138 0.261294 -0.331798
Br1   Br    Br    0.476806 0.425495 0.684510 -0.349295
Br2   Br    Br    0.483884 0.515985 0.822500 -0.389870
Br3   Br    Br    0.790034 0.329192 0.847292 -0.471419
N7    N     N_R   0.703379 0.581464 0.579542 0.164423
O33   O     O_R   0.832944 0.604916 0.619608 -0.210158
O34   O     O_R   0.664248 0.505900 0.563041 -0.275858
N8    N     N_R   0.533089 0.926456 0.422667 0.146647
O35   O     O_R   0.404034 0.907137 0.382014 -0.202094
O36   O     O_R   0.586221 0.000546 0.439368 -0.308835
N9    N     N_R   0.322020 0.702949 0.284897 0.108972
O37   O     O_R   0.241278 0.682425 0.327757 -0.372630
O38   O     O_R   0.266945 0.768108 0.271950 -0.202537
Br4   Br    Br    0.271460 0.656544 0.153675 -0.452991
Br5   Br    Br    0.086773 0.987908 0.817824 -0.442678
N10   N     N_R   0.187572 0.902848 0.692075 0.109035
O39   O     O_R   0.113854 0.971533 0.691352 -0.187389
O40   O     O_R   0.131035 0.839972 0.653838 -0.355821
Br6   Br    Br    0.884635 0.233872 0.033904 -0.524618
N11   N     N_R   0.122772 0.476141 0.530617 0.136343
O41   O     O_R   0.264522 0.500631 0.566359 -0.230090
O42   O     O_R   0.055279 0.524440 0.501585 -0.356735
Br7   Br    Br    0.041001 0.977153 0.463063 -0.337020
N12   N     N_R   0.066533 0.073438 0.583739 0.150624
O43   O     O_R   0.906069 0.059731 0.607555 -0.241296
O44   O     O_R   0.222785 0.035307 0.590982 -0.247687
Br8   Br    Br    0.354412 0.996407 0.168080 -0.436764

loop_
_geom_bond_atom_site_label_1
_geom_bond_atom_site_label_2
_geom_bond_distance
_ccdc_geom_bond_type
C60   H12   1.086489 S    
C21   H3    1.083281 S    
V4    O28   2.149293 S    
C1    O6    1.295006 A    
C12   N11   1.440388 S    
C47   N9    1.437204 S    
N9    O37   1.301184 A    
C50   H8    1.083035 S    
C55   C56   1.424162 A    
C5    N5    1.435816 S    
V3    O28   1.704775 S    
C24   H4    1.083035 S    
N6    O31   1.301326 A    
N11   O42   1.301082 A    
C12   C13   1.399274 A    
C15   C16   1.418872 A    
C16   C20   1.424574 A    
C51   H9    1.082199 S    
C28   Br2   1.933844 S    
N1    C8    1.367876 A    
C14   C15   1.409846 A    
C1    C49   1.500377 S    
O27   V4    1.979528 S    
O5    C3    1.297157 A    
C16   C17   1.423100 A    
O19   V4    1.976768 S    
C53   C54   1.393905 A    
C7    C11   1.418486 A    
C13   H2    1.083295 S    
V2    O10   2.149292 S    
C61   O24   1.283257 A    
C33   N3    1.370837 A    
N2    C20   1.370953 A    
C9    C12   1.422694 A    
O21   V3    1.972565 S    
C10   C15   1.421565 A    
O8    V2    1.979425 S    
C57   N10   1.437094 S    
C33   O15   1.348836 S    
C59   Br6   1.939050 S    
O26   C63   1.304279 A    
C17   Br7   1.937900 S    
O23   C63   1.284538 A    
N4    C46   1.372478 A    
O1    V2    2.019852 S    
O7    V1    2.153919 S    
C11   C18   1.417088 A    
C24   C25   1.408907 A    
C42   C43   1.423669 A    
O25   V4    1.701351 S    
C35   C36   1.416232 A    
O22   C62   1.301085 A    
O1    C2    1.289880 A    
O9    C4    1.296116 A    
C21   C22   1.398513 A    
C4    C5    1.475757 S    
C22   Br8   1.921558 S    
C59   C60   1.364141 D    
C8    C9    1.415928 A    
C50   C51   1.398180 A    
C5    C6    1.363448 D    
C31   C32   1.396665 A    
C25   N6    1.441200 S    
C29   C30   1.421513 A    
C25   C26   1.415926 A    
O22   V3    1.974310 S    
C19   N2    1.366327 A    
C10   C11   1.412938 A    
C56   C57   1.422588 A    
N1    C32   1.449316 S    
C47   C48   1.417708 A    
C6    H1    1.085910 S    
C56   Br5   1.931240 S    
C34   C35   1.419875 A    
C27   C32   1.408792 A    
C8    O12   1.347872 S    
C43   C44   1.404513 A    
C36   C37   1.407204 A    
N12   O44   1.300070 A    
O2    C1    1.304989 A    
C22   C23   1.416397 A    
O5    V1    1.972768 S    
C38   C39   1.404089 A    
C53   C58   1.398366 A    
N10   O39   1.300616 A    
C30   Br3   1.925221 S    
C42   C46   1.420010 A    
C9    C10   1.420879 A    
C48   Br4   1.934316 S    
C28   C29   1.425915 A    
C19   O13   1.349946 S    
C40   C45   1.409281 A    
C7    N1    1.368463 A    
N8    O36   1.301424 A    
C18   N12   1.431357 S    
O19   C62   1.299004 A    
O3    C4    1.289603 A    
C47   C52   1.413487 A    
C51   C52   1.401005 A    
C54   C55   1.407871 A    
C36   C41   1.420402 A    
C41   C42   1.416734 A    
O6    V2    1.975682 S    
O20   C61   1.306243 A    
O9    V2    2.017167 S    
N8    O35   1.301496 A    
C48   C49   1.426178 A    
N2    C26   1.447501 S    
N7    O34   1.301253 A    
O2    V1    1.974245 S    
C46   O18   1.347885 S    
C38   N7    1.439438 S    
C3    C29   1.499885 S    
C30   C31   1.395974 A    
C53   H10   1.083144 S    
O4    C2    1.296741 A    
N5    O29   1.300645 A    
O25   V3    2.153918 S    
C44   H7    1.082760 S    
C2    C59   1.474714 S    
C35   C38   1.421879 A    
C60   C61   1.480322 S    
O26   V4    2.017217 S    
C17   C18   1.407997 A    
C23   C24   1.408424 A    
C49   C50   1.407484 A    
N9    O38   1.301053 A    
C14   C19   1.404688 A    
O24   V4    2.020195 S    
O8    C3    1.301209 A    
C31   H5    1.083441 S    
C39   H6    1.083207 S    
N11   O41   1.300222 A    
O20   V3    2.016524 S    
C40   C41   1.408253 A    
C43   N8    1.439987 S    
C20   O14   1.345983 S    
O7    V2    1.701622 S    
O4    V1    2.016414 S    
O3    V1    2.019302 S    
V1    O10   1.704722 S    
N12   O43   1.300945 A    
O21   C64   1.294893 A    
C37   C44   1.403742 A    
N3    C34   1.372103 A    
C27   Br1   1.930111 S    
C57   C58   1.415901 A    
C21   C26   1.401013 A    
N6    O32   1.301570 A    
C45   O17   1.349247 S    
C45   N4    1.369976 A    
C6    C63   1.482172 S    
C55   C62   1.501323 S    
C39   C40   1.403181 A    
C7    O11   1.348655 S    
C54   H11   1.083049 S    
C27   C28   1.414920 A    
O23   V3    2.019248 S    
C13   C14   1.400502 A    
N10   O40   1.301297 A    
C33   C37   1.409763 A    
N3    C58   1.451911 S    
N7    O33   1.301673 A    
O27   C64   1.299838 A    
N4    C52   1.452043 S    
C34   O16   1.348238 S    
N5    O30   1.301111 A    
C23   C64   1.491673 S    
