data_mof_unit_3112.cif
_audit_creation_date              2012-12-10T17:56:19-0500
_audit_creation_method            fapswitch 2.2
_symmetry_space_group_name_H-M    P1
_symmetry_Int_Tables_number       1
_space_group_crystal_system       triclinic
_cell_length_a                    13.011269
_cell_length_b                    10.818892
_cell_length_c                    9.552921
_cell_angle_alpha                 88.968985
_cell_angle_beta                  97.034154
_cell_angle_gamma                 90.759989
_cell_volume                      1334.32055335

loop_
_atom_site_label
_atom_site_type_symbol
_atom_type_description
_atom_site_fract_x
_atom_site_fract_y
_atom_site_fract_z
_atom_type_partial_charge
C1    C     C_R   0.496384 0.262361 0.500628 0.774721
C2    C     C_R   0.503787 0.737606 0.499294 0.807490
C3    C     C_R   0.504657 0.871569 0.497306 -0.067920
C4    C     C_R   0.495665 0.128401 0.502084 -0.068793
C5    C     C_R   0.422708 0.442249 0.062332 -0.013352
C6    C     C_R   0.577530 0.557650 0.937424 -0.023349
C7    C     C_R   0.422325 0.443102 0.913863 -0.026766
C8    C     C_R   0.577324 0.557912 0.085885 -0.017203
C9    C     C_R   0.300410 0.493795 0.472933 0.796353
C10   C     C_R   0.699606 0.492010 0.528070 0.800816
C11   C     C_R   0.813524 0.484741 0.546884 -0.133096
C12   C     C_R   0.186861 0.487133 0.456632 -0.080755
C13   C     C_R   0.021231 0.474026 0.312506 0.002218
C14   C     C_R   0.980011 0.510644 0.689133 0.008906
C15   C     C_R   0.127194 0.444852 0.332655 0.034917
C16   C     C_R   0.874265 0.476405 0.680487 0.086788
C17   C     C_R   0.136761 0.522359 0.570949 -0.293192
C18   C     C_R   0.862944 0.487854 0.425177 -0.271537
C19   C     C_R   0.029375 0.510464 0.565429 0.025048
C20   C     C_R   0.970594 0.493215 0.432841 0.100427
C21   C     C_R   0.556606 0.070773 0.411957 -0.236428
C22   C     C_R   0.443674 0.929177 0.586959 -0.235183
C23   C     C_R   0.563989 0.942597 0.410076 0.105408
C24   C     C_R   0.438694 0.057210 0.591853 0.089051
Cu1   Cu    Cu3+1 0.500000 0.500020 0.640660 0.928764
Cu2   Cu    Cu3+1 0.500000 0.499980 0.359340 0.939018
H1    H     H_    0.816362 0.477483 0.324521 0.204782
H2    H     H_    0.182686 0.550856 0.667238 0.161677
H3    H     H_    0.602335 0.126823 0.346783 0.150066
H4    H     H_    0.398815 0.873612 0.653812 0.160459
H5    H     H_    0.361068 0.395100 0.108065 0.113189
H6    H     H_    0.639696 0.604085 0.891239 0.137972
H7    H     H_    0.359727 0.397987 0.848600 0.122470
H8    H     H_    0.639335 0.604598 0.150582 0.131885
N1    N     N_R   0.500030 0.500030 0.852080 -0.165214
N2    N     N_R   0.499970 0.499970 0.147920 -0.161270
O1    O     O_R   0.499990 0.319660 0.618740 -0.587964
O2    O     O_R   0.500010 0.680340 0.381260 -0.576237
O3    O     O_R   0.499990 0.319630 0.381170 -0.587319
O4    O     O_R   0.500010 0.680370 0.618830 -0.578123
O5    O     O_R   0.349000 0.499990 0.599490 -0.594206
O6    O     O_R   0.651000 0.500010 0.400510 -0.586628
O7    O     O_R   0.348990 0.499960 0.361920 -0.583686
O8    O     O_R   0.651010 0.500040 0.638080 -0.598462
C25   C     C_3   0.834992 0.409804 0.806392 -0.388974
C26   C     C_3   0.893739 0.288530 0.843118 -0.388509
C27   C     C_3   0.847109 0.214401 0.958067 -0.851957
H9    H     H_    0.845782 0.270741 0.053766 0.247232
H10   H     H_    0.766769 0.184438 0.919541 0.254293
H11   H     H_    0.894330 0.130920 0.986849 0.252386
H12   H     H_    0.889699 0.230871 0.747335 0.227066
H13   H     H_    0.976649 0.307204 0.879450 0.206659
H14   H     H_    0.841671 0.471830 0.897775 0.254036
H15   H     H_    0.753137 0.381230 0.786181 0.228984
C28   C     C_3   0.169087 0.352036 0.236417 -0.435275
C29   C     C_3   0.110618 0.227650 0.242528 -0.377073
C30   C     C_3   0.151235 0.132193 0.148472 -0.845099
H16   H     H_    0.142007 0.165834 0.037174 0.252096
H17   H     H_    0.234041 0.113546 0.184488 0.262488
H18   H     H_    0.106604 0.044470 0.154545 0.255922
H19   H     H_    0.119962 0.191399 0.353007 0.224927
H20   H     H_    0.026589 0.238953 0.208699 0.214062
H21   H     H_    0.163409 0.389271 0.126671 0.184117
H22   H     H_    0.251286 0.330944 0.270561 0.218767
C31   C     C_2   0.966495 0.483114 0.167369 0.340106
H23   H     H_    0.989797 0.427321 0.084537 0.096102
O9    O     O_2   0.899273 0.559941 0.136711 -0.560526
C32   C     C_2   0.038737 0.540386 0.827365 0.318468
H24   H     H_    0.110691 0.493891 0.863896 0.029168
O10   O     O_2   0.008037 0.620825 0.899342 -0.506316
C33   C     C_3   0.641480 0.887445 0.323049 -0.416962
C34   C     C_3   0.736935 0.840235 0.418347 -0.375675
C35   C     C_3   0.820433 0.797828 0.331622 -0.745841
H25   H     H_    0.789791 0.722431 0.260642 0.278540
H26   H     H_    0.846819 0.876015 0.267490 0.245898
H27   H     H_    0.887889 0.763012 0.403251 0.253927
H28   H     H_    0.769680 0.915453 0.488786 0.224654
H29   H     H_    0.714972 0.761675 0.485303 0.218108
H30   H     H_    0.605364 0.813177 0.254720 0.215086
H31   H     H_    0.667657 0.958693 0.249333 0.191638
C36   C     C_3   0.371638 0.110965 0.693921 -0.399065
C37   C     C_3   0.430063 0.110769 0.843891 -0.307209
C38   C     C_3   0.356305 0.123853 0.954736 -0.892382
H32   H     H_    0.306075 0.205427 0.931017 0.242352
H33   H     H_    0.306637 0.039729 0.957170 0.266947
H34   H     H_    0.401454 0.134946 0.060301 0.250914
H35   H     H_    0.472835 0.022879 0.866374 0.219792
H36   H     H_    0.487576 0.187872 0.853686 0.234559
H37   H     H_    0.345030 0.205471 0.661996 0.190633
H38   H     H_    0.299660 0.053935 0.691988 0.195188

loop_
_geom_bond_atom_site_label_1
_geom_bond_atom_site_label_2
_ccdc_geom_bond_type
C6    H6    S    
C28   C29   S    
C11   C18   A    
C10   O6    A    
C7    H7    S    
C35   H25   S    
C3    C23   A    
C19   C20   A    
C33   H30   S    
C36   C37   S    
C27   H10   S    
C13   C31   S    
C25   C26   S    
C29   C30   S    
C22   C24   A    
Cu1   O4    S    
C4    C24   A    
Cu2   O3    S    
C30   H17   S    
C37   H35   S    
C5    N2    A    
C26   H13   S    
C6    N1    A    
C8    N2    A    
C34   H29   S    
Cu1   O1    S    
C38   H32   S    
C32   H24   S    
C31   O9    D    
C28   H21   S    
C12   C17   A    
C1    O1    A    
C29   H20   S    
C36   H37   S    
C25   H14   S    
C35   H26   S    
Cu1   O8    S    
C33   H31   S    
Cu2   O7    S    
C27   H11   S    
C9    O7    A    
C10   O8    A    
C23   C33   S    
Cu1   O5    S    
C5    C7    A    
Cu2   O2    S    
C30   H18   S    
C6    C8    A    
Cu1   Cu2   S    
C21   H3    S    
C26   H12   S    
C15   C28   S    
C24   C36   S    
C34   H28   S    
C11   C16   A    
C2    O2    A    
C27   H9    S    
C12   C15   A    
C28   H22   S    
C8    H8    S    
Cu1   N1    S    
C36   H38   S    
Cu2   N2    S    
C38   H33   S    
C25   H15   S    
C31   H23   S    
C13   C15   A    
C35   H27   S    
C14   C16   A    
Cu2   O6    S    
C26   C27   S    
C22   H4    S    
C13   C20   A    
C17   H2    S    
C7    N1    A    
C14   C19   A    
C18   H1    S    
C34   C35   S    
C16   C25   S    
C9    O5    A    
C1    C4    S    
C21   C23   A    
C2    C3    S    
C33   C34   S    
C4    C21   A    
C30   H16   S    
C37   H36   S    
C17   C19   A    
C18   C20   A    
C9    C12   S    
C10   C11   S    
C1    O3    A    
C2    O4    A    
C38   H34   S    
C32   O10   D    
C37   C38   S    
C14   C32   S    
C29   H19   S    
C3    C22   A    
C5    H5    S    
