data_mof_unit_4196.cif
_audit_creation_date              2012-12-11T14:42:06-0500
_audit_creation_method            fapswitch 2.2
_symmetry_space_group_name_H-M    P1
_symmetry_Int_Tables_number       1
_space_group_crystal_system       triclinic
_cell_length_a                    18.912761
_cell_length_b                    10.950778
_cell_length_c                    18.813693
_cell_angle_alpha                 89.833053
_cell_angle_beta                  90.627378
_cell_angle_gamma                 90.256025
_cell_volume                      3896.20507554

loop_
_atom_site_label
_atom_site_type_symbol
_atom_type_description
_atom_site_fract_x
_atom_site_fract_y
_atom_site_fract_z
_atom_type_partial_charge
C1    C     C_R   0.727927 0.953759 0.853059 0.536253
C2    C     C_R   0.272179 0.954088 0.146795 0.520567
C3    C     C_R   0.227927 0.453758 0.853059 0.536223
C4    C     C_R   0.772180 0.454088 0.146795 0.520623
C5    C     C_R   0.689683 0.444023 0.042128 -0.105103
C6    C     C_R   0.305128 0.458478 0.960528 -0.095539
C7    C     C_R   0.189698 0.944066 0.042118 -0.105163
C8    C     C_R   0.805091 0.958572 0.960547 -0.095341
C9    C     C_R   0.749219 0.400319 0.079220 0.028246
C10   C     C_R   0.251333 0.401477 0.920774 0.027503
C11   C     C_R   0.249213 0.900318 0.079220 0.028209
C12   C     C_R   0.751333 0.901496 0.920777 0.027575
C13   C     C_R   0.794271 0.316889 0.046292 -0.130687
C14   C     C_R   0.211680 0.306928 0.951358 -0.123409
C15   C     C_R   0.294241 0.816836 0.046305 -0.130694
C16   C     C_R   0.711710 0.806892 0.951347 -0.123346
C17   C     C_R   0.784788 0.288433 0.975481 -0.140015
C18   C     C_R   0.221189 0.277889 0.022444 -0.134538
C19   C     C_R   0.284754 0.788367 0.975494 -0.140007
C20   C     C_R   0.721217 0.777852 0.022434 -0.134469
C21   C     C_R   0.729179 0.340005 0.936214 0.031203
C22   C     C_R   0.270169 0.342831 0.064104 0.032480
C23   C     C_R   0.229172 0.839995 0.936215 0.031112
C24   C     C_R   0.770160 0.842861 0.064108 0.032718
C25   C     C_R   0.545881 0.263466 0.525865 -0.095556
C26   C     C_R   0.537949 0.257650 0.453561 -0.123627
C27   C     C_R   0.045706 0.763703 0.525881 -0.095722
C28   C     C_R   0.037831 0.757872 0.453574 -0.123946
C29   C     C_R   0.499768 0.161168 0.424409 0.043678
C30   C     C_R   0.516467 0.171933 0.569141 0.059548
C31   C     C_R   0.999847 0.661184 0.424380 0.043207
C32   C     C_R   0.016471 0.671944 0.569127 0.059071
C33   C     C_R   0.474553 0.064799 0.467059 -0.049491
C34   C     C_R   0.482541 0.070814 0.539870 -0.059286
C35   C     C_R   0.974825 0.564608 0.466994 -0.049467
C36   C     C_R   0.982768 0.570624 0.539811 -0.059399
C37   C     C_R   0.784103 0.301593 0.526283 0.376518
C38   C     C_R   0.184540 0.414455 0.453201 0.424403
C39   C     C_R   0.284284 0.801780 0.526314 0.376518
C40   C     C_R   0.684571 0.914678 0.453185 0.424700
C41   C     C_R   0.785625 0.316700 0.453697 0.341807
C42   C     C_R   0.176898 0.424716 0.525636 0.350068
C43   C     C_R   0.285779 0.816801 0.453724 0.341717
C44   C     C_R   0.676911 0.925009 0.525617 0.350223
C45   C     C_R   0.529999 0.177524 0.850649 0.544562
C46   C     C_R   0.435250 0.182844 0.143292 0.550724
C47   C     C_R   0.030009 0.677530 0.850654 0.544622
C48   C     C_R   0.935245 0.682837 0.143295 0.550783
C49   C     C_R   0.750148 0.414983 0.422363 -0.040678
C50   C     C_R   0.236907 0.435424 0.570606 -0.024326
C51   C     C_R   0.250134 0.914866 0.422337 -0.040754
C52   C     C_R   0.736912 0.935418 0.570615 -0.023770
C53   C     C_R   0.706452 0.490268 0.463950 0.288045
C54   C     C_R   0.304594 0.438378 0.541537 0.363706
C55   C     C_R   0.206269 0.989935 0.463878 0.288025
C56   C     C_R   0.804613 0.938038 0.541585 0.363893
C57   C     C_R   0.703719 0.473019 0.536898 -0.196362
C58   C     C_R   0.312152 0.425861 0.468594 -0.113494
C59   C     C_R   0.203553 0.972752 0.536834 -0.196436
C60   C     C_R   0.812185 0.925493 0.468645 -0.113307
C61   C     C_R   0.744283 0.381510 0.568656 -0.109121
C62   C     C_R   0.252123 0.410425 0.424533 -0.069803
C63   C     C_R   0.244293 0.881512 0.568647 -0.109237
C64   C     C_R   0.752157 0.910352 0.424553 -0.069215
C65   C     C_R   0.724348 0.313515 0.860108 0.558388
C66   C     C_R   0.275368 0.314402 0.139819 0.525387
C67   C     C_R   0.224346 0.813511 0.860107 0.558330
C68   C     C_R   0.775365 0.814411 0.139819 0.525443
C69   C     C_R   0.725789 0.959423 0.645503 0.607524
C70   C     C_R   0.271460 0.954695 0.352100 0.591699
C71   C     C_R   0.225784 0.459435 0.645497 0.607301
C72   C     C_R   0.771469 0.454726 0.352112 0.591915
C73   C     C_R   0.532224 0.176951 0.643306 0.555863
C74   C     C_R   0.470920 0.175209 0.354544 0.556549
C75   C     C_R   0.032233 0.676953 0.643297 0.555933
C76   C     C_R   0.970936 0.675210 0.354535 0.556525
C77   C     C_R   0.737701 0.355124 0.643782 0.571049
C78   C     C_R   0.260948 0.363085 0.353448 0.606932
C79   C     C_R   0.237701 0.855121 0.643777 0.570974
C80   C     C_R   0.760955 0.863065 0.353455 0.607207
C81   C     C_2   0.508959 0.171697 0.924530 0.434464
C82   C     C_2   0.442374 0.181913 0.066099 0.405486
C83   C     C_2   0.008947 0.671746 0.924530 0.434339
C84   C     C_2   0.942343 0.681861 0.066099 0.405488
C85   C     C_2   0.450591 0.079341 0.027847 -0.087962
C86   C     C_2   0.466777 0.084085 0.951017 -0.092416
C87   C     C_2   0.950712 0.579269 0.027890 -0.087972
C88   C     C_2   0.966900 0.583969 0.951061 -0.092505
C89   C     C_R   0.679694 0.414088 0.970598 -0.066886
C90   C     C_R   0.313403 0.431536 0.032435 -0.049206
C91   C     C_R   0.179710 0.914131 0.970588 -0.067008
C92   C     C_R   0.813355 0.931647 0.032457 -0.048922
Cr1   Cr    Cr6+3 0.769270 0.163730 0.750710 1.106380
Cr2   Cr    Cr6+3 0.230730 0.163730 0.249290 1.107814
Cr3   Cr    Cr6+3 0.269270 0.663730 0.750710 1.106378
Cr4   Cr    Cr6+3 0.730730 0.663730 0.249290 1.107805
Cr5   Cr    Cr6+3 0.612620 0.009790 0.748780 1.073102
Cr6   Cr    Cr6+3 0.387380 0.009790 0.251220 1.079397
Cr7   Cr    Cr6+3 0.112620 0.509790 0.748780 1.072968
Cr8   Cr    Cr6+3 0.887380 0.509790 0.251220 1.079266
Cr9   Cr    Cr6+3 0.614160 0.322500 0.747710 1.064817
Cr10  Cr    Cr6+3 0.385840 0.322500 0.252290 1.077596
Cr11  Cr    Cr6+3 0.114160 0.822500 0.747710 1.064803
Cr12  Cr    Cr6+3 0.885840 0.822500 0.252290 1.077718
H1    H     H_    0.446659 0.990284 0.053057 0.089165
H2    H     H_    0.446718 0.011867 0.916762 0.070403
H3    H     H_    0.946929 0.490216 0.053141 0.089236
H4    H     H_    0.946982 0.511565 0.916849 0.070481
H5    H     H_    0.670833 0.532027 0.568604 0.192524
H6    H     H_    0.365059 0.421216 0.447281 0.199535
H7    H     H_    0.170524 0.031591 0.568500 0.192602
H8    H     H_    0.865091 0.920602 0.447358 0.199223
H9    H     H_    0.635034 0.452223 0.941833 0.173722
H10   H     H_    0.352722 0.481208 0.063205 0.170202
H11   H     H_    0.135069 0.952311 0.941815 0.173737
H12   H     H_    0.852648 0.981370 0.063237 0.170070
H13   H     H_    0.652981 0.505443 0.067255 0.137620
H14   H     H_    0.338240 0.527980 0.937033 0.128217
H15   H     H_    0.153012 0.005524 0.067235 0.137599
H16   H     H_    0.838185 0.028112 0.937061 0.128173
H17   H     H_    0.839954 0.279387 0.073722 0.143558
H18   H     H_    0.170639 0.259778 0.921477 0.139691
H19   H     H_    0.339905 0.779296 0.073747 0.143580
H20   H     H_    0.670698 0.759688 0.921451 0.139662
H21   H     H_    0.823244 0.230309 0.950642 0.125865
H22   H     H_    0.188202 0.207856 0.045635 0.123981
H23   H     H_    0.323184 0.730186 0.950665 0.125875
H24   H     H_    0.688262 0.707756 0.045615 0.123923
H25   H     H_    0.575123 0.339927 0.547892 0.161034
H26   H     H_    0.557801 0.331722 0.420917 0.166413
H27   H     H_    0.074772 0.840353 0.547928 0.161375
H28   H     H_    0.057543 0.832106 0.420963 0.166909
H29   H     H_    0.444332 0.989470 0.444864 0.177842
H30   H     H_    0.461913 0.998232 0.573099 0.164436
H31   H     H_    0.944774 0.489095 0.444770 0.178178
H32   H     H_    0.962286 0.497869 0.573011 0.164876
O1    O     O_R   0.784320 0.290430 0.830510 -0.525231
O2    O     O_R   0.215680 0.290430 0.169490 -0.499346
O3    O     O_R   0.284320 0.790430 0.830510 -0.525188
O4    O     O_R   0.715680 0.790430 0.169490 -0.499359
O5    O     O_R   0.554640 0.080370 0.673500 -0.467581
O6    O     O_R   0.445360 0.080370 0.326500 -0.484726
O7    O     O_R   0.054640 0.580370 0.673500 -0.467823
O8    O     O_R   0.945360 0.580370 0.326500 -0.484873
O9    O     O_R   0.543920 0.282180 0.666790 -0.503772
O10   O     O_R   0.456080 0.282180 0.333210 -0.512498
O11   O     O_R   0.043920 0.782180 0.666790 -0.503715
O12   O     O_R   0.956080 0.782180 0.333210 -0.512478
O13   O     O_R   0.679040 0.374160 0.674430 -0.514595
O14   O     O_R   0.320960 0.374160 0.325570 -0.505670
O15   O     O_R   0.179040 0.874160 0.674430 -0.514633
O16   O     O_R   0.820960 0.874160 0.325570 -0.505617
O17   O     O_3   0.665350 0.165340 0.749070 -0.303528
O18   O     O_3   0.334650 0.165340 0.250930 -0.336786
O19   O     O_3   0.165350 0.665340 0.749070 -0.303568
O20   O     O_3   0.834650 0.665340 0.250930 -0.336751
O21   O     O_R   0.762640 0.040960 0.825200 -0.525025
O22   O     O_R   0.237360 0.040960 0.174800 -0.530962
O23   O     O_R   0.262640 0.540960 0.825200 -0.525021
O24   O     O_R   0.737360 0.540960 0.174800 -0.530985
O25   O     O_R   0.667400 0.923970 0.829950 -0.519700
O26   O     O_R   0.332600 0.923970 0.170050 -0.529373
O27   O     O_R   0.167400 0.423970 0.829950 -0.519714
O28   O     O_R   0.832600 0.423970 0.170050 -0.529355
O29   O     O_R   0.553960 0.081340 0.821780 -0.535677
O30   O     O_R   0.446040 0.081340 0.178220 -0.523513
O31   O     O_R   0.053960 0.581340 0.821780 -0.535743
O32   O     O_R   0.946040 0.581340 0.178220 -0.523636
O33   O     O_R   0.543180 0.283240 0.826740 -0.479050
O34   O     O_R   0.456820 0.283240 0.173260 -0.453230
O35   O     O_R   0.043180 0.783240 0.826740 -0.478893
O36   O     O_R   0.956820 0.783240 0.173260 -0.453302
O37   O     O_R   0.678360 0.375140 0.822710 -0.500265
O38   O     O_R   0.321640 0.375140 0.177290 -0.505246
O39   O     O_R   0.178360 0.875140 0.822710 -0.500254
O40   O     O_R   0.821640 0.875140 0.177290 -0.505216
O41   O     O_R   0.785050 0.289380 0.670560 -0.424384
O42   O     O_R   0.214950 0.289380 0.329440 -0.392387
O43   O     O_R   0.285050 0.789380 0.670560 -0.424263
O44   O     O_R   0.714950 0.789380 0.329440 -0.392326
O45   O     O_R   0.763320 0.039990 0.676930 -0.423357
O46   O     O_R   0.236680 0.039990 0.323070 -0.440166
O47   O     O_R   0.263320 0.539990 0.676930 -0.423456
O48   O     O_R   0.736680 0.539990 0.323070 -0.440224
O49   O     O_R   0.668130 0.922920 0.670000 -0.460487
O50   O     O_R   0.331870 0.922920 0.330000 -0.452276
O51   O     O_R   0.168130 0.422920 0.670000 -0.460335
O52   O     O_R   0.831870 0.422920 0.330000 -0.452341
F1    F     F_    0.824778 0.238421 0.414513 -0.565722
F2    F     F_    0.110197 0.424508 0.551390 -0.574203
F3    F     F_    0.325084 0.738669 0.414589 -0.565566
F4    F     F_    0.610208 0.925175 0.551344 -0.574229
F5    F     F_    0.669622 0.584847 0.435284 -0.568768
F6    F     F_    0.363031 0.449781 0.583611 -0.564828
F7    F     F_    0.169233 0.084234 0.435152 -0.568538
F8    F     F_    0.863041 0.949165 0.583692 -0.565262
F9    F     F_    0.437053 0.291959 0.032955 -0.606493
F10   F     F_    0.543691 0.250875 0.968457 -0.590164
F11   F     F_    0.936847 0.791853 0.032915 -0.606517
F12   F     F_    0.043523 0.751217 0.968414 -0.590078
F13   F     F_    0.821608 0.207581 0.554597 -0.536428
F14   F     F_    0.125806 0.403176 0.411413 -0.544125
F15   F     F_    0.321982 0.708018 0.554663 -0.535879
F16   F     F_    0.625848 0.903658 0.411362 -0.544199

loop_
_geom_bond_atom_site_label_1
_geom_bond_atom_site_label_2
_ccdc_geom_bond_type
C58   C62   A    
C55   F7    S    
C87   C88   S    
Cr6   O18   S    
Cr10  O34   S    
C18   H22   S    
C54   F6    S    
C40   F16   S    
C39   F15   S    
C27   H27   S    
C14   C18   A    
Cr9   O37   S    
C35   C36   A    
C84   C87   D    
C25   H25   S    
C2    O26   A    
C32   C75   S    
Cr7   O51   S    
C68   O40   A    
Cr11  O11   S    
Cr12  O40   S    
C63   C79   S    
C85   C86   S    
C15   C19   A    
Cr9   O9    S    
C50   C54   A    
C15   H19   S    
Cr3   O23   S    
C7    H15   S    
C80   O44   A    
Cr7   O7    S    
Cr8   O52   S    
C38   C42   A    
C55   C59   A    
C88   H4    S    
C49   C53   A    
C34   H30   S    
C66   O2    A    
C44   F4    S    
C29   C33   A    
C13   H17   S    
Cr2   O42   S    
C23   C67   S    
C57   C61   A    
C9    C13   A    
C72   O52   A    
C52   C69   S    
C56   F8    S    
C58   H6    S    
C11   C15   A    
C70   O46   A    
C22   C66   S    
C12   C16   A    
C61   C77   S    
C49   C72   S    
Cr7   O19   S    
C59   H7    S    
C4    O28   A    
Cr9   O33   S    
C8    C92   A    
C51   C70   S    
Cr5   O17   S    
C8    C12   A    
C67   O3    A    
Cr10  O18   S    
C51   C55   A    
C81   C86   D    
C26   H26   S    
Cr2   O18   S    
Cr12  O36   S    
C65   O1    A    
Cr8   O20   S    
C83   C88   D    
C74   O6    A    
C43   F3    S    
Cr2   O22   S    
C48   O36   A    
Cr6   O6    S    
C3    O23   A    
C64   C80   S    
C86   H2    S    
C1    C12   S    
Cr1   O45   S    
Cr4   O48   S    
C85   H1    S    
C2    C11   S    
C36   H32   S    
C41   C49   A    
C69   O45   A    
Cr6   O26   S    
C74   O10   A    
C7    C11   A    
Cr7   O31   S    
C84   F11   S    
C89   H9    S    
C30   C34   A    
C46   C82   S    
Cr1   O1    S    
C72   O48   A    
C82   F9    S    
C73   O5    A    
C10   C14   A    
C67   O39   A    
C81   F10   S    
C30   C73   S    
C53   C57   A    
C19   C23   A    
C39   C43   A    
C29   C74   S    
C75   O11   A    
C25   C26   A    
C6    C90   A    
C24   C68   S    
Cr1   O17   S    
C77   O41   A    
C48   C84   S    
C5    H13   S    
C28   H28   S    
Cr2   O2    S    
Cr2   O46   S    
Cr5   O49   S    
C50   C71   S    
C17   H21   S    
C5    C9    A    
C60   H8    S    
C71   O47   A    
C47   O31   A    
C57   H5    S    
C42   F2    S    
C37   C61   A    
C48   O32   A    
Cr9   O17   S    
C16   C20   A    
C7    C91   A    
Cr11  O39   S    
C33   C34   A    
C22   C90   A    
C87   H3    S    
C1    O21   A    
Cr8   O28   S    
C78   O14   A    
Cr4   O44   S    
Cr1   O21   S    
C92   H12   S    
Cr5   O5    S    
Cr8   O32   S    
Cr6   O30   S    
C46   O34   A    
C75   O7    A    
C14   H18   S    
Cr10  O14   S    
Cr7   O27   S    
C76   O8    A    
Cr11  O19   S    
Cr4   O24   S    
C42   C50   A    
C77   O13   A    
Cr5   O25   S    
C83   F12   S    
Cr8   O8    S    
C24   C92   A    
C23   C91   A    
Cr12  O20   S    
C35   H31   S    
C69   O49   A    
C8    H16   S    
C79   O15   A    
C54   C58   A    
Cr3   O43   S    
C25   C30   A    
C80   O16   A    
Cr1   O41   S    
C46   O30   A    
C21   C65   S    
C27   C32   A    
C78   O42   A    
C59   C63   A    
C62   C78   S    
C28   C31   A    
C45   C81   S    
C21   C89   A    
C71   O51   A    
C45   O33   A    
C44   C52   A    
Cr4   O4    S    
C47   O35   A    
C41   F1    S    
C32   C36   A    
C20   H24   S    
Cr11  O15   S    
Cr10  O38   S    
C82   C85   D    
C39   C63   A    
Cr3   O3    S    
C40   C64   A    
C13   C17   A    
C60   C64   A    
C3    O27   A    
Cr12  O16   S    
C18   C22   A    
C16   H20   S    
Cr12  O12   S    
Cr6   O50   S    
C3    C10   S    
C53   F5    S    
Cr10  O10   S    
C4    O24   A    
Cr11  O35   S    
Cr3   O47   S    
C31   C76   S    
Cr4   O20   S    
C43   C51   A    
Cr5   O29   S    
C31   C35   A    
Cr9   O13   S    
C91   H11   S    
Cr3   O19   S    
C90   H10   S    
C37   C41   A    
C65   O37   A    
C17   C21   A    
C68   O4    A    
C6    C10   A    
C70   O50   A    
C1    O25   A    
C47   C83   S    
C33   H29   S    
C40   C44   A    
C79   O43   A    
C56   C60   A    
C2    O22   A    
C76   O12   A    
C26   C29   A    
C38   F14   S    
C73   O9    A    
C27   C28   A    
C37   F13   S    
C66   O38   A    
C19   H23   S    
C4    C9    S    
C45   O29   A    
C20   C24   A    
C5    C89   A    
C52   C56   A    
C6    H14   S    
C38   C62   A    
