data_mof_unit_4933.cif
_audit_creation_date              2012-12-10T16:54:52-0500
_audit_creation_method            fapswitch 2.2
_symmetry_space_group_name_H-M    P1
_symmetry_Int_Tables_number       1
_space_group_crystal_system       triclinic
_cell_length_a                    7.803866
_cell_length_b                    8.584376
_cell_length_c                    15.714023
_cell_angle_alpha                 91.582008
_cell_angle_beta                  85.540286
_cell_angle_gamma                 93.077342
_cell_volume                      1047.71203185

loop_
_atom_site_label
_atom_site_type_symbol
_atom_type_description
_atom_site_fract_x
_atom_site_fract_y
_atom_site_fract_z
_atom_type_partial_charge
Br1   Br    Br    0.740680 0.013871 0.394402 -0.502197
Br2   Br    Br    0.959597 0.688222 0.602825 -0.332762
Br3   Br    Br    0.761792 0.769760 0.892849 -0.572105
C1    C     C_R   0.544573 0.794044 0.497109 0.935258
C2    C     C_2   0.439040 0.045479 0.518285 -0.055147
C3    C     C_R   0.501511 0.500220 0.661460 0.886902
C4    C     C_R   0.455667 0.205713 0.502159 0.906209
C5    C     C_R   0.498557 0.499932 0.338490 0.902412
C6    C     C_3   0.369811 0.613786 0.957115 -0.364080
C7    C     C_3   0.686952 0.568652 0.944755 0.040031
C8    C     C_3   0.684135 0.566317 0.044706 0.022072
C9    C     C_1   0.496134 0.501547 0.249768 -0.138288
C10   C     C_3   0.508228 0.504460 0.916723 0.188053
C11   C     C_3   0.367588 0.987696 0.667212 -0.702323
C12   C     C_3   0.361158 0.607459 0.055123 -0.428737
C13   C     C_3   0.911095 0.750274 0.096098 -0.718348
C14   C     C_3   0.162639 0.283785 0.924752 -0.743064
C15   C     C_3   0.502690 0.504312 0.082728 0.202529
C16   C     C_3   0.465313 0.335646 0.048795 -0.456479
C17   C     C_3   0.478982 0.333549 0.950088 0.043142
C18   C     C_1   0.497545 0.502942 0.174416 -0.039956
C19   C     C_1   0.507449 0.502870 0.825269 -0.017375
C20   C     C_1   0.505229 0.501418 0.750067 -0.123166
C21   C     C_2   0.563253 0.954565 0.483113 0.041665
H1    H     H_    0.375147 0.727581 0.082952 0.187721
H2    H     H_    0.336742 0.289952 0.075237 0.208818
H3    H     H_    0.194518 0.045735 0.581395 0.269529
H4    H     H_    0.261885 0.938513 0.711529 0.263442
H5    H     H_    0.405291 0.107497 0.689995 0.205436
H6    H     H_    0.478863 0.912409 0.668011 0.242702
H7    H     H_    0.665679 0.811848 0.065734 0.269990
H8    H     H_    0.928792 0.867536 0.126737 0.249437
H9    H     H_    0.990018 0.747552 0.034228 0.258683
H10   H     H_    0.955635 0.662822 0.139077 0.230694
H11   H     H_    0.371857 0.190385 0.854380 0.230149
H12   H     H_    0.241021 0.585285 0.934251 0.189962
H13   H     H_    0.075880 0.177799 0.919329 0.254044
H14   H     H_    0.136417 0.363176 0.873267 0.235875
H15   H     H_    0.131763 0.339165 0.988184 0.232149
H16   H     H_    0.232327 0.558434 0.079365 0.176501
H17   H     H_    0.560194 0.256694 0.071386 0.158687
H18   H     H_    0.013336 0.381506 0.435839 0.180662
H19   H     H_    0.401977 0.736076 0.937651 0.217476
H20   H     H_    0.786997 0.488909 0.918434 0.111294
H21   H     H_    0.778123 0.480552 0.061322 0.117887
H22   H     H_    0.598612 0.272267 0.930086 0.112226
N1    N     N_2   0.950340 0.457950 0.477370 -0.111142
N2    N     N_2   0.049660 0.542050 0.522630 0.056889
N3    N     N_2   0.309506 0.992027 0.582071 -0.271418
N4    N     N_2   0.731008 0.717907 0.083075 -0.267449
N5    N     N_2   0.339473 0.238994 0.913855 -0.278453
O1    O     O_R   0.389240 0.738570 0.505550 -0.584859
O2    O     O_R   0.678400 0.711630 0.491050 -0.562777
O3    O     O_R   0.355360 0.513470 0.630110 -0.596445
O4    O     O_R   0.644510 0.486530 0.615610 -0.579291
O5    O     O_R   0.321600 0.288370 0.508950 -0.647675
O6    O     O_R   0.610760 0.261430 0.494450 -0.582656
O7    O     O_R   0.355490 0.513470 0.384390 -0.637061
O8    O     O_R   0.644640 0.486530 0.369890 -0.599214
Zn1   Zn    Zn3+2 0.306930 0.517990 0.509680 1.028891
Zn2   Zn    Zn3+2 0.693070 0.482010 0.490320 1.055052

loop_
_geom_bond_atom_site_label_1
_geom_bond_atom_site_label_2
_ccdc_geom_bond_type
N1    Zn2   S    
C12   C15   S    
C8    C15   S    
O6    Zn2   S    
C13   H9    S    
C6    H12   S    
C15   C18   S    
O1    Zn1   S    
N1    N2    D    
C7    H20   S    
C3    O4    A    
C5    C9    S    
N2    Zn1   S    
Br2   N2    S    
C14   N5    S    
C16   C17   S    
C6    C12   S    
Br3   C7    S    
O3    Zn1   S    
Br1   C21   S    
C11   H4    S    
C2    N3    S    
C2    C21   D    
C4    O5    A    
C1    O1    A    
H3    N3    S    
C1    C21   S    
C3    C20   S    
O4    Zn2   S    
C11   H6    S    
C10   C19   S    
C3    O3    A    
C17   N5    S    
H18   N1    S    
C5    O8    A    
H11   N5    S    
C1    O2    A    
C12   H16   S    
C6    H19   S    
C11   N3    S    
C8    H21   S    
C7    C8    S    
C14   H13   S    
H7    N4    S    
O7    Zn1   S    
O5    Zn1   S    
C14   H14   S    
C12   H1    S    
C2    C4    S    
C15   C16   S    
C14   H15   S    
O8    Zn2   S    
C8    N4    S    
C16   H2    S    
C6    C10   S    
C13   H8    S    
C5    O7    A    
C11   H5    S    
C10   C17   S    
C13   H10   S    
C19   C20   T    
O2    Zn2   S    
C9    C18   T    
C4    O6    A    
C17   H22   S    
C16   H17   S    
C13   N4    S    
C7    C10   S    
