data_mof_unit_2582.cif
_audit_creation_date              2012-12-10T17:12:27-0500
_audit_creation_method            fapswitch 2.2
_symmetry_space_group_name_H-M    P1
_symmetry_Int_Tables_number       1
_space_group_crystal_system       triclinic
_cell_length_a                    11.698012
_cell_length_b                    13.019356
_cell_length_c                    11.713936
_cell_angle_alpha                 100.268493
_cell_angle_beta                  95.137969
_cell_angle_gamma                 90.764849
_cell_volume                      1747.62888237

loop_
_atom_site_label
_atom_site_type_symbol
_atom_type_description
_atom_site_fract_x
_atom_site_fract_y
_atom_site_fract_z
_atom_type_partial_charge
C1    C     C_R   0.509724 0.299498 0.478548 0.831612
C2    C     C_R   0.490261 0.700454 0.521442 0.842526
C3    C     C_R   0.376216 0.416504 0.018560 -0.180584
C4    C     C_R   0.624207 0.583229 0.981255 -0.178753
C5    C     C_R   0.389953 0.422474 0.141356 0.150157
C6    C     C_R   0.609663 0.578043 0.858579 0.140200
C7    C     C_R   0.554785 0.533629 0.158282 0.034769
C8    C     C_R   0.445746 0.465834 0.841630 0.026336
C9    C     C_R   0.545676 0.529143 0.035220 -0.014042
C10   C     C_R   0.454904 0.470377 0.964659 -0.012684
C11   C     C_R   0.283818 0.499850 0.499144 0.819988
C12   C     C_R   0.716182 0.500142 0.500859 0.825741
C13   C     C_1   0.162102 0.499832 0.497898 -0.141678
C14   C     C_1   0.837899 0.500147 0.502115 -0.154348
C15   C     C_1   0.059755 0.499922 0.498949 0.007646
C16   C     C_1   0.940248 0.500062 0.501098 -0.002155
C17   C     C_R   0.477907 0.814653 0.534757 -0.179739
C18   C     C_R   0.522271 0.185246 0.465357 -0.187888
C19   C     C_R   0.429004 0.027790 0.360193 -0.105369
C20   C     C_R   0.571045 0.972152 0.640483 -0.123438
C21   C     C_R   0.485696 0.122092 0.357331 -0.092263
C22   C     C_R   0.514746 0.877329 0.642823 -0.079404
C23   C     C_R   0.552290 0.136784 0.562925 -0.035359
C24   C     C_R   0.447817 0.863266 0.437422 -0.038432
C25   C     C_R   0.533575 0.027185 0.550681 0.026076
C26   C     C_R   0.466266 0.972859 0.450034 0.027650
Cu1   Cu    Cu3+1 0.508350 0.507730 0.615930 0.985278
Cu2   Cu    Cu3+1 0.491650 0.492270 0.384070 0.991275
H1    H     H_    0.379770 0.418002 0.785525 0.151709
H2    H     H_    0.620992 0.581219 0.214331 0.149601
N1    N     N_R   0.520920 0.519350 0.790130 -0.222592
N2    N     N_R   0.479080 0.480650 0.209870 -0.219331
O1    O     O_R   0.505930 0.354460 0.582000 -0.594878
O2    O     O_R   0.494070 0.645540 0.418000 -0.598218
O3    O     O_R   0.491820 0.341410 0.386200 -0.522821
O4    O     O_R   0.508180 0.658590 0.613800 -0.525586
O5    O     O_R   0.344250 0.506540 0.597900 -0.580628
O6    O     O_R   0.655750 0.493460 0.402100 -0.576754
O7    O     O_R   0.330140 0.493480 0.402100 -0.577785
O8    O     O_R   0.669860 0.506520 0.597900 -0.579130
C27   C     C_R   0.401471 0.800508 0.322686 0.137525
C28   C     C_R   0.457118 0.804197 0.221786 -0.138227
C29   C     C_R   0.409421 0.751046 0.113372 -0.100741
C30   C     C_R   0.308111 0.691202 0.105092 -0.111576
C31   C     C_R   0.254028 0.684427 0.205164 -0.125455
C32   C     C_R   0.299810 0.739349 0.313538 -0.048387
H3    H     H_    0.536040 0.849925 0.226946 0.142086
H4    H     H_    0.451161 0.755802 0.035673 0.144750
H5    H     H_    0.271875 0.649817 0.021087 0.128071
H6    H     H_    0.176189 0.637221 0.198580 0.148438
H7    H     H_    0.255781 0.735117 0.390142 0.122615
C33   C     C_R   0.599341 0.199690 0.677287 0.146494
C34   C     C_R   0.700993 0.260702 0.685511 -0.049996
C35   C     C_R   0.747414 0.315959 0.793453 -0.130453
C36   C     C_R   0.693958 0.309700 0.894010 -0.085666
C37   C     C_R   0.592629 0.250069 0.886663 -0.109953
C38   C     C_R   0.544345 0.196473 0.778682 -0.162889
H8    H     H_    0.744518 0.264577 0.608509 0.121555
H9    H     H_    0.825236 0.363049 0.799320 0.151933
H10   H     H_    0.730682 0.351329 0.977677 0.137039
H11   H     H_    0.551302 0.245958 0.964767 0.143950
H12   H     H_    0.465420 0.150900 0.774227 0.137487
C39   C     C_2   0.472680 0.855911 0.753486 0.942086
O9    O     O_2   0.509653 0.907257 0.847634 -0.568955
O10   O     O_R   0.383137 0.782582 0.749349 -0.760166
H13   H     H_    0.360699 0.776298 0.829499 0.320312
C40   C     C_2   0.529174 0.140418 0.246063 0.945595
O11   O     O_2   0.601722 0.209199 0.247140 -0.596808
O12   O     O_R   0.495428 0.073058 0.141092 -0.718184
H14   H     H_    0.533500 0.091749 0.072800 0.339329
C41   C     C_2   0.313146 0.005845 0.294964 0.884036
O13   O     O_2   0.291573 0.031109 0.199949 -0.540421
O14   O     O_R   0.226006 0.961358 0.346405 -0.777527
H15   H     H_    0.150857 0.951070 0.294892 0.326061
C42   C     C_2   0.687264 0.994058 0.705054 0.901734
O15   O     O_2   0.709528 0.968843 0.799997 -0.531981
O16   O     O_R   0.773993 0.038432 0.652953 -0.776254
H16   H     H_    0.849431 0.048724 0.703990 0.326321
C43   C     C_2   0.697748 0.631924 0.806268 0.906444
O17   O     O_2   0.677879 0.715373 0.776054 -0.582505
O18   O     O_R   0.807584 0.591233 0.801473 -0.782758
H17   H     H_    0.862050 0.636148 0.767268 0.331450
C44   C     C_2   0.300376 0.370314 0.193600 0.900674
O19   O     O_2   0.205356 0.408052 0.198759 -0.616946
O20   O     O_R   0.320271 0.274050 0.226897 -0.747269
H18   H     H_    0.251390 0.245905 0.259591 0.336725
C45   C     C_R   0.278357 0.354571 0.947542 0.075418
C46   C     C_R   0.275539 0.245040 0.932076 -0.123865
C47   C     C_R   0.184313 0.187122 0.863943 -0.097967
C48   C     C_R   0.095510 0.238072 0.810882 -0.110877
C49   C     C_R   0.097658 0.347045 0.826171 -0.127710
C50   C     C_R   0.188250 0.405235 0.894844 -0.110939
H19   H     H_    0.343912 0.204659 0.972484 0.159138
H20   H     H_    0.182627 0.102725 0.852040 0.154022
H21   H     H_    0.025138 0.193173 0.757831 0.135563
H22   H     H_    0.029483 0.386539 0.784424 0.138896
H23   H     H_    0.188914 0.489535 0.905807 0.125197
C51   C     C_R   0.722291 0.644978 0.052141 0.072063
C52   C     C_R   0.812498 0.594108 0.104404 -0.103152
C53   C     C_R   0.903343 0.652077 0.172908 -0.128876
C54   C     C_R   0.905599 0.761062 0.188585 -0.115176
C55   C     C_R   0.816658 0.812245 0.136076 -0.097472
C56   C     C_R   0.725222 0.754545 0.068058 -0.126257
H24   H     H_    0.811770 0.509815 0.093235 0.130574
H25   H     H_    0.971642 0.612401 0.214230 0.142964
H26   H     H_    0.976152 0.805792 0.241522 0.136726
H27   H     H_    0.818411 0.896659 0.148300 0.155419
H28   H     H_    0.656810 0.795150 0.028057 0.170016

loop_
_geom_bond_atom_site_label_1
_geom_bond_atom_site_label_2
_ccdc_geom_bond_type
C30   H5    S    
C45   C46   A    
C39   O10   S    
C54   C55   A    
C4    C51   S    
C18   C21   A    
O14   H15   S    
C19   C41   S    
C36   C37   A    
O18   H17   S    
C23   C33   S    
C1    O1    A    
C38   H12   S    
C34   C35   A    
Cu1   O1    S    
C1    C18   S    
C8    H1    S    
C19   C21   A    
C24   C26   A    
O20   H18   S    
C5    C44   S    
C20   C25   A    
C15   C16   S    
C37   C38   A    
C27   C28   A    
C47   H20   S    
C11   O5    A    
C19   C26   A    
C49   H22   S    
C46   H19   S    
C52   C53   A    
Cu2   O3    S    
C27   C32   A    
C56   H28   S    
C29   H4    S    
C5    N2    A    
C2    O2    A    
C52   H24   S    
C22   C39   S    
Cu2   O2    S    
C7    H2    S    
C36   H10   S    
C21   C40   S    
C2    C17   S    
C24   C27   S    
O12   H14   S    
C50   H23   S    
C35   H9    S    
C17   C24   A    
Cu1   N1    S    
C40   O11   D    
Cu2   N2    S    
C43   O17   D    
C4    C6    A    
C49   C50   A    
C43   O18   S    
Cu2   O7    S    
C25   C26   A    
O16   H16   S    
C3    C45   S    
C32   H7    S    
C18   C23   A    
C20   C42   S    
C40   O12   S    
C12   O8    A    
C42   O15   D    
C44   O19   D    
Cu2   O6    S    
Cu1   O8    S    
C53   H25   S    
C55   H27   S    
C33   C34   A    
C11   O7    A    
C42   O16   S    
C44   O20   S    
C20   C22   A    
C51   C52   A    
C13   C15   T    
C29   C30   A    
C14   C16   T    
C28   C29   A    
C30   C31   A    
C1    O3    A    
C41   O14   S    
C9    C10   A    
C2    O4    A    
C54   H26   S    
C7    C9    A    
C35   C36   A    
C7    N2    A    
C8    N1    A    
C12   C14   S    
C3    C5    A    
C48   H21   S    
C34   H8    S    
Cu1   O4    S    
C17   C22   A    
C4    C9    A    
C41   O13   D    
C3    C10   A    
C11   C13   S    
C48   C49   A    
C31   H6    S    
Cu1   O5    S    
C53   C54   A    
C6    N1    A    
C28   H3    S    
C23   C25   A    
C12   O6    A    
C55   C56   A    
C33   C38   A    
C6    C43   S    
C39   O9    D    
C31   C32   A    
C46   C47   A    
C8    C10   A    
O10   H13   S    
Cu1   Cu2   S    
C37   H11   S    
C47   C48   A    
C45   C50   A    
C51   C56   A    
