data_mof_unit_3501.cif
_audit_creation_date              2012-12-10T18:15:19-0500
_audit_creation_method            fapswitch 2.2
_symmetry_space_group_name_H-M    P1
_symmetry_Int_Tables_number       1
_space_group_crystal_system       triclinic
_cell_length_a                    12.592969
_cell_length_b                    13.116955
_cell_length_c                    23.426816
_cell_angle_alpha                 90.633279
_cell_angle_beta                  102.792446
_cell_angle_gamma                 82.419533
_cell_volume                      3739.98430174

loop_
_atom_site_label
_atom_site_type_symbol
_atom_type_description
_atom_site_fract_x
_atom_site_fract_y
_atom_site_fract_z
_atom_type_partial_charge
C1    C     C_R   0.438874 0.691352 0.495545 0.858335
C2    C     C_R   0.413951 0.680182 0.022025 -0.138534
C3    C     C_R   0.417003 0.682542 0.963016 -0.117582
C4    C     C_R   0.460651 0.594758 0.936881 -0.042357
C5    C     C_R   0.501826 0.503925 0.970495 -0.026264
C6    C     C_R   0.545704 0.415351 0.944660 -0.041116
C7    C     C_R   0.586656 0.325286 0.978515 -0.119879
C8    C     C_R   0.584039 0.323047 0.037575 -0.143167
C9    C     C_R   0.463810 0.594952 0.877683 0.663080
C10   C     C_R   0.546443 0.419164 0.885235 0.660215
C11   C     C_R   0.409047 0.485976 0.751927 0.447847
C12   C     C_R   0.500745 0.500804 0.610562 0.931259
C13   C     C_R   0.409061 0.484119 0.692554 -0.269863
C14   C     C_R   0.501994 0.503491 0.673063 -0.186909
C15   C     C_R   0.595491 0.526205 0.713359 -0.269064
C16   C     C_R   0.597105 0.529279 0.772974 0.458337
C17   C     C_R   0.503671 0.508417 0.792294 0.037729
C18   C     C_R   0.593846 0.501943 0.248619 -0.102392
C19   C     C_R   0.595169 0.502835 0.307988 -0.214897
C20   C     C_R   0.497717 0.497793 0.326998 -0.040473
C21   C     C_R   0.399173 0.491326 0.285855 -0.213742
C22   C     C_R   0.398116 0.490815 0.226436 -0.094930
C23   C     C_R   0.561097 0.308735 0.507355 0.898937
C24   C     C_R   0.495389 0.496259 0.207964 0.318475
C25   C     C_R   0.705994 0.068109 0.588587 0.449468
C26   C     C_R   0.597410 0.200580 0.521003 -0.131475
C27   C     C_R   0.299399 0.837821 0.455494 -0.177676
C28   C     C_R   0.270791 0.942561 0.443942 -0.127521
C29   C     C_R   0.344965 0.010305 0.466801 -0.172883
C30   C     C_R   0.447803 0.974078 0.504237 0.122391
C31   C     C_R   0.467855 0.870676 0.523113 0.097435
C32   C     C_R   0.531339 0.036934 0.523494 0.037773
C33   C     C_R   0.624909 0.002193 0.568704 0.020297
C34   C     C_R   0.499209 0.499398 0.389461 0.864442
C35   C     C_R   0.633168 0.903690 0.593122 -0.133733
C36   C     C_R   0.555966 0.839039 0.570618 -0.219274
C37   C     C_R   0.524667 0.132970 0.497620 -0.239113
C38   C     C_R   0.689654 0.168117 0.565175 -0.255304
C39   C     C_R   0.399510 0.801136 0.493508 -0.114213
C40   C     C_R   0.087441 0.346145 0.419028 -0.291023
C41   C     C_R   0.801214 0.627609 0.570596 0.039083
C42   C     C_R   0.906626 0.654539 0.585839 -0.161353
C43   C     C_R   0.987445 0.606486 0.558979 -0.164547
C44   C     C_R   0.963132 0.529822 0.516971 0.010285
C45   C     C_R   0.537056 0.410558 0.122912 0.508527
C46   C     C_R   0.854523 0.504267 0.503539 0.235916
C47   C     C_R   0.041978 0.477063 0.488284 -0.003199
C48   C     C_R   0.011067 0.399272 0.447565 0.192244
C49   C     C_R   0.904439 0.374763 0.435895 -0.271506
C50   C     C_R   0.827582 0.426357 0.463621 -0.198895
C51   C     C_R   0.151013 0.497940 0.498226 -0.031666
C52   C     C_R   0.193800 0.370329 0.430961 0.013366
C53   C     C_R   0.453184 0.585959 0.115239 0.511353
C54   C     C_R   0.454699 0.590050 0.055877 -0.020243
C55   C     C_R   0.498926 0.501590 0.030071 -0.008958
C56   C     C_R   0.540306 0.410809 0.063710 -0.018050
H1    H     H_    0.379727 0.749082 0.040990 0.198745
H2    H     H_    0.672326 0.507346 0.338838 0.167756
H3    H     H_    0.323015 0.487410 0.299469 0.165207
H4    H     H_    0.322004 0.486404 0.194708 0.145910
H5    H     H_    0.745664 0.222236 0.583120 0.210684
H6    H     H_    0.699682 0.874524 0.629047 0.217369
H7    H     H_    0.460172 0.159297 0.460195 0.150896
H8    H     H_    0.244859 0.785356 0.433341 0.162870
H9    H     H_    0.318504 0.090652 0.455737 0.134037
H10   H     H_    0.192880 0.970981 0.415167 0.151092
H11   H     H_    0.384889 0.753136 0.937982 0.203564
H12   H     H_    0.564858 0.764202 0.591383 0.158942
H13   H     H_    0.254284 0.329867 0.409534 0.128396
H14   H     H_    0.880221 0.315109 0.405197 0.163035
H15   H     H_    0.065152 0.286482 0.387994 0.148435
H16   H     H_    0.182129 0.555525 0.528082 0.129264
H17   H     H_    0.738454 0.664116 0.591668 0.133885
H18   H     H_    0.067852 0.630167 0.572425 0.152234
H19   H     H_    0.925806 0.712119 0.618574 0.193480
H20   H     H_    0.747735 0.402842 0.453242 0.211049
H21   H     H_    0.620693 0.256338 0.959515 0.203348
H22   H     H_    0.616293 0.252479 0.062612 0.197085
H23   H     H_    0.336416 0.467233 0.661452 0.214722
H24   H     H_    0.667288 0.541517 0.698349 0.215299
H25   H     H_    0.668994 0.506254 0.234047 0.141440
N1    N     N_R   0.494278 0.497317 0.147157 -0.360641
N2    N     N_R   0.505485 0.507829 0.853313 -0.332077
N3    N     N_R   0.222200 0.444670 0.469780 -0.104045
N4    N     N_R   0.776960 0.554790 0.529910 -0.134104
O1    O     O_R   0.366740 0.627150 0.485570 -0.617256
O2    O     O_2   0.412073 0.669867 0.141151 -0.545068
O3    O     O_2   0.425559 0.681087 0.844526 -0.490546
O4    O     O_2   0.586495 0.334933 0.859174 -0.483674
O5    O     O_R   0.544830 0.662520 0.504870 -0.612130
O6    O     O_R   0.410930 0.482340 0.574190 -0.615177
O7    O     O_R   0.589010 0.517710 0.593490 -0.625174
O8    O     O_R   0.455170 0.337480 0.495130 -0.608881
O9    O     O_R   0.633260 0.372850 0.514430 -0.633543
O10   O     O_R   0.410990 0.482290 0.406510 -0.622216
O11   O     O_R   0.589070 0.517660 0.425810 -0.635764
O12   O     O_2   0.576101 0.324600 0.156122 -0.550417
Zn1   Zn    Zn3+2 0.381090 0.476380 0.487110 0.954516
Zn2   Zn    Zn3+2 0.618910 0.523620 0.512890 0.950687
S1    S     S_3+6 0.825356 0.030575 0.644032 0.038090
O13   O     O_2   0.898792 0.113622 0.653650 -0.248965
O14   O     O_2   0.791984 0.009914 0.700130 -0.258110
O15   O     O_3   0.894421 0.922743 0.623755 -0.589775
H26   H     H_    0.955995 0.902835 0.657736 0.395962
S2    S     S_3+6 0.289916 0.460276 0.774738 0.063900
O16   O     O_2   0.240109 0.556160 0.799792 -0.261990
O17   O     O_2   0.206806 0.427051 0.723907 -0.260012
O18   O     O_3   0.323861 0.366425 0.826368 -0.531991
H27   H     H_    0.257906 0.366880 0.842910 0.396927
S3    S     S_3+6 0.716883 0.558182 0.822667 0.066237
O19   O     O_2   0.769758 0.463826 0.859108 -0.257483
O20   O     O_2   0.797217 0.591783 0.790237 -0.253902
O21   O     O_3   0.683137 0.652992 0.866862 -0.537097
H28   H     H_    0.750641 0.655782 0.897684 0.389984

loop_
_geom_bond_atom_site_label_1
_geom_bond_atom_site_label_2
_ccdc_geom_bond_type
C55   C56   A    
C13   H23   S    
C1    O5    A    
C40   H15   S    
C41   C42   A    
C12   O6    A    
C19   C20   A    
C8    C56   A    
C2    H1    S    
C16   S3    S    
C7    C8    A    
C53   C54   A    
S2    O17   D    
C42   H19   S    
C18   C24   A    
C28   C29   A    
C34   O11   A    
C21   H3    S    
C9    O3    S    
C22   H4    S    
C5    C6    A    
C45   N1    A    
C15   C16   A    
O11   Zn2   S    
C10   N2    A    
C18   H25   S    
O18   H27   S    
C18   C19   A    
C23   C26   S    
C52   N3    A    
C24   N1    S    
S3    O19   D    
C52   H13   S    
C15   H24   S    
C10   O4    S    
C27   C39   A    
C16   C17   A    
C11   S2    S    
C44   C47   A    
C7    H21   S    
C46   N4    A    
C20   C34   S    
C43   H18   S    
C21   C22   A    
C8    H22   S    
C5    C55   A    
C37   H7    S    
C44   C46   A    
C19   H2    S    
S2    O18   S    
O10   Zn1   S    
C34   O10   A    
C45   C56   A    
C2    C54   A    
C26   C38   A    
C47   C51   A    
C40   C52   A    
S1    O15   S    
C23   O8    A    
C53   N1    A    
C17   N2    S    
C35   C36   A    
C28   H10   S    
C43   C44   A    
C29   C30   A    
N4    Zn2   S    
C50   H20   S    
C25   C38   A    
C25   S1    S    
C47   C48   A    
S1    O14   D    
C53   O2    S    
C32   C37   A    
S3    O21   S    
C9    N2    A    
C29   H9    S    
C48   C49   A    
C12   C14   S    
C49   H14   S    
C22   C24   A    
C42   C43   A    
C3    C4    A    
O5    Zn2   S    
O15   H26   S    
O21   H28   S    
C1    O1    A    
C40   C48   A    
C54   C55   A    
C11   C17   A    
C31   C36   A    
C12   O7    A    
C3    H11   S    
C4    C5    A    
C6    C10   A    
C36   H12   S    
C26   C37   A    
C6    C7    A    
C41   N4    A    
S2    O16   D    
C46   C50   A    
C23   O9    A    
N3    Zn1   S    
C32   C33   A    
C38   H5    S    
C2    C3    A    
C45   O12   S    
C30   C32   A    
C11   C13   A    
C30   C31   A    
O9    Zn2   S    
C51   N3    A    
S1    O13   D    
C33   C35   A    
C31   C39   A    
C35   H6    S    
O6    Zn1   S    
O1    Zn1   S    
S3    O20   D    
C27   H8    S    
C1    C39   S    
C41   H17   S    
C20   C21   A    
C49   C50   A    
C51   H16   S    
C27   C28   A    
C14   C15   A    
C4    C9    A    
C13   C14   A    
O8    Zn1   S    
O7    Zn2   S    
C25   C33   A    
