data_mof_unit_2479.cif
_audit_creation_date              2012-12-10T17:57:50-0500
_audit_creation_method            fapswitch 2.2
_symmetry_space_group_name_H-M    P1
_symmetry_Int_Tables_number       1
_space_group_crystal_system       triclinic
_cell_length_a                    10.832245
_cell_length_b                    9.507688
_cell_length_c                    15.099821
_cell_angle_alpha                 90.381043
_cell_angle_beta                  90.283363
_cell_angle_gamma                 89.611805
_cell_volume                      1555.03585514

loop_
_atom_site_label
_atom_site_type_symbol
_atom_type_description
_atom_site_fract_x
_atom_site_fract_y
_atom_site_fract_z
_atom_type_partial_charge
C1    C     C_R   0.262214 0.500560 0.499816 0.937186
C2    C     C_R   0.737786 0.499440 0.500184 0.937184
C3    C     C_R   0.319749 0.655742 0.044221 -0.202234
C4    C     C_R   0.680251 0.344258 0.955779 -0.202234
C5    C     C_R   0.064850 0.393208 0.454475 0.334352
C6    C     C_R   0.935150 0.606792 0.545525 0.334352
C7    C     C_R   0.936285 0.388343 0.458525 0.353933
C8    C     C_R   0.063715 0.611657 0.541475 0.353933
C9    C     C_R   0.871653 0.498173 0.501241 -0.360055
C10   C     C_R   0.128347 0.501827 0.498759 -0.360055
C11   C     C_R   0.424670 0.074485 0.443801 -0.027553
C12   C     C_R   0.575330 0.925514 0.556198 -0.027553
C13   C     C_R   0.575268 0.074365 0.556188 -0.042119
C14   C     C_R   0.424732 0.925635 0.443812 -0.042119
C15   C     C_R   0.498638 0.499295 0.328901 0.868398
C16   C     C_R   0.501362 0.500704 0.671099 0.868397
C17   C     C_R   0.592231 0.420867 0.814019 -0.143268
C18   C     C_R   0.407769 0.579133 0.185981 -0.143268
C19   C     C_R   0.504776 0.503080 0.767743 -0.219641
C20   C     C_R   0.495224 0.496920 0.232257 -0.219641
C21   C     C_R   0.420724 0.590299 0.813434 0.403756
C22   C     C_R   0.579276 0.409702 0.186566 0.403755
C23   C     C_R   0.414871 0.583807 0.906140 0.008169
C24   C     C_R   0.585130 0.416194 0.093860 0.008169
C25   C     C_R   0.501795 0.501362 0.953256 0.016921
C26   C     C_R   0.498205 0.498638 0.046744 0.016922
C27   C     C_R   0.592217 0.421654 0.907242 0.068894
C28   C     C_R   0.407783 0.578346 0.092758 0.068894
C29   C     C_R   0.322710 0.657330 0.952433 -0.189142
C30   C     C_R   0.677291 0.342671 0.047567 -0.189143
Cu1   Cu    Cu3+1 0.500000 0.640660 0.500000 0.985024
Cu2   Cu    Cu3+1 0.500000 0.359340 0.500000 0.985024
H1    H     H_    0.251871 0.716708 0.917995 0.182210
H2    H     H_    0.748130 0.283294 0.082004 0.182210
H3    H     H_    0.247697 0.716051 0.076638 0.159048
H4    H     H_    0.752304 0.283950 0.923362 0.159048
H5    H     H_    0.364379 0.130635 0.398775 0.148587
H6    H     H_    0.635621 0.869365 0.601225 0.148587
H7    H     H_    0.635603 0.130391 0.601045 0.147445
H8    H     H_    0.364397 0.869608 0.398955 0.147445
N1    N     N_R   0.500000 0.852070 0.500000 -0.161529
N2    N     N_R   0.500000 0.147930 0.500000 -0.161529
O1    O     O_R   0.319640 0.618740 0.499990 -0.556621
O2    O     O_R   0.680360 0.381260 0.500010 -0.556621
O3    O     O_R   0.680360 0.618740 0.500010 -0.559242
O4    O     O_R   0.319640 0.381260 0.499990 -0.559242
O5    O     O_R   0.499970 0.618800 0.370260 -0.593822
O6    O     O_R   0.500030 0.381200 0.629740 -0.593823
O7    O     O_R   0.500030 0.618800 0.629740 -0.571740
O8    O     O_R   0.499970 0.381200 0.370260 -0.571740
C31   C     C_1   0.684719 0.340486 0.765622 0.217563
N3    N     N_1   0.758924 0.276865 0.727336 -0.339007
C32   C     C_1   0.315281 0.659513 0.234378 0.217563
N4    N     N_1   0.241076 0.723134 0.272664 -0.339007
O9    O     O_3   0.337809 0.673023 0.766277 -0.558151
C33   C     C_3   0.382439 0.812388 0.764101 -0.231114
H9    H     H_    0.480739 0.817522 0.743184 0.145802
H10   H     H_    0.372016 0.865410 0.829397 0.134522
H11   H     H_    0.327041 0.872648 0.715183 0.200462
O10   O     O_3   0.662192 0.326979 0.233723 -0.558151
C34   C     C_3   0.617565 0.187613 0.235899 -0.231116
H12   H     H_    0.627983 0.134594 0.170602 0.134520
H13   H     H_    0.519267 0.182476 0.256821 0.145807
H14   H     H_    0.672969 0.127352 0.284814 0.200462
O11   O     O_3   0.128241 0.288727 0.408986 -0.567731
C35   C     C_3   0.143297 0.331686 0.320564 -0.261137
H15   H     H_    0.193002 0.247319 0.283933 0.165406
H16   H     H_    0.200175 0.428245 0.316881 0.141586
H17   H     H_    0.052678 0.348523 0.287060 0.196394
O12   O     O_3   0.871760 0.711273 0.591014 -0.567730
C36   C     C_3   0.856698 0.668311 0.679436 -0.261130
H18   H     H_    0.799814 0.571755 0.683115 0.141584
H19   H     H_    0.806998 0.752679 0.716067 0.165406
H20   H     H_    0.947316 0.651465 0.712941 0.196389
O13   O     O_3   0.873046 0.284122 0.412928 -0.528550
C37   C     C_3   0.879508 0.158121 0.461769 -0.188287
H21   H     H_    0.812504 0.082617 0.433003 0.167077
H22   H     H_    0.854337 0.174416 0.532583 0.144126
H23   H     H_    0.972571 0.109189 0.456946 0.174082
O14   O     O_3   0.126954 0.715878 0.587072 -0.528547
C38   C     C_3   0.120492 0.841879 0.538231 -0.188284
H24   H     H_    0.145661 0.825584 0.467417 0.144124
H25   H     H_    0.187497 0.917382 0.566997 0.167076
H26   H     H_    0.027430 0.890812 0.543056 0.174083

loop_
_geom_bond_atom_site_label_1
_geom_bond_atom_site_label_2
_ccdc_geom_bond_type
C35   H16   S    
O9    C33   S    
C4    H4    S    
C6    O12   S    
C37   H23   S    
C15   O5    A    
C17   C31   S    
C6    C9    A    
C38   H24   S    
C32   N4    T    
Cu1   O1    S    
C23   C29   A    
C3    C28   A    
C19   C21   A    
C24   C26   A    
C22   O10   S    
C11   C14   A    
C1    O4    A    
C35   H17   S    
C29   H1    S    
C33   H9    S    
C11   N2    A    
C34   H13   S    
C15   O8    A    
C11   H5    S    
C4    C27   A    
C18   C32   S    
C1    O1    A    
C2    O2    A    
O12   C36   S    
C35   H15   S    
Cu1   O5    S    
Cu2   O6    S    
C16   O6    A    
Cu1   O7    S    
C13   N2    A    
C38   H25   S    
C2    O3    A    
C15   C20   S    
C30   H2    S    
C31   N3    T    
C17   C27   A    
C18   C28   A    
C16   O7    A    
C5    O11   S    
C21   O9    S    
C7    O13   S    
C25   C26   A    
O10   C34   S    
C34   H14   S    
O13   C37   S    
C12   N1    A    
Cu1   Cu2   S    
C3    H3    S    
Cu2   O2    S    
C37   H21   S    
Cu2   O8    S    
C14   N1    A    
C20   C22   A    
C21   C23   A    
C22   C24   A    
C38   H26   S    
C5    C7    A    
C7    C9    A    
Cu1   N1    S    
Cu2   O4    S    
C1    C10   S    
C37   H22   S    
O14   C38   S    
C36   H20   S    
C6    C8    A    
C25   C27   A    
C26   C28   A    
C33   H11   S    
C36   H18   S    
C3    C29   A    
C16   C19   S    
C17   C19   A    
C33   H10   S    
C18   C20   A    
C23   C25   A    
C12   H6    S    
C34   H12   S    
C24   C30   A    
C13   H7    S    
C14   H8    S    
C5    C10   A    
C12   C13   A    
C8    C10   A    
O11   C35   S    
Cu1   O3    S    
C36   H19   S    
C8    O14   S    
Cu2   N2    S    
C2    C9    S    
C4    C30   A    
