data_mof_unit_275.cif
_audit_creation_date              2012-10-26T20:03:20-0400
_audit_creation_method            fapswitch 2.2
_symmetry_space_group_name_H-M    P1
_symmetry_Int_Tables_number       1
_space_group_crystal_system       triclinic
_cell_length_a                    10.606871
_cell_length_b                    12.433225
_cell_length_c                    13.230306
_cell_angle_alpha                 117.134527
_cell_angle_beta                  75.815427
_cell_angle_gamma                 100.836036
_cell_volume                      1499.51782677

loop_
_atom_site_label
_atom_site_type_symbol
_atom_type_description
_atom_site_fract_x
_atom_site_fract_y
_atom_site_fract_z
_atom_type_partial_charge
C1    C     C_R   0.511686 0.855126 0.286647 0.544750
C2    C     C_R   0.502559 0.565807 0.009569 0.031036
C3    C     C_R   0.461539 0.651469 0.124710 0.028200
C4    C     C_R   0.739954 0.000032 0.500877 0.568276
C5    C     C_R   0.459462 0.440897 0.977681 0.027210
C6    C     C_R   0.367536 0.405310 0.057333 0.050389
C7    C     C_R   0.317304 0.492835 0.165381 -0.142249
C8    C     C_R   0.361786 0.614146 0.197917 -0.119004
C9    C     C_R   0.505124 0.349865 0.868908 -0.135903
C10   C     C_R   0.366494 0.194674 0.916226 -0.140141
C11   C     C_R   0.520400 0.772603 0.162933 -0.003535
C12   C     C_3   0.017281 0.029671 0.608648 -0.118795
C13   C     C_R   0.692532 0.327252 0.309333 -0.148587
C14   C     C_R   0.326462 0.764019 0.651005 0.034432
C15   C     C_R   0.288885 0.670097 0.684506 -0.164119
C16   C     C_R   0.480922 0.145003 0.713577 0.532202
C17   C     C_R   0.353058 0.564464 0.626012 -0.136373
C18   C     C_R   0.456514 0.550304 0.531874 -0.048795
C19   C     C_R   0.493225 0.648887 0.498978 0.204481
C20   C     C_R   0.525250 0.442155 0.470216 -0.027152
C21   C     C_R   0.622349 0.429875 0.372094 0.001148
C22   C     C_R   0.653829 0.521305 0.337807 -0.155349
C23   C     C_3   0.932955 0.918671 0.536727 0.020134
C24   C     C_R   0.599229 0.631657 0.401773 0.256704
C25   C     C_R   0.503389 0.344222 0.500834 0.047940
C26   C     C_R   0.667558 0.235947 0.344681 0.048517
C27   C     C_R   0.260040 0.000595 0.500269 0.537042
C28   C     C_3   0.983652 0.971196 0.393908 -0.135229
C29   C     C_3   0.040838 0.889565 0.428655 -0.108774
C30   C     C_3   0.123469 0.001459 0.500253 0.038040
C31   C     C_3   0.068995 0.083078 0.465306 -0.119793
C32   C     C_3   0.960018 0.110895 0.573550 -0.138622
C33   C     C_3   0.860113 0.825313 0.579587 -0.379401
C34   C     C_3   0.876612 0.999135 0.502070 0.054663
C35   C     C_R   0.323890 0.282509 0.026773 -0.133338
C36   C     C_R   0.454718 0.228903 0.836125 -0.001933
C37   C     C_R   0.601242 0.811301 0.082426 -0.136803
C38   C     C_R   0.629731 0.730549 0.966921 -0.143263
C39   C     C_R   0.583618 0.608862 0.930725 -0.123111
Cu1   Cu    Cu3+1 0.529830 0.098270 0.475420 0.922840
Cu2   Cu    Cu3+1 0.470170 0.901730 0.524580 0.965519
H1    H     H_    0.076422 0.798991 0.369722 0.100241
H2    H     H_    0.430479 0.343131 0.573195 0.116710
H3    H     H_    0.276068 0.845779 0.697219 0.119844
H4    H     H_    0.967131 0.947347 0.306160 0.103594
H5    H     H_    0.318741 0.494680 0.655712 0.103234
H6    H     H_    0.209406 0.679185 0.756351 0.100657
H7    H     H_    0.127882 0.150785 0.435866 0.124581
H8    H     H_    0.924303 0.201325 0.632749 0.111105
H9    H     H_    0.033890 0.053153 0.696299 0.100847
H10   H     H_    0.326175 0.101341 0.891909 0.117321
H11   H     H_    0.242818 0.467499 0.225107 0.103922
H12   H     H_    0.578701 0.370545 0.806519 0.116996
H13   H     H_    0.253524 0.254985 0.087217 0.102784
H14   H     H_    0.730112 0.695458 0.302858 0.294485
H15   H     H_    0.929145 0.791391 0.607018 0.113195
H16   H     H_    0.781612 0.867371 0.654217 0.143270
H17   H     H_    0.817380 0.747750 0.509277 0.165709
H18   H     H_    0.645714 0.903653 0.109249 0.122447
H19   H     H_    0.610970 0.551732 0.839944 0.102681
H20   H     H_    0.691624 0.761669 0.905419 0.112692
H21   H     H_    0.314122 0.678269 0.280229 0.138448
H22   H     H_    0.719970 0.155446 0.296790 0.117014
H23   H     H_    0.730124 0.509500 0.262798 0.093487
H24   H     H_    0.767060 0.318247 0.234004 0.086847
N1    N     N_R   0.575030 0.246270 0.438190 -0.235090
N2    N     N_R   0.425760 0.754330 0.561190 -0.222740
O1    O     O_R   0.537510 0.972500 0.318130 -0.513395
O2    O     O_R   0.487140 0.806530 0.359650 -0.441913
O3    O     O_R   0.708330 0.082950 0.479220 -0.512108
O4    O     O_R   0.657960 0.916980 0.520740 -0.433800
O5    O     O_R   0.512860 0.193470 0.640350 -0.512208
O6    O     O_R   0.462490 0.027500 0.681870 -0.514643
O7    O     O_R   0.342040 0.083020 0.479260 -0.506770
O8    O     O_R   0.291670 0.917050 0.520780 -0.521836
O9    O     O_3   0.658712 0.722562 0.371099 -0.650863

loop_
_geom_bond_atom_site_label_1
_geom_bond_atom_site_label_2
_ccdc_geom_bond_type
C33   H17   S    
C29   H1    S    
C16   O5    A    
C15   H6    S    
C25   H2    S    
C4    O3    A    
C7    C8    A    
Cu2   N2    S    
C13   H24   S    
C12   C23   S    
C37   C38   A    
Cu1   O3    S    
C23   C29   S    
Cu2   O2    S    
C28   C29   S    
C7    H11   S    
C30   C31   S    
C20   C25   A    
C1    O1    A    
C6    C35   A    
C18   C19   A    
C11   C37   A    
C2    C39   A    
C23   C33   S    
C1    C11   S    
C9    C36   A    
C14   N2    A    
C19   N2    A    
C10   C35   A    
C27   O7    A    
Cu2   O4    S    
C38   H20   S    
C33   H15   S    
C28   C34   S    
Cu1   N1    S    
C21   C22   A    
C12   C32   S    
C27   C30   S    
C27   O8    A    
C10   H10   S    
C38   C39   A    
C4    C34   S    
C28   H4    S    
C16   O6    A    
C26   N1    A    
C17   H5    S    
C3    C8    A    
C24   O9    S    
Cu2   O6    S    
C1    O2    A    
C32   C34   S    
C26   H22   S    
C5    C9    A    
C29   C30   S    
Cu2   O8    S    
C31   C32   S    
C23   C34   S    
C17   C18   A    
C13   C21   A    
C37   H18   S    
H14   O9    S    
Cu1   Cu2   S    
C31   H7    S    
C22   C24   A    
C13   C26   A    
C2    C5    A    
C9    H12   S    
C14   H3    S    
C15   C17   A    
C33   H16   S    
Cu1   O5    S    
C12   C30   S    
C28   C31   S    
C25   N1    A    
C12   H9    S    
C6    C7    A    
C2    C3    A    
C16   C36   S    
C5    C6    A    
C39   H19   S    
Cu1   O7    S    
C19   C24   A    
C18   C20   A    
C32   H8    S    
C3    C11   A    
C22   H23   S    
C20   C21   A    
Cu1   O1    S    
C14   C15   A    
C10   C36   A    
C4    O4    A    
C8    H21   S    
C35   H13   S    
