data_mof_unit_1727.cif
_audit_creation_date              2012-12-10T16:51:18-0500
_audit_creation_method            fapswitch 2.2
_symmetry_space_group_name_H-M    P1
_symmetry_Int_Tables_number       1
_space_group_crystal_system       triclinic
_cell_length_a                    27.787402
_cell_length_b                    8.67058
_cell_length_c                    7.434431
_cell_angle_alpha                 102.956565
_cell_angle_beta                  94.141623
_cell_angle_gamma                 92.410098
_cell_volume                      1737.90848719

loop_
_atom_site_label
_atom_site_type_symbol
_atom_type_description
_atom_site_fract_x
_atom_site_fract_y
_atom_site_fract_z
_atom_type_partial_charge
C1    C     C_R   0.498541 0.199656 0.453208 0.892670
C2    C     C_R   0.501459 0.800344 0.546792 0.892669
C3    C     C_R   0.102116 0.498097 0.505329 -0.051235
C4    C     C_R   0.897884 0.502065 0.494661 -0.051235
C5    C     C_R   0.124948 0.354100 0.462777 -0.112846
C6    C     C_R   0.875050 0.646060 0.537202 -0.112857
C7    C     C_R   0.096924 0.212214 0.403954 -0.202578
C8    C     C_R   0.903073 0.787949 0.596012 -0.202572
C9    C     C_R   0.130704 0.641655 0.547935 0.000697
C10   C     C_R   0.869296 0.358503 0.452072 0.000682
C11   C     C_R   0.354628 0.498658 0.507537 -0.036470
C12   C     C_R   0.645372 0.501366 0.492468 -0.036455
C13   C     C_R   0.971440 0.354056 0.457686 0.088591
C14   C     C_R   0.028560 0.646110 0.542302 0.088597
C15   C     C_R   0.977456 0.647733 0.548155 -0.066502
C16   C     C_R   0.022543 0.352433 0.451824 -0.066507
C17   C     C_R   0.949160 0.501426 0.498413 -0.002616
C18   C     C_R   0.050839 0.498739 0.501572 -0.002616
C19   C     C_R   0.941626 0.213173 0.433574 -0.083568
C20   C     C_R   0.058375 0.786991 0.566429 -0.083585
C21   C     C_R   0.891656 0.215221 0.425384 -0.169538
C22   C     C_R   0.108345 0.784940 0.574629 -0.169550
C23   C     C_R   0.407493 0.499601 0.502493 0.798799
C24   C     C_R   0.592506 0.500401 0.497507 0.798814
C25   C     C_R   0.046813 0.210855 0.390885 0.581136
C26   C     C_R   0.953185 0.789312 0.609081 0.581139
C27   C     C_2   0.497841 0.031741 0.426797 -0.362746
C28   C     C_2   0.502159 0.968258 0.573203 -0.362743
C29   C     C_R   0.175597 0.355922 0.470696 0.573915
C30   C     C_R   0.824400 0.644231 0.529292 0.573945
C31   C     C_R   0.181234 0.638365 0.554281 0.548389
C32   C     C_R   0.818768 0.361788 0.445734 0.548395
C33   C     C_R   0.274712 0.475293 0.345496 -0.099530
C34   C     C_R   0.725284 0.524314 0.654470 -0.099564
C35   C     C_R   0.324738 0.476625 0.341811 -0.203568
C36   C     C_R   0.675257 0.522939 0.658151 -0.203501
C37   C     C_R   0.333485 0.519334 0.676973 -0.212153
C38   C     C_R   0.666522 0.481208 0.323081 -0.212096
C39   C     C_R   0.283327 0.518485 0.680214 -0.097758
C40   C     C_R   0.716681 0.482123 0.319846 -0.097745
C41   C     C_R   0.253928 0.496325 0.514424 0.356094
C42   C     C_R   0.746073 0.503810 0.485589 0.356205
Cu1   Cu    Cu3+1 0.505380 0.517380 0.684380 0.956755
Cu2   Cu    Cu3+1 0.494620 0.482620 0.315620 0.956757
H1    H     H_    0.355615 0.536448 0.806715 0.158295
H2    H     H_    0.644398 0.464462 0.193375 0.158223
H3    H     H_    0.462189 0.378028 0.948435 0.225692
H4    H     H_    0.537811 0.621971 0.051565 0.225682
H5    H     H_    0.113717 0.100963 0.359490 0.209307
H6    H     H_    0.886280 0.899198 0.640467 0.209300
H7    H     H_    0.660070 0.538832 0.790757 0.158409
H8    H     H_    0.339922 0.460326 0.209170 0.158455
H9    H     H_    0.747984 0.540653 0.782791 0.137518
H10   H     H_    0.252007 0.458592 0.217135 0.137616
H11   H     H_    0.870620 0.103425 0.402780 0.197248
H12   H     H_    0.129383 0.896734 0.597244 0.197255
H13   H     H_    0.493774 0.960052 0.285749 0.179871
H14   H     H_    0.506226 0.039948 0.714251 0.179874
N1    N     N_R   0.202505 0.496771 0.516737 -0.473822
N2    N     N_R   0.797495 0.503378 0.483270 -0.473842
N3    N     N_2   0.486510 0.456430 0.038510 -0.218375
N4    N     N_2   0.513490 0.543570 0.961490 -0.218379
O1    O     O_R   0.503500 0.286120 0.619780 -0.583081
O2    O     O_R   0.496500 0.713880 0.380220 -0.583083
O3    O     O_R   0.494410 0.256780 0.308360 -0.583353
O4    O     O_R   0.505590 0.743220 0.691640 -0.583353
O5    O     O_R   0.434810 0.514700 0.655690 -0.591734
O6    O     O_R   0.565190 0.485300 0.344310 -0.591728
O7    O     O_R   0.425720 0.485350 0.344280 -0.584661
O8    O     O_R   0.574280 0.514650 0.655720 -0.584663
O9    O     O_2   0.197820 0.218286 0.431767 -0.514114
O10   O     O_2   0.802174 0.781862 0.568227 -0.514073
O11   O     O_2   0.791098 0.224779 0.404556 -0.510648
O12   O     O_2   0.208904 0.775372 0.595465 -0.510689
H15   H     H_    0.267283 0.534877 0.811170 0.135988
H16   H     H_    0.732730 0.466139 0.188928 0.135865
H17   H     H_    0.955542 0.098777 0.428569 0.237287
H18   H     H_    0.044461 0.901390 0.571440 0.237280
F1    F     F_    0.023548 0.071258 0.301666 -0.675831
F2    F     F_    0.976448 0.928914 0.698286 -0.675846

loop_
_geom_bond_atom_site_label_1
_geom_bond_atom_site_label_2
_ccdc_geom_bond_type
C8    C26   A    
C14   C18   A    
C34   C42   A    
Cu1   O1    S    
C39   C41   A    
Cu2   O2    S    
C19   C21   A    
C9    C22   A    
C23   O5    A    
C33   H10   S    
C3    C18   A    
C19   H17   S    
C31   N1    A    
C11   C37   A    
C23   O7    A    
C29   N1    A    
C30   N2    A    
C1    O3    A    
C39   H15   S    
C12   C36   A    
C40   C42   A    
Cu2   O3    S    
C1    O1    A    
C2    O2    A    
C5    C29   A    
C10   C21   A    
C13   C19   A    
C24   O8    A    
C14   C20   A    
C7    H5    S    
C4    C6    A    
C27   H13   S    
C42   N2    S    
C32   O11   S    
C5    C7    A    
C24   O6    A    
C15   C26   A    
C6    C8    A    
C3    C5    A    
C26   F2    S    
C40   H16   S    
Cu1   Cu2   S    
C3    C9    A    
H4    N4    S    
Cu2   O7    S    
C41   N1    S    
C36   H7    S    
C4    C17   A    
Cu1   O5    S    
C6    C30   A    
C20   C22   A    
Cu1   O8    S    
Cu2   O6    S    
C32   N2    A    
C37   H1    S    
C8    H6    S    
C35   H8    S    
C21   H11   S    
C16   C25   A    
C15   C17   A    
C25   F1    S    
C30   O10   S    
C2    O4    A    
H3    N3    S    
C22   H12   S    
C28   H14   S    
Cu2   N3    S    
C12   C24   S    
C7    C25   A    
C20   H18   S    
C33   C41   A    
C11   C35   A    
C37   C39   A    
C38   C40   A    
Cu1   O4    S    
C11   C23   S    
C33   C35   A    
C34   C36   A    
C12   C38   A    
N3    N4    D    
C31   O12   S    
C38   H2    S    
C9    C31   A    
C13   C17   A    
C10   C32   A    
C34   H9    S    
C16   C18   A    
C13   C16   A    
C27   C28   D    
C1    C27   S    
C14   C15   A    
C2    C28   S    
C4    C10   A    
Cu1   N4    S    
C29   O9    S    
