data_mof_unit_722.cif
_audit_creation_date              2012-12-11T17:43:59-0500
_audit_creation_method            fapswitch 2.2
_symmetry_space_group_name_H-M    P1
_symmetry_Int_Tables_number       1
_space_group_crystal_system       triclinic
_cell_length_a                    20.244712
_cell_length_b                    22.706087
_cell_length_c                    6.94278
_cell_angle_alpha                 89.989056
_cell_angle_beta                  86.796651
_cell_angle_gamma                 90.000384
_cell_volume                      3186.45786574

loop_
_atom_site_label
_atom_site_type_symbol
_atom_type_description
_atom_site_fract_x
_atom_site_fract_y
_atom_site_fract_z
_atom_type_partial_charge
O1    O     O_R   0.751270 0.447300 0.600030 -0.543719
O2    O     O_R   0.248730 0.947300 0.399970 -0.543712
O3    O     O_R   0.613530 0.440160 0.952150 -0.536273
O4    O     O_R   0.386470 0.940160 0.047850 -0.536177
O5    O     O_R   0.613050 0.552700 0.122560 -0.533288
O6    O     O_R   0.386950 0.052700 0.877440 -0.533290
C1    C     C_R   0.591513 0.425379 0.787168 0.726912
C2    C     C_R   0.408479 0.925377 0.212884 0.726896
O7    O     O_R   0.750780 0.440350 0.929820 -0.545254
O8    O     O_R   0.249220 0.940350 0.070180 -0.545272
O9    O     O_R   0.751280 0.552900 0.100070 -0.542914
O10   O     O_R   0.248720 0.052900 0.899930 -0.542955
C3    C     C_R   0.773954 0.426152 0.757371 0.693747
C4    C     C_R   0.226044 0.926154 0.242646 0.693696
O11   O     O_R   0.613040 0.447100 0.622520 -0.533938
O12   O     O_R   0.386960 0.947100 0.377480 -0.533995
O13   O     O_3   0.682160 0.536920 0.777780 -0.365873
O14   O     O_3   0.317840 0.036920 0.222220 -0.365874
V1    V     V_3+5 0.682160 0.493150 0.052630 1.441427
V2    V     V_3+5 0.317840 0.993150 0.947370 1.441463
O15   O     O_R   0.750790 0.559840 0.429870 -0.543745
O16   O     O_R   0.249210 0.059840 0.570130 -0.543698
C5    C     C_R   0.773606 0.574390 0.257380 0.695870
C6    C     C_R   0.226395 0.074391 0.742603 0.695949
O17   O     O_R   0.613540 0.559650 0.452200 -0.533658
O18   O     O_R   0.386460 0.059650 0.547800 -0.533681
C7    C     C_R   0.591623 0.574442 0.287074 0.722042
C8    C     C_R   0.408374 0.074450 0.712880 0.722042
V3    V     V_3+5 0.682160 0.506850 0.552630 1.448298
V4    V     V_3+5 0.317840 0.006850 0.447370 1.448353
O19   O     O_3   0.682150 0.463080 0.277610 -0.370326
O20   O     O_3   0.317850 0.963080 0.722390 -0.370316
C9    C     C_R   0.580463 0.863023 0.143218 0.461555
C10   C     C_R   0.419807 0.362753 0.861571 0.461565
H1    H     H_    0.534939 0.947985 0.118669 0.157539
H2    H     H_    0.465371 0.447681 0.886317 0.157415
C11   C     C_R   0.463725 0.882865 0.210239 -0.118603
C12   C     C_R   0.536261 0.382859 0.790157 -0.118646
C13   C     C_R   0.472941 0.596920 0.326732 -0.200818
C14   C     C_R   0.526979 0.097052 0.670699 -0.200627
C15   C     C_R   0.419431 0.635326 0.332984 0.457672
C16   C     C_R   0.580452 0.135510 0.663328 0.457634
C17   C     C_R   0.429165 0.695534 0.302753 -0.192273
C18   C     C_R   0.570742 0.195673 0.694513 -0.192112
C19   C     C_R   0.493425 0.719321 0.265868 0.041946
C20   C     C_R   0.506547 0.219357 0.733560 0.041957
C21   C     C_R   0.547789 0.679283 0.257160 0.002718
C22   C     C_R   0.452233 0.179259 0.743560 0.002737
C23   C     C_R   0.505065 0.781201 0.235165 0.009534
C24   C     C_R   0.494936 0.281192 0.765239 0.009518
C25   C     C_R   0.571073 0.801895 0.187554 -0.068797
C26   C     C_R   0.429074 0.301743 0.815555 -0.068417
C27   C     C_R   0.624111 0.760549 0.186324 0.426739
C28   C     C_R   0.376048 0.260378 0.817750 0.426905
C29   C     C_R   0.611775 0.701026 0.219990 -0.220673
C30   C     C_R   0.388319 0.200911 0.782882 -0.220673
C31   C     C_R   0.452716 0.823218 0.250093 -0.180360
C32   C     C_R   0.547175 0.323295 0.748795 -0.180415
C33   C     C_R   0.527046 0.901941 0.154732 -0.207462
C34   C     C_R   0.473145 0.401744 0.848718 -0.206964
C35   C     C_R   0.537131 0.617913 0.288334 -0.135743
C36   C     C_R   0.462860 0.117938 0.711325 -0.135741
H3    H     H_    0.402446 0.811272 0.291221 0.110459
H4    H     H_    0.597296 0.311460 0.705524 0.110657
H5    H     H_    0.464419 0.550321 0.351414 0.156288
H6    H     H_    0.535476 0.050497 0.645068 0.156175
H7    H     H_    0.385106 0.722077 0.307242 0.146365
H8    H     H_    0.614773 0.222268 0.689072 0.146338
H9    H     H_    0.653715 0.671332 0.217155 0.138820
H10   H     H_    0.346393 0.171192 0.786529 0.138954
C37   C     C_R   0.170759 0.882745 0.260950 -0.047976
C38   C     C_R   0.829232 0.382738 0.739088 -0.047982
C39   C     C_R   0.142942 0.859223 0.096135 -0.203879
C40   C     C_R   0.857107 0.359255 0.903905 -0.203835
C41   C     C_R   0.090320 0.819081 0.113657 -0.118319
C42   C     C_R   0.909722 0.319107 0.886375 -0.118315
C43   C     C_R   0.064109 0.801374 0.297549 0.439797
C44   C     C_R   0.935866 0.301355 0.702473 0.439760
C45   C     C_R   0.092095 0.824670 0.461190 -0.155887
C46   C     C_R   0.907821 0.324611 0.538833 -0.155850
C47   C     C_R   0.144605 0.864816 0.443738 -0.188923
C48   C     C_R   0.855321 0.364763 0.556294 -0.188903
C49   C     C_R   0.907694 0.683078 0.386266 -0.103968
C50   C     C_R   0.092224 0.183013 0.613703 -0.104270
C51   C     C_R   0.855781 0.642225 0.403821 -0.182632
C52   C     C_R   0.144131 0.142157 0.596138 -0.182925
C53   C     C_R   0.933184 0.701498 0.202379 0.440889
C54   C     C_R   0.066836 0.201511 0.797600 0.440706
N1    N     N_2   0.010446 0.760643 0.325587 -0.289901
N2    N     N_2   0.989515 0.260615 0.674418 -0.289908
N3    N     N_2   0.986648 0.742435 0.174299 -0.289450
N4    N     N_2   0.013384 0.242455 0.825701 -0.289430
C55   C     C_R   0.828008 0.618647 0.239048 -0.042975
C56   C     C_R   0.171998 0.118652 0.760912 -0.043157
H11   H     H_    0.837681 0.628899 0.546924 0.134182
H12   H     H_    0.162151 0.128768 0.453032 0.134225
H13   H     H_    0.927764 0.699893 0.516629 0.139296
H14   H     H_    0.072077 0.199770 0.483341 0.139355
H15   H     H_    0.072909 0.811695 0.603647 0.126670
H16   H     H_    0.926953 0.311600 0.396371 0.126656
H17   H     H_    0.164577 0.881882 0.573975 0.133472
H18   H     H_    0.835302 0.381796 0.426053 0.133483
C57   C     C_R   0.853198 0.637511 0.056290 -0.159134
C58   C     C_R   0.146907 0.137591 0.943677 -0.158729
C59   C     C_R   0.905002 0.678370 0.038798 -0.133993
C60   C     C_R   0.095111 0.178454 0.961178 -0.133685
H19   H     H_    0.833072 0.620571 0.926107 0.132737
H20   H     H_    0.167109 0.120713 0.073862 0.132838
H21   H     H_    0.070392 0.802134 0.983264 0.139669
H22   H     H_    0.929698 0.302191 0.016767 0.139681
H23   H     H_    0.923595 0.691925 0.896352 0.124200
H24   H     H_    0.076598 0.192070 0.103630 0.124251
H25   H     H_    0.161650 0.871954 0.953015 0.133515
H26   H     H_    0.838450 0.372023 0.047028 0.133490
Cl1   Cl    Cl    0.709018 0.777949 0.155167 -0.510260
Cl2   Cl    Cl    0.291197 0.277751 0.851214 -0.510262
Cl3   Cl    Cl    0.655639 0.895838 0.059268 -0.448224
Cl4   Cl    Cl    0.345015 0.395209 0.950033 -0.448979
Cl5   Cl    Cl    0.339112 0.607700 0.379011 -0.533443
Cl6   Cl    Cl    0.660689 0.108009 0.614537 -0.533584

loop_
_geom_bond_atom_site_label_1
_geom_bond_atom_site_label_2
_ccdc_geom_bond_type
C10   Cl4   S    
C49   C53   A    
C9    Cl3   S    
C53   N3    S    
C13   H5    S    
C4    C37   S    
C51   C55   A    
O4    C2    A    
V1    O19   S    
C55   C57   A    
C58   C60   A    
C14   C36   A    
C13   C15   A    
C47   H17   S    
C44   N2    S    
C43   N1    S    
C40   C42   A    
C45   H15   S    
C42   C44   A    
O3    C1    A    
C44   C46   A    
O12   V4    S    
C40   H26   S    
C39   H25   S    
H1    C33   S    
C19   C21   A    
O7    C3    A    
C7    C35   S    
O5    C7    A    
N2    N4    D    
O7    V1    S    
O6    C8    A    
C54   N4    S    
C18   C20   A    
C23   C25   A    
C28   Cl2   S    
C24   C26   A    
O3    V1    S    
O14   V4    S    
N1    N3    D    
C52   C56   A    
C27   C29   A    
C59   H23   S    
C56   C58   A    
C9    C33   A    
C14   H6    S    
C46   H16   S    
C10   C34   A    
C15   C17   A    
C16   C18   A    
O18   C8    A    
C26   C28   A    
C54   C60   A    
O11   V3    S    
C20   C22   A    
C43   C45   A    
O17   V3    S    
C13   C35   A    
C28   C30   A    
C41   H21   S    
C24   C32   A    
C46   C48   A    
O8    C4    A    
O8    V2    S    
C37   C39   A    
C60   H24   S    
C1    O11   A    
C32   H4    S    
O15   V3    S    
C9    C25   A    
C5    C55   S    
C25   C27   A    
C17   H7    S    
C6    C56   S    
C17   C19   A    
C22   C36   A    
C53   C59   A    
C19   C23   A    
O9    V1    S    
O10   V2    S    
O1    V3    S    
C48   H18   S    
C57   C59   A    
C12   C32   A    
C15   Cl5   S    
C41   C43   A    
C11   C33   A    
C52   H12   S    
C12   C34   A    
C38   C40   A    
C49   C51   A    
O18   V4    S    
C30   H10   S    
O15   C5    A    
O16   C6    A    
C18   H8    S    
O1    C3    A    
C2    C11   S    
C39   C41   A    
C58   H20   S    
C21   C29   A    
V2    O20   S    
C22   C30   A    
O10   C6    A    
O16   V4    S    
C10   C26   A    
C50   C54   A    
C31   H3    S    
C50   C52   A    
C14   C16   A    
H2    C34   S    
C21   C35   A    
C23   C31   A    
O5    V1    S    
C3    C38   S    
O17   C7    A    
O6    V2    S    
C20   C24   A    
C45   C47   A    
C42   H22   S    
O2    V4    S    
C50   H14   S    
C29   H9    S    
V3    O19   S    
O13   V3    S    
V4    O20   S    
C51   H11   S    
C16   Cl6   S    
O9    C5    A    
O13   V1    S    
C1    C12   S    
O14   V2    S    
O2    C4    A    
C38   C48   A    
O4    V2    S    
C2    O12   A    
C49   H13   S    
C57   H19   S    
C11   C31   A    
C27   Cl1   S    
C37   C47   A    
C8    C36   S    
