data_mof_unit_1213.cif
_audit_creation_date              2012-12-10T17:03:39-0500
_audit_creation_method            fapswitch 2.2
_symmetry_space_group_name_H-M    P1
_symmetry_Int_Tables_number       1
_space_group_crystal_system       triclinic
_cell_length_a                    10.074381
_cell_length_b                    10.731701
_cell_length_c                    13.092668
_cell_angle_alpha                 90.503097
_cell_angle_beta                  71.577332
_cell_angle_gamma                 89.721969
_cell_volume                      1342.87807947

loop_
_atom_site_label
_atom_site_type_symbol
_atom_type_description
_atom_site_fract_x
_atom_site_fract_y
_atom_site_fract_z
_atom_type_partial_charge
C1    C     C_R   0.499685 0.736993 0.500094 0.769414
C2    C     C_R   0.445851 0.582748 0.975806 0.102680
C3    C     C_R   0.485825 0.591070 0.863833 -0.046902
C4    C     C_R   0.550123 0.553508 0.023078 -0.190064
C5    C     C_R   0.693423 0.556121 0.959825 -0.340631
C6    C     C_R   0.730160 0.599941 0.854266 0.664069
C7    C     C_R   0.625300 0.625813 0.808337 0.112519
C8    C     C_R   0.515559 0.513394 0.129140 0.553098
C9    C     C_R   0.760651 0.496648 0.114846 0.441206
C10   C     C_R   0.383435 0.568524 0.813006 -0.187986
C11   C     C_2   0.622591 0.061648 0.475669 0.091965
C12   C     C_R   0.424724 0.520224 0.701465 0.914879
C13   C     C_2   0.515617 0.132637 0.467614 0.513345
C14   C     C_2   0.615541 0.929327 0.456765 -0.308756
C15   C     C_2   0.497918 0.868529 0.506274 0.540093
C16   C     C_2   0.099022 0.426200 0.440515 0.065986
C17   C     C_2   0.944358 0.410222 0.461433 0.054384
C18   C     C_R   0.502810 0.262548 0.494977 0.787795
C19   C     C_R   0.576438 0.495945 0.295893 0.960321
C20   C     C_R   0.796502 0.518813 0.004814 0.647841
C21   C     C_R   0.619646 0.500026 0.178375 -0.409415
C22   C     C_R   0.242445 0.590445 0.871725 -0.113199
C23   C     C_R   0.204790 0.622804 0.981419 0.274061
C24   C     C_R   0.304886 0.610018 0.034600 -0.144879
H1    H     H_    0.709744 0.879880 0.409612 0.139347
H2    H     H_    0.171244 0.373050 0.375459 0.139935
H3    H     H_    0.908736 0.321355 0.440564 0.130161
H4    H     H_    0.163482 0.585354 0.831893 0.258131
H5    H     H_    0.273265 0.630173 0.119970 0.183245
N1    N     N_2   0.148270 0.498670 0.498870 0.138935
N2    N     N_2   0.852610 0.498640 0.498840 0.004239
O1    O     O_R   0.386950 0.680940 0.500020 -0.567698
O2    O     O_R   0.613110 0.680900 0.499980 -0.640022
O3    O     O_R   0.330780 0.500000 0.653640 -0.551168
O4    O     O_R   0.556930 0.499960 0.653610 -0.590470
O5    O     O_R   0.386890 0.319100 0.500020 -0.558646
O6    O     O_R   0.613050 0.319060 0.499980 -0.647614
O7    O     O_R   0.443070 0.500040 0.346390 -0.573784
O8    O     O_R   0.669220 0.500000 0.346360 -0.583692
Zn1   Zn    Zn3+2 0.349000 0.500030 0.500020 1.122946
Zn2   Zn    Zn3+2 0.651000 0.499970 0.499980 0.998202
F1    F     F_    0.862837 0.468664 0.158259 -0.624781
F2    F     F_    0.419833 0.085424 0.423907 -0.621555
F3    F     F_    0.381170 0.925896 0.572907 -0.625171
F4    F     F_    0.062317 0.515541 0.599622 -0.528417
N3    N     N_2   0.900993 0.620024 0.480381 -0.208841
H6    H     H_    0.954470 0.656612 0.528447 0.278334
C25   C     C_3   0.943852 0.661714 0.369787 -0.685321
H7    H     H_    0.966494 0.762970 0.367658 0.203210
H8    H     H_    0.859418 0.647201 0.333861 0.279156
H9    H     H_    0.039849 0.611745 0.320851 0.229004
F5    F     F_    0.865822 0.624640 0.798529 -0.608810
F6    F     F_    0.930916 0.501471 0.942152 -0.585429
F7    F     F_    0.382443 0.477705 0.182245 -0.659433
N4    N     N_2   0.066071 0.662271 0.039560 -0.235362
H10   H     H_    0.043610 0.664887 0.122067 0.239959
C26   C     C_3   0.017544 0.772768 0.999093 -0.694801
H11   H     H_    0.907885 0.793689 0.048619 0.224105
H12   H     H_    0.019385 0.758391 0.914603 0.290864
H13   H     H_    0.083957 0.853645 0.003734 0.226418
N5    N     N_2   0.655381 0.704646 0.716854 -0.261397
H14   H     H_    0.759888 0.710445 0.673560 0.278532
C27   C     C_3   0.590406 0.826755 0.739952 -0.752873
H15   H     H_    0.625953 0.885330 0.667322 0.242959
H16   H     H_    0.620643 0.873626 0.805283 0.241646
H17   H     H_    0.474747 0.819285 0.763859 0.260168
N6    N     N_2   0.729102 0.109424 0.516115 -0.319369
H18   H     H_    0.691972 0.139921 0.595084 0.241054
C28   C     C_3   0.860942 0.042417 0.489701 -0.728450
H19   H     H_    0.936496 0.097531 0.517201 0.259821
H20   H     H_    0.905304 0.028598 0.401168 0.249009
H21   H     H_    0.846589 0.950872 0.530557 0.241905

loop_
_geom_bond_atom_site_label_1
_geom_bond_atom_site_label_2
_ccdc_geom_bond_type
C28   H21   S    
C2    C4    A    
N4    H10   S    
C27   H16   S    
C18   O5    A    
C23   N4    S    
C6    C7    A    
C1    C15   S    
C19   O7    A    
C9    C20   A    
C20   F6    S    
C14   C15   D    
C4    C8    A    
C23   C24   A    
O2    Zn2   S    
C25   H8    S    
C2    C3    A    
C9    F1    S    
C27   H17   S    
N1    Zn1   S    
O8    Zn2   S    
C3    C10   A    
C22   H4    S    
C10   C22   A    
C12   O4    A    
O7    Zn1   S    
C11   C13   D    
C9    C21   A    
C26   H11   S    
C28   H19   S    
C10   C12   S    
C13   C18   S    
O3    Zn1   S    
C5    C6    A    
C19   O8    A    
C25   H7    S    
C19   C21   S    
C18   O6    A    
C11   N6    S    
C15   F3    S    
C8    C21   A    
C3    C7    A    
N4    C26   S    
C14   H1    S    
O6    Zn2   S    
N5    H14   S    
O4    Zn2   S    
C11   C14   S    
N3    C25   S    
C26   H12   S    
C28   H20   S    
C1    O1    A    
N6    C28   S    
C1    O2    A    
C27   H15   S    
C17   H3    S    
C24   H5    S    
C13   F2    S    
O1    Zn1   S    
N5    C27   S    
C8    F7    S    
C5    C20   A    
C22   C23   A    
C16   C17   S    
O5    Zn1   S    
N1    F4    S    
C2    C24   A    
N2    Zn2   S    
C12   O3    A    
C6    F5    S    
N3    H6    S    
C16   N1    D    
N2    N3    S    
C25   H9    S    
C7    N5    S    
C17   N2    D    
N6    H18   S    
C4    C5    A    
C26   H13   S    
C16   H2    S    
