data_mof_unit_825.cif
_audit_creation_date              2012-12-11T16:08:39-0500
_audit_creation_method            fapswitch 2.2
_symmetry_space_group_name_H-M    P1
_symmetry_Int_Tables_number       1
_space_group_crystal_system       triclinic
_cell_length_a                    12.887924
_cell_length_b                    13.280513
_cell_length_c                    27.806316
_cell_angle_alpha                 94.323033
_cell_angle_beta                  90.505117
_cell_angle_gamma                 119.259917
_cell_volume                      4134.53072541

loop_
_atom_site_label
_atom_site_type_symbol
_atom_type_description
_atom_site_fract_x
_atom_site_fract_y
_atom_site_fract_z
_atom_type_partial_charge
C1    C     C_R   0.628036 0.895606 0.427243 0.539344
C2    C     C_R   0.591770 0.351380 0.229814 -0.116860
C3    C     C_R   0.583661 0.337413 0.279147 -0.121093
C4    C     C_R   0.669164 0.322454 0.304278 0.062170
C5    C     C_R   0.684785 0.349393 0.204937 0.012994
C6    C     C_1   0.695341 0.370243 0.154639 -0.066389
C7    C     C_1   0.652798 0.298618 0.354278 -0.020693
C8    C     C_1   0.704399 0.396009 0.113598 -0.023831
C9    C     C_R   0.141832 0.743666 0.355855 0.088234
C10   C     C_R   0.120314 0.733011 0.305650 0.030772
C11   C     C_R   0.103555 0.717650 0.205044 0.007577
C12   C     C_R   0.601118 0.222245 0.440475 0.548197
C13   C     C_R   0.072678 0.618632 0.228857 -0.127229
C14   C     C_R   0.079565 0.625792 0.278670 -0.135350
C15   C     C_R   0.095045 0.707563 0.155390 -0.147103
C16   C     C_R   0.111664 0.800836 0.130056 -0.004734
C17   C     C_R   0.212875 0.950548 0.357667 -0.163276
C18   C     C_R   0.184666 0.940878 0.308279 -0.006537
C19   C     C_R   0.147388 0.833314 0.281614 0.009595
C20   C     C_R   0.204579 0.038998 0.284493 0.109145
C21   C     C_R   0.209133 0.034357 0.233543 0.146609
C22   C     C_R   0.169032 0.925559 0.206199 0.052829
C23   C     C_R   0.267111 0.876063 0.426274 0.572958
C24   C     C_R   0.138984 0.825704 0.230954 -0.000069
C25   C     C_R   0.152385 0.911705 0.154944 0.089377
C26   C     C_R   0.199637 0.854746 0.380506 0.029242
C27   C     C_R   0.743373 0.946920 0.355198 -0.144261
C28   C     C_R   0.748168 0.935588 0.305620 -0.022896
C29   C     C_R   0.748125 0.924092 0.204408 0.045147
C30   C     C_R   0.832585 0.026152 0.232804 0.113352
C31   C     C_R   0.832141 0.029512 0.282768 -0.070923
C32   C     C_R   0.744125 0.914360 0.153487 0.264078
C33   C     C_R   0.680485 0.803648 0.127958 -0.004983
C34   C     C_R   0.628039 0.898214 0.564583 0.535912
C35   C     C_R   0.574326 0.751425 0.353334 0.095203
C36   C     C_R   0.580324 0.737162 0.302520 0.070470
C37   C     C_R   0.665255 0.832619 0.278739 -0.017188
C38   C     C_R   0.500511 0.632994 0.274295 0.295027
C39   C     C_R   0.509194 0.624939 0.224193 -0.117140
C40   C     C_R   0.589748 0.720429 0.201024 -0.047715
C41   C     C_R   0.667431 0.825911 0.228035 -0.018455
C42   C     C_R   0.598514 0.709241 0.151317 -0.180414
C43   C     C_R   0.651639 0.860348 0.378914 -0.011648
C44   C     C_R   0.753768 0.323977 0.649733 0.264900
C45   C     C_R   0.604037 0.227970 0.578192 0.561239
C46   C     C_R   0.775277 0.371799 0.698376 -0.018875
C47   C     C_R   0.804155 0.441328 0.798137 -0.005420
C48   C     C_R   0.899345 0.442156 0.773178 0.259098
C49   C     C_R   0.884984 0.409873 0.723359 -0.089118
C50   C     C_R   0.814596 0.468877 0.848068 -0.156744
C51   C     C_R   0.720865 0.470335 0.872646 -0.033723
C52   C     C_R   0.561162 0.316423 0.649130 -0.175893
C53   C     C_R   0.575367 0.348305 0.697884 -0.026134
C54   C     C_R   0.682438 0.376922 0.723043 -0.022469
C55   C     C_R   0.479075 0.342821 0.721958 -0.130170
C56   C     C_R   0.271811 0.879183 0.563457 0.547722
C57   C     C_R   0.487297 0.366169 0.771588 0.106013
C58   C     C_R   0.598622 0.407720 0.797223 0.070655
C59   C     C_R   0.695330 0.408964 0.772879 -0.051844
C60   C     C_R   0.616314 0.450868 0.845967 0.114644
C61   C     C_R   0.644658 0.295450 0.625346 0.014487
C62   C     C_1   0.221179 0.861310 0.609969 -0.001791
C63   C     C_R   0.263842 0.912627 0.735679 -0.140047
C64   C     C_R   0.248239 0.903634 0.785135 -0.119291
C65   C     C_R   0.040975 0.759175 0.767942 -0.058099
C66   C     C_R   0.055848 0.767436 0.717992 0.127709
C67   C     C_1   0.633318 0.270264 0.394867 0.000232
C68   C     C_R   0.168704 0.844404 0.701940 0.065842
C69   C     C_R   0.137100 0.826374 0.801376 0.030180
C70   C     C_1   0.120531 0.813719 0.852212 -0.036487
C71   C     C_1   0.191639 0.851499 0.651192 -0.020282
C72   C     C_1   0.098176 0.796823 0.893854 -0.005528
C73   C     C_1   0.648008 0.862221 0.609306 -0.012732
C74   C     C_R   0.682072 0.908399 0.735418 0.298968
C75   C     C_R   0.694749 0.891303 0.784228 -0.091476
C76   C     C_R   0.691694 0.710749 0.759684 -0.135039
C77   C     C_R   0.680865 0.727160 0.711301 -0.165285
C78   C     C_R   0.764032 0.321544 0.279667 0.127526
C79   C     C_R   0.676540 0.825524 0.699165 0.055447
C80   C     C_R   0.697823 0.792296 0.796129 -0.003034
C81   C     C_1   0.711327 0.776981 0.845939 -0.065660
C82   C     C_1   0.662312 0.841136 0.649380 -0.015944
C83   C     C_1   0.725475 0.766335 0.887712 -0.035305
C84   C     C_R   0.063016 0.771156 0.079897 0.542808
C85   C     C_R   0.717074 0.441137 0.067408 0.556922
C86   C     C_R   0.719585 0.782448 0.080788 0.569613
C87   C     C_R   0.055939 0.766112 0.941039 0.527834
C88   C     C_R   0.732615 0.491891 0.925792 0.536137
C89   C     C_R   0.771148 0.335300 0.229825 -0.086074
C90   C     C_R   0.748499 0.755732 0.937003 0.529792
Cr1   Cr    Cr6+3 0.416430 0.829200 0.492370 1.036181
Cr2   Cr    Cr6+3 0.674630 0.087020 0.504170 1.049166
Cr3   Cr    Cr6+3 0.408920 0.083740 0.503490 1.022891
Cr4   Cr    Cr6+3 0.914010 0.832750 0.013970 1.032852
Cr5   Cr    Cr6+3 0.922310 0.578600 0.003000 1.018766
Cr6   Cr    Cr6+3 0.656280 0.574630 0.003870 1.024769
H1    H     H_    0.258289 0.035294 0.377477 0.157020
H2    H     H_    0.805755 0.029036 0.374745 0.146719
H3    H     H_    0.897175 0.107741 0.303968 0.139860
H4    H     H_    0.546807 0.624943 0.131335 0.142165
H5    H     H_    0.451675 0.543216 0.203299 0.116486
H6    H     H_    0.843886 0.335488 0.210515 0.093458
H7    H     H_    0.896030 0.489216 0.868078 0.187958
H8    H     H_    0.959840 0.413633 0.704558 0.165094
H9    H     H_    0.394430 0.313977 0.702568 0.108926
H10   H     H_    0.477818 0.296766 0.630840 0.148356
H11   H     H_    0.350943 0.971919 0.723629 0.109618
H12   H     H_    0.525556 0.364076 0.211066 0.123211
H13   H     H_    0.323049 0.956051 0.810615 0.117448
H14   H     H_    0.954817 0.699868 0.780781 0.112091
H15   H     H_    0.703989 0.955037 0.813065 0.105461
H16   H     H_    0.696268 0.635124 0.768647 0.121995
H17   H     H_    0.675965 0.663297 0.683369 0.122352
H18   H     H_    0.509854 0.337147 0.297639 0.162036
H19   H     H_    0.064687 0.622429 0.136676 0.142954
H20   H     H_    0.043549 0.535168 0.208845 0.101728
H21   H     H_    0.056864 0.547307 0.295459 0.095144
O1    O     O_R   0.296680 0.802170 0.437540 -0.481213
O2    O     O_R   0.662610 0.183990 0.557860 -0.460524
O3    O     O_R   0.500730 0.201280 0.562180 -0.533735
O4    O     O_R   0.312500 0.978850 0.548170 -0.500608
O5    O     O_3   0.499990 0.999990 0.500010 -0.251987
O6    O     O_R   0.820790 0.857990 0.068830 -0.454882
O7    O     O_R   0.016700 0.827330 0.062850 -0.503039
O8    O     O_R   0.041970 0.673520 0.060040 -0.517383
O9    O     O_R   0.817980 0.483660 0.048840 -0.490323
O10   O     O_R   0.637200 0.461990 0.052510 -0.500600
O11   O     O_R   0.664790 0.681920 0.057970 -0.508266
O12   O     O_R   0.525380 0.838530 0.443500 -0.512315
O13   O     O_R   0.815840 0.852920 0.961840 -0.489909
O14   O     O_R   0.012100 0.822630 0.963670 -0.512204
O15   O     O_R   0.037010 0.668460 0.953040 -0.511492
O16   O     O_R   0.813390 0.478970 0.949660 -0.497730
O17   O     O_R   0.632250 0.456930 0.945520 -0.487752
O18   O     O_R   0.660200 0.677230 0.958780 -0.526086
O19   O     O_3   0.830870 0.661990 0.006950 -0.289110
O20   O     O_R   0.702130 0.995190 0.446810 -0.516677
O21   O     O_R   0.661770 0.181390 0.458760 -0.488805
O22   O     O_R   0.499820 0.198480 0.455280 -0.508274
O23   O     O_R   0.311660 0.976250 0.449080 -0.517647
O24   O     O_R   0.297580 0.804960 0.544440 -0.494808
O25   O     O_R   0.526220 0.841130 0.542590 -0.491218
O26   O     O_R   0.703030 0.997990 0.553710 -0.525569
N1    N     N_3   0.850887 0.304468 0.305167 -0.635498
H22   H     H_    0.914463 0.305733 0.281747 0.225001
H23   H     H_    0.896329 0.375116 0.330978 0.217402
N2    N     N_3   0.258696 0.139834 0.209652 -0.585482
H24   H     H_    0.335105 0.148312 0.193393 0.240279
H25   H     H_    0.289773 0.213860 0.233757 0.244112
N3    N     N_3   0.219921 0.143358 0.311312 -0.629629
H26   H     H_    0.179480 0.124199 0.344244 0.219886
H27   H     H_    0.167105 0.170343 0.293571 0.236038
O27   O     O_3   0.810173 0.010380 0.128576 -0.567382
C91   C     C_3   0.732453 0.045704 0.109577 -0.122435
H28   H     H_    0.685321 0.066616 0.138699 0.109997
H29   H     H_    0.667084 0.978878 0.082058 0.125743
H30   H     H_    0.785870 0.125784 0.091445 0.146298
N4    N     N_3   0.924129 0.126169 0.212856 -0.638559
H31   H     H_    0.974736 0.101638 0.190779 0.289309
H32   H     H_    0.885490 0.164775 0.193406 0.258401
O28   O     O_3   0.418397 0.536152 0.295462 -0.536359
C92   C     C_3   0.303584 0.521602 0.286691 -0.116288
H33   H     H_    0.273825 0.495133 0.247925 0.108812
H34   H     H_    0.299706 0.601579 0.298757 0.118855
H35   H     H_    0.239792 0.451332 0.307753 0.143678
N5    N     N_3   0.489887 0.656409 0.378311 -0.556822
H36   H     H_    0.531770 0.649908 0.409372 0.232506
H37   H     H_    0.419232 0.670293 0.387601 0.255178
O29   O     O_3   0.837485 0.304540 0.626226 -0.564840
C93   C     C_3   0.829329 0.201056 0.640464 -0.069163
H38   H     H_    0.736099 0.127850 0.637191 0.169412
H39   H     H_    0.866137 0.212928 0.677997 0.119148
H40   H     H_    0.883103 0.176437 0.616455 0.154058
O30   O     O_3   0.008542 0.480240 0.797051 -0.567554
C94   C     C_3   0.022667 0.383376 0.803880 -0.120945
H41   H     H_    0.948323 0.318835 0.823908 0.116483
H42   H     H_    0.106386 0.413228 0.825915 0.156393
H43   H     H_    0.030584 0.341817 0.768889 0.110474
N6    N     N_3   0.530517 0.479990 0.866282 -0.542222
H44   H     H_    0.567456 0.541438 0.895202 0.253728
H45   H     H_    0.515069 0.528178 0.841958 0.225710
N7    N     N_3   0.380126 0.339972 0.795698 -0.595081
H46   H     H_    0.343306 0.387054 0.781583 0.221867
H47   H     H_    0.319501 0.251795 0.787817 0.231306
N8    N     N_3   0.958076 0.697067 0.683670 -0.609749
H48   H     H_    0.935870 0.752477 0.667011 0.226039
H49   H     H_    0.882910 0.641078 0.701398 0.224136
O31   O     O_3   0.683835 0.007622 0.721037 -0.598087
C95   C     C_3   0.627812 0.050824 0.753259 -0.144741
H50   H     H_    0.690135 0.105278 0.784172 0.121562
H51   H     H_    0.543616 0.980411 0.765915 0.119038
H52   H     H_    0.604341 0.107684 0.733970 0.143140
N9    N     N_3   0.112328 0.644242 0.381819 -0.606430
H53   H     H_    0.021119 0.586195 0.376244 0.224382
H54   H     H_    0.160330 0.604225 0.368768 0.222336
N10   N     N_3   0.171150 0.007997 0.128817 -0.597147
H55   H     H_    0.088851 0.998689 0.118016 0.277503
H56   H     H_    0.220164 0.010981 0.098664 0.228903

loop_
_geom_bond_atom_site_label_1
_geom_bond_atom_site_label_2
_ccdc_geom_bond_type
C66   C68   A    
C27   H2    S    
C16   C25   A    
C89   H6    S    
C11   C13   A    
O29   C93   S    
C35   C36   A    
Cr5   O9    S    
C16   C84   S    
Cr2   O21   S    
C23   O1    A    
O28   C92   S    
C57   C58   A    
C94   H42   S    
C53   C54   A    
C60   N6    S    
C46   C49   A    
Cr4   O13   S    
C55   H9    S    
C33   C42   A    
C21   N2    S    
C22   C24   A    
C36   C37   A    
N2    H25   S    
Cr2   O2    S    
Cr3   O4    S    
C88   O16   A    
C8    C85   S    
C29   C32   A    
C1    O12   A    
C52   C61   A    
C5    C6    S    
O30   C94   S    
C9    N9    S    
N10   H55   S    
N8    H49   S    
C93   H38   S    
C58   C60   A    
C15   C16   A    
C11   C24   A    
Cr5   O16   S    
C35   N5    S    
Cr6   O11   S    
C18   C19   A    
C23   C26   S    
C87   O14   A    
C95   H51   S    
Cr2   O26   S    
C44   O29   S    
N7    H46   S    
C11   C15   A    
C1    C43   S    
C38   O28   S    
C34   O25   A    
N2    H24   S    
N9    H54   S    
Cr1   O5    S    
Cr4   O19   S    
N4    H31   S    
Cr3   O3    S    
C31   H3    S    
Cr6   O18   S    
C35   C43   A    
C75   C80   A    
C91   H29   S    
Cr1   O25   S    
Cr4   O6    S    
C45   O2    A    
C40   C42   A    
C52   H10   S    
C50   H7    S    
C21   C22   A    
N5    H37   S    
C85   O9    A    
C69   C70   S    
C49   H8    S    
C4    C7    S    
C77   H17   S    
Cr2   O20   S    
C57   N7    S    
C81   C83   T    
C44   C46   A    
C9    C26   A    
C39   H5    S    
C47   C50   A    
C92   H34   S    
C54   C59   A    
C53   C55   A    
C78   C89   A    
C12   C67   S    
C34   O26   A    
Cr1   O1    S    
C74   C75   A    
C42   H4    S    
C86   O11   A    
C13   H20   S    
C47   C48   A    
C23   O23   A    
C77   C79   A    
C76   C77   A    
C91   H30   S    
Cr6   O19   S    
C10   C14   A    
C39   C40   A    
C94   H43   S    
N1    H22   S    
C12   O21   A    
Cr6   O17   S    
C50   C51   A    
C58   C59   A    
C47   C59   A    
C22   C25   A    
C45   C61   S    
C63   C64   A    
Cr6   O10   S    
O31   C95   S    
C87   O15   A    
C95   H52   S    
C33   C86   S    
C4    C78   A    
C29   C30   A    
Cr3   O22   S    
N3    H27   S    
Cr2   O5    S    
C92   H35   S    
Cr5   O8    S    
C94   H41   S    
C10   C19   A    
C76   H16   S    
C14   H21   S    
C46   C54   A    
C17   C18   A    
C12   O22   A    
C64   C69   A    
Cr3   O5    S    
C91   H28   S    
C25   N10   S    
C48   O30   S    
C56   O24   A    
C45   O3    A    
N1    H23   S    
C40   C41   A    
C86   O6    A    
C78   N1    S    
C64   H13   S    
C74   C79   A    
C55   C57   A    
C74   O31   S    
N5    H36   S    
C56   C62   S    
C85   O10   A    
C2    C5    A    
C17   C26   A    
C63   H11   S    
C3    C4    A    
C73   C82   T    
Cr5   O15   S    
C72   C87   S    
C1    O20   A    
C52   C53   A    
C15   H19   S    
C92   H33   S    
C9    C10   A    
C84   O8    A    
C30   N4    S    
C83   C90   S    
C63   C68   A    
C48   C49   A    
C29   C41   A    
C28   C31   A    
C76   C80   A    
C80   C81   S    
C3    H18   S    
C51   C88   S    
C79   C82   S    
C6    C8    T    
Cr1   O12   S    
C44   C61   A    
C84   O7    A    
C75   H15   S    
Cr4   O14   S    
C32   C33   A    
C36   C38   A    
C19   C24   A    
C88   O17   A    
Cr3   O23   S    
C56   O4    A    
C90   O18   A    
N4    H32   S    
C30   C31   A    
N8    H48   S    
C38   C39   A    
C93   H39   S    
C28   C37   A    
C68   C71   S    
C65   C69   A    
C2    H12   S    
Cr5   O19   S    
C20   N3    S    
C62   C71   T    
C2    C3    A    
C18   C20   A    
C65   C66   A    
C37   C41   A    
C95   H50   S    
N7    H47   S    
C65   H14   S    
N10   H56   S    
C34   C73   S    
C7    C67   T    
C32   O27   S    
C90   O13   A    
C27   C43   A    
C20   C21   A    
N9    H53   S    
C66   N8    S    
C27   C28   A    
N6    H44   S    
N3    H26   S    
C70   C72   T    
C51   C60   A    
Cr1   O24   S    
O27   C91   S    
C13   C14   A    
C17   H1    S    
C5    C89   A    
N6    H45   S    
C93   H40   S    
Cr4   O7    S    
