data_mof_unit_1258.cif
_audit_creation_date              2012-12-11T14:21:02-0500
_audit_creation_method            fapswitch 2.2
_symmetry_space_group_name_H-M    P1
_symmetry_Int_Tables_number       1
_space_group_crystal_system       triclinic
_cell_length_a                    22.019711
_cell_length_b                    7.201291
_cell_length_c                    14.820622
_cell_angle_alpha                 89.999426
_cell_angle_beta                  106.896322
_cell_angle_gamma                 89.999924
_cell_volume                      2248.66214056

loop_
_atom_site_label
_atom_site_type_symbol
_atom_type_description
_atom_site_fract_x
_atom_site_fract_y
_atom_site_fract_z
_atom_type_partial_charge
O1    O     O_R   0.584770 0.505770 0.002090 -0.553292
O2    O     O_R   0.415230 0.005770 0.997910 -0.553294
O3    O     O_R   0.467060 0.173340 0.861950 -0.532779
O4    O     O_R   0.532940 0.673340 0.138050 -0.532775
C1    C     C_R   0.454602 0.343909 0.825519 0.769869
C2    C     C_R   0.545398 0.843907 0.174481 0.769868
O5    O     O_R   0.587510 0.175890 0.993210 -0.505773
O6    O     O_R   0.412490 0.675890 0.006790 -0.505771
O7    O     O_R   0.536540 0.008150 0.130100 -0.533977
O8    O     O_R   0.463460 0.508150 0.869900 -0.533976
C3    C     C_R   0.612476 0.344470 0.995143 0.772098
C4    C     C_R   0.387524 0.844470 0.004857 0.772096
O9    O     O_3   0.483140 0.340040 0.044760 -0.378598
O10   O     O_3   0.516860 0.840040 0.955240 -0.378600
V1    V     V_3+5 0.503130 0.064190 0.991700 1.552414
V2    V     V_3+5 0.496870 0.564190 0.008300 1.552424
C5    C     C_2   0.212055 0.736717 0.990945 -0.105589
C6    C     C_2   0.787946 0.236716 0.009058 -0.105590
C7    C     C_2   0.175942 0.889699 0.980991 -0.362935
C8    C     C_2   0.824058 0.389699 0.019010 -0.362936
H1    H     H_    0.193252 0.603727 0.004718 0.182967
H2    H     H_    0.806749 0.103727 0.995286 0.182973
H3    H     H_    0.193342 0.019049 0.960262 0.146036
H4    H     H_    0.806657 0.519049 0.039738 0.146038
C9    C     C_2   0.275770 0.738468 0.975536 0.362049
C10   C     C_2   0.724230 0.238468 0.024466 0.362050
C11   C     C_2   0.323923 0.855356 0.021180 -0.077676
C12   C     C_2   0.676077 0.355356 0.978820 -0.077684
C13   C     C_R   0.925446 0.881969 0.722888 -0.080370
C14   C     C_R   0.074553 0.381960 0.277112 -0.080371
C15   C     C_R   0.572956 0.846628 0.277362 -0.117802
C16   C     C_R   0.427043 0.346639 0.722639 -0.117799
C17   C     C_R   0.936136 0.800134 0.570303 -0.144045
C18   C     C_R   0.063864 0.300066 0.429692 -0.144042
C19   C     C_R   0.963313 0.830513 0.666189 -0.237193
C20   C     C_R   0.036688 0.330460 0.333807 -0.237186
C21   C     C_R   0.859378 0.901938 0.683398 0.304776
C22   C     C_R   0.140619 0.401955 0.316605 0.304776
C23   C     C_R   0.830118 0.844478 0.588336 0.012628
C24   C     C_R   0.169881 0.344475 0.411665 0.012630
C25   C     C_R   0.869989 0.805071 0.531057 0.064205
C26   C     C_R   0.130011 0.305026 0.468940 0.064208
C27   C     C_R   0.763319 0.821867 0.548281 0.045034
C28   C     C_R   0.236680 0.321882 0.451718 0.045032
C29   C     C_R   0.736658 0.804908 0.448324 0.042749
C30   C     C_R   0.263342 0.304899 0.551675 0.042749
C31   C     C_R   0.778143 0.752207 0.393886 0.131304
C32   C     C_R   0.221859 0.252163 0.606110 0.131307
C33   C     C_R   0.843956 0.759457 0.436185 -0.199633
C34   C     C_R   0.156046 0.259394 0.563810 -0.199630
C35   C     C_R   0.723248 0.790180 0.605688 -0.088272
C36   C     C_R   0.276753 0.290234 0.394310 -0.088272
C37   C     C_R   0.658110 0.772147 0.567340 -0.148974
C38   C     C_R   0.341891 0.272217 0.432657 -0.148972
C39   C     C_R   0.630448 0.792746 0.470705 0.064649
C40   C     C_R   0.369553 0.292795 0.529292 0.064647
C41   C     C_R   0.669202 0.820018 0.410389 0.079523
C42   C     C_R   0.330797 0.320027 0.589610 0.079523
C43   C     C_R   0.564315 0.782605 0.433507 -0.163511
C44   C     C_R   0.435686 0.282673 0.566490 -0.163509
C45   C     C_R   0.535829 0.801725 0.336861 0.367888
C46   C     C_R   0.464171 0.301775 0.663137 0.367887
C47   C     C_R   0.638790 0.865980 0.315430 -0.276489
C48   C     C_R   0.361208 0.365969 0.684572 -0.276490
H5    H     H_    0.875813 0.720451 0.395637 0.120928
H6    H     H_    0.124190 0.220359 0.604356 0.120925
H7    H     H_    0.665304 0.919605 0.270606 0.174855
H8    H     H_    0.334692 0.419565 0.729399 0.174854
H9    H     H_    0.629170 0.744841 0.613866 0.151588
H10   H     H_    0.370832 0.244940 0.386129 0.151587
H11   H     H_    0.966823 0.764684 0.527423 0.128744
H12   H     H_    0.033179 0.264583 0.472569 0.128744
H13   H     H_    0.014159 0.815114 0.696270 0.124196
H14   H     H_    0.985842 0.315039 0.303723 0.124199
H15   H     H_    0.742058 0.763980 0.680292 0.176497
H16   H     H_    0.257944 0.264051 0.319704 0.176497
H17   H     H_    0.534855 0.755085 0.479270 0.166018
H18   H     H_    0.465148 0.255184 0.520726 0.166018
O11   O     O_R   0.036450 0.233070 0.130130 -0.543397
O12   O     O_R   0.963550 0.733070 0.869870 -0.543395
O13   O     O_R   0.912470 0.560570 0.006790 -0.545021
O14   O     O_R   0.087530 0.060570 0.993210 -0.545023
C49   C     C_R   0.888027 0.392140 0.006077 0.764696
C50   C     C_R   0.111973 0.892140 0.993923 0.764702
O15   O     O_R   0.032920 0.562940 0.138050 -0.524491
O16   O     O_R   0.967080 0.062940 0.861950 -0.524499
O17   O     O_R   0.084790 0.730500 0.002090 -0.526934
O18   O     O_R   0.915210 0.230500 0.997910 -0.526935
C51   C     C_R   0.045562 0.394315 0.174810 0.751818
C52   C     C_R   0.954437 0.894318 0.825190 0.751825
O19   O     O_3   0.016820 0.396170 0.955260 -0.381774
O20   O     O_3   0.983180 0.896170 0.044740 -0.381771
V3    V     V_3+5 0.996880 0.672090 0.008300 1.501631
V4    V     V_3+5 0.003120 0.172090 0.991700 1.501620
Cl1   Cl    Cl    0.817987 0.027409 0.750209 -0.709495
Cl2   Cl    Cl    0.182005 0.527474 0.249803 -0.709493
C53   C     C_3   0.756714 0.650032 0.299356 -0.347612
C54   C     C_3   0.721863 0.469085 0.305984 -0.693880
H19   H     H_    0.752001 0.378729 0.362085 0.236219
H20   H     H_    0.676284 0.495542 0.321292 0.230400
H21   H     H_    0.711264 0.394076 0.237727 0.242608
H22   H     H_    0.728654 0.736665 0.240880 0.213283
H23   H     H_    0.798413 0.610354 0.275576 0.182441
C55   C     C_3   0.243291 0.149971 0.700637 -0.347616
C56   C     C_3   0.278151 0.969044 0.694004 -0.693867
H24   H     H_    0.248018 0.878685 0.637900 0.236219
H25   H     H_    0.323729 0.995526 0.678696 0.230399
H26   H     H_    0.288754 0.894024 0.762258 0.242610
H27   H     H_    0.271345 0.236603 0.759116 0.213263
H28   H     H_    0.201593 0.110265 0.724413 0.182439
Cl3   Cl    Cl    0.286119 0.570087 0.894604 -0.746544
Cl4   Cl    Cl    0.713881 0.070087 0.105399 -0.746556
C57   C     C_3   0.317682 0.994720 0.095840 -0.400975
C58   C     C_3   0.300712 0.903828 0.178946 -0.567653
H29   H     H_    0.248612 0.891462 0.164635 0.230256
H30   H     H_    0.322144 0.763535 0.193898 0.277474
H31   H     H_    0.318420 0.991181 0.243000 0.221443
H32   H     H_    0.363609 0.067968 0.125650 0.216082
H33   H     H_    0.282999 0.105086 0.064244 0.197699
C59   C     C_3   0.682318 0.494722 0.904159 -0.400966
C60   C     C_3   0.699289 0.403830 0.821055 -0.567637
H34   H     H_    0.751390 0.391459 0.835368 0.230248
H35   H     H_    0.677856 0.263540 0.806103 0.277475
H36   H     H_    0.681584 0.491187 0.757001 0.221442
H37   H     H_    0.636391 0.567969 0.874348 0.216088
H38   H     H_    0.717000 0.605087 0.935755 0.197701
Cl5   Cl    Cl    0.453415 0.770411 0.292657 -0.712389
Cl6   Cl    Cl    0.546588 0.270490 0.707339 -0.712399

loop_
_geom_bond_atom_site_label_1
_geom_bond_atom_site_label_2
_ccdc_geom_bond_type
C46   Cl6   S    
O14   V4    S    
C39   C43   A    
C15   C45   A    
C6    C10   S    
C50   O17   A    
O2    C4    A    
C43   H17   S    
C2    O7    A    
C53   C54   S    
C9    Cl3   S    
C31   C33   A    
O5    C3    A    
C56   H25   S    
C44   H18   S    
C33   H5    S    
C48   H8    S    
C22   C24   A    
C35   H15   S    
C55   H27   S    
C59   H38   S    
C32   C55   S    
C21   Cl1   S    
C44   C46   A    
C29   C31   A    
C13   C52   S    
C60   H36   S    
O16   V4    S    
C17   C19   A    
C57   H33   S    
O15   V3    S    
C8    H4    S    
C36   C38   A    
C18   C26   A    
C41   C47   A    
C18   C20   A    
C53   H22   S    
C1    C16   S    
C28   C36   A    
C32   C34   A    
C49   O18   A    
C37   H9    S    
O6    V2    S    
C30   C42   A    
C14   C51   S    
C25   C33   A    
C55   C56   S    
O13   C49   A    
C28   C30   A    
C58   H29   S    
C38   C40   A    
C37   C39   A    
C42   C48   A    
C56   H26   S    
C47   H7    S    
C43   C45   A    
C60   H35   S    
C4    C11   S    
C15   C47   A    
C16   C48   A    
O11   V4    S    
C23   C25   A    
C12   C59   S    
O15   C51   A    
C59   H37   S    
C23   C27   A    
O5    V1    S    
O3    C1    A    
C5    H1    S    
C40   C44   A    
C35   C37   A    
O4    V2    S    
C7    H3    S    
O13   V3    S    
C38   H10   S    
O6    C4    A    
C29   C41   A    
C45   Cl5   S    
O1    V2    S    
O2    V1    S    
C27   C29   A    
C60   H34   S    
C53   H23   S    
C20   H14   S    
C26   C34   A    
C11   C57   S    
O4    C2    A    
O14   C50   A    
C39   C41   A    
O16   C52   A    
C8    C49   S    
C13   C21   A    
C7    C50   S    
C10   Cl4   S    
O3    V1    S    
C59   C60   S    
C57   C58   S    
C19   H13   S    
C6    H2    S    
C10   C12   D    
C36   H16   S    
C58   H30   S    
C34   H6    S    
C9    C11   D    
C54   H21   S    
C56   H24   S    
C13   C19   A    
C54   H20   S    
C31   C53   S    
C14   C20   A    
C5    C9    S    
O7    V1    S    
C17   C25   A    
C1    O8    A    
C21   C23   A    
O8    V2    S    
O19   V4    S    
C55   H28   S    
C27   C35   A    
C3    C12   S    
O17   V3    S    
C24   C26   A    
O20   V3    S    
C5    C7    D    
C40   C42   A    
C2    C15   S    
C6    C8    D    
O12   C52   A    
O11   C51   A    
C58   H31   S    
C17   H11   S    
C18   H12   S    
C16   C46   A    
C57   H32   S    
C30   C32   A    
C24   C28   A    
C54   H19   S    
O9    V2    S    
C22   Cl2   S    
O18   V4    S    
O10   V1    S    
O1    C3    A    
C14   C22   A    
O12   V3    S    
