data_mof_unit_1545.cif
_audit_creation_date              2012-12-11T20:21:42-0500
_audit_creation_method            fapswitch 2.2
_symmetry_space_group_name_H-M    P1
_symmetry_Int_Tables_number       1
_space_group_crystal_system       triclinic
_cell_length_a                    8.334296
_cell_length_b                    17.522618
_cell_length_c                    26.840138
_cell_angle_alpha                 99.993591
_cell_angle_beta                  92.900474
_cell_angle_gamma                 80.607401
_cell_volume                      3807.47105446

loop_
_atom_site_label
_atom_site_type_symbol
_atom_type_description
_atom_site_fract_x
_atom_site_fract_y
_atom_site_fract_z
_atom_type_partial_charge
Ba1   Ba    Ba6+2 0.860160 0.462360 0.521850 1.793679
Ba2   Ba    Ba6+2 0.329680 0.537570 0.478140 1.719583
C1    C     C_3   0.524304 0.231143 0.678213 -0.368322
C2    C     C_R   0.903890 0.571690 0.181879 0.617783
C3    C     C_2   0.735394 0.522236 0.268971 0.232971
C4    C     C_3   0.999804 0.199947 0.582958 0.308003
C5    C     C_3   0.692169 0.518005 0.323100 -0.055579
C6    C     C_1   0.981207 0.483145 0.341604 -0.044207
C7    C     C_2   0.022051 0.483076 0.294320 -0.162964
C8    C     C_2   0.894557 0.504377 0.255154 0.252526
C9    C     C_R   0.023698 0.502281 0.102074 -0.077620
C10   C     C_R   0.067018 0.434835 0.124725 -0.030394
C11   C     C_R   0.151155 0.366860 0.096104 -0.066003
C12   C     C_3   0.552210 0.295875 0.650121 0.318493
C13   C     C_R   0.943360 0.571404 0.131141 -0.050128
C14   C     C_2   0.838129 0.518687 0.358695 -0.226421
C15   C     C_2   0.370829 0.504770 0.642325 -0.247655
C16   C     C_3   0.895790 0.138585 0.588996 -0.338558
C17   C     C_R   0.200475 0.433663 0.972228 0.027656
C18   C     C_R   0.031595 0.563585 0.974106 0.006120
C19   C     C_R   0.137550 0.498641 0.947915 0.016562
C20   C     C_R   0.309776 0.371826 0.945178 -0.099676
C21   C     C_R   0.351567 0.372536 0.895639 -0.063067
C22   C     C_R   0.286808 0.434955 0.870635 -0.026450
C23   C     C_3   0.490029 0.669733 0.634869 0.309589
C24   C     C_R   0.179473 0.498120 0.896733 -0.084705
C25   C     C_R   0.113700 0.560593 0.871564 -0.055640
C26   C     C_R   0.159974 0.560592 0.821477 0.587863
C27   C     C_R   0.326904 0.435226 0.819963 0.590189
C28   C     C_3   0.228780 0.299544 0.330614 0.674615
C29   C     C_2   0.467062 0.489735 0.731105 -0.089494
C30   C     C_3   0.514423 0.498954 0.678753 -0.057531
C31   C     C_1   0.219496 0.522460 0.658311 0.030871
C32   C     C_2   0.179465 0.513968 0.704044 -0.100069
C33   C     C_2   0.308623 0.498715 0.743850 0.209300
C34   C     C_3   0.496070 0.696601 0.692089 -0.063572
C35   C     C_R   0.152831 0.432621 0.022546 0.019240
C36   C     C_R   0.061481 0.500776 0.050375 0.044881
C37   C     C_R   0.008677 0.567772 0.027172 0.020944
C38   C     C_R   0.193915 0.365773 0.046360 -0.104500
C39   C     C_R   0.907272 0.639350 0.109176 -0.081557
C40   C     C_3   0.098770 0.272306 0.293013 -0.330078
C41   C     C_R   0.950167 0.620668 0.945515 0.172672
C42   C     C_R   0.997994 0.620516 0.896134 -0.091978
C43   C     C_R   0.941475 0.637870 0.058661 -0.085216
C44   C     C_2   0.468132 0.276539 0.520772 0.095323
C45   C     C_3   0.047883 0.704397 0.342561 0.633606
C46   C     C_3   0.364074 0.224595 0.538764 -0.097308
C47   C     C_2   0.406992 0.139716 0.517017 -0.190857
C48   C     C_2   0.539248 0.113009 0.488481 -0.000839
C49   C     C_2   0.630584 0.171353 0.472029 0.282948
C50   C     C_1   0.580468 0.248659 0.485690 0.030356
C51   C     C_R   0.781833 0.861193 0.470304 -0.121216
C52   C     C_3   0.971331 0.700863 0.586923 0.293469
C53   C     C_R   0.844879 0.781468 0.465787 0.078318
C54   C     C_R   0.614888 0.759282 0.509976 0.023423
C55   C     C_R   0.552394 0.839314 0.515472 -0.116846
C56   C     C_3   0.107102 0.716763 0.291521 0.048131
C57   C     C_R   0.633857 0.890681 0.494939 -0.001001
C58   C     C_2   0.596596 0.026779 0.475106 -0.009901
C59   C     C_2   0.571085 0.975711 0.505117 -0.102458
C60   C     C_R   0.758614 0.730447 0.484000 -0.274246
C61   C     C_3   0.936476 0.789543 0.602873 -0.387245
C62   C     C_3   0.703653 0.352769 0.365588 0.343243
C63   C     C_3   0.683673 0.329745 0.308434 -0.340842
C64   C     C_3   0.680162 0.692526 0.765509 -0.239526
C65   C     C_3   0.013714 0.857121 0.288495 -0.147016
C66   C     C_3   0.552461 0.462151 0.207616 -0.270326
C67   C     C_3   0.476842 0.739087 0.376203 0.357259
C68   C     C_3   0.663133 0.636830 0.961183 -0.234796
C69   C     C_3   0.459854 0.820658 0.362226 -0.326222
C70   C     C_R   0.023865 0.436435 0.175344 0.565567
Cl1   Cl    Cl    0.838420 0.697699 0.335959 -0.752338
Cl2   Cl    Cl    0.807101 0.134908 0.435695 -0.619456
Cl3   Cl    Cl    0.402376 0.377088 0.542192 -0.677110
Cl4   Cl    Cl    0.375089 0.215972 0.338405 -0.636391
H1    H     H_    0.587504 0.268654 0.611199 0.016770
H2    H     H_    0.832866 0.357446 0.375064 -0.014870
H3    H     H_    0.624912 0.409816 0.378049 -0.003510
H4    H     H_    0.637317 0.187967 0.679216 0.118085
H5    H     H_    0.738971 0.267673 0.296090 0.162092
H6    H     H_    0.742671 0.367077 0.288233 0.024507
H7    H     H_    0.553335 0.336585 0.297253 0.117626
H8    H     H_    0.436163 0.337587 0.649801 0.012203
H9    H     H_    0.426253 0.200483 0.658663 0.051103
H10   H     H_    0.361871 0.664321 0.623355 -0.007200
H11   H     H_    0.569357 0.612012 0.625440 0.032754
H12   H     H_    0.013566 0.323610 0.284156 0.058883
H13   H     H_    0.440752 0.759417 0.701523 0.100367
H14   H     H_    0.422747 0.661580 0.710032 0.056322
H15   H     H_    0.487498 0.256500 0.717552 0.177502
H16   H     H_    0.892217 0.133447 0.629548 0.068592
H17   H     H_    0.112842 0.647722 0.350898 0.039043
H18   H     H_    0.231485 0.731337 0.294967 0.077068
H19   H     H_    0.114001 0.659862 0.265175 0.062835
H20   H     H_    0.586907 0.730880 0.400503 0.052097
H21   H     H_    0.370418 0.735978 0.398219 0.074060
H22   H     H_    0.562621 0.824793 0.338615 0.184665
H23   H     H_    0.155395 0.240510 0.257151 0.141198
H24   H     H_    0.459817 0.865070 0.397168 0.080093
H25   H     H_    0.946303 0.257291 0.605198 0.056718
H26   H     H_    0.344022 0.834279 0.341197 0.109567
H27   H     H_    0.148444 0.467788 0.283589 0.111647
H28   H     H_    0.185103 0.313745 0.112196 0.122590
H29   H     H_    0.562662 0.481745 0.759599 0.099893
H30   H     H_    0.435913 0.323501 0.876898 0.119057
H31   H     H_    0.368553 0.322380 0.961709 0.067634
H32   H     H_    0.255974 0.310613 0.027048 0.070545
H33   H     H_    0.852878 0.694514 0.131158 0.118066
H34   H     H_    0.031362 0.232722 0.308913 0.145384
H35   H     H_    0.123978 0.180983 0.598214 -0.064770
H36   H     H_    0.937015 0.665861 0.875885 0.107241
H37   H     H_    0.052611 0.523187 0.714085 0.128727
H38   H     H_    0.920051 0.693556 0.045617 0.111990
H39   H     H_    0.826570 0.550660 0.397141 0.080921
H40   H     H_    0.398454 0.513397 0.604901 0.118092
H41   H     H_    0.503182 0.996528 0.539555 0.073042
H42   H     H_    0.852383 0.900084 0.457112 0.092180
H43   H     H_    0.665747 0.005375 0.440979 0.136358
H44   H     H_    0.332032 0.100213 0.527527 0.091520
H45   H     H_    0.857415 0.678697 0.573728 0.008702
H46   H     H_    0.770017 0.155424 0.574756 0.094774
H47   H     H_    0.443302 0.861876 0.537021 0.083417
H48   H     H_    0.808577 0.668869 0.480916 0.057257
H49   H     H_    0.947975 0.080703 0.567286 0.130285
H50   H     H_    0.291411 0.340510 0.314466 -0.043211
H51   H     H_    0.736857 0.717134 0.696030 0.234111
H52   H     H_    0.811007 0.681110 0.776250 0.163627
H53   H     H_    0.618255 0.648656 0.779062 0.115394
H54   H     H_    0.627925 0.752585 0.784021 0.105654
H55   H     H_    0.993214 0.764447 0.230376 0.220736
H56   H     H_    0.059420 0.686872 0.555800 0.075298
H57   H     H_    0.134823 0.868885 0.279284 0.084618
H58   H     H_    0.996292 0.871277 0.329929 0.167721
H59   H     H_    0.918674 0.896225 0.270382 0.119291
H60   H     H_    0.515674 0.577646 0.243522 0.234153
H61   H     H_    0.463731 0.475255 0.176774 0.121051
H62   H     H_    0.490961 0.437541 0.235574 0.106828
H63   H     H_    0.655343 0.418088 0.190916 0.134350
H64   H     H_    0.787583 0.724534 0.948483 0.192157
H65   H     H_    0.560410 0.680769 0.977996 0.114440
H66   H     H_    0.682272 0.587601 0.983017 0.125221
H67   H     H_    0.841958 0.805262 0.632218 0.126733
H68   H     H_    0.630456 0.614522 0.921240 0.105201
H69   H     H_    0.892925 0.818456 0.570118 0.062162
H70   H     H_    0.049303 0.811730 0.618491 0.121439
N1    N     N_R   0.941480 0.504207 0.203307 -0.423813
N2    N     N_R   0.264421 0.497955 0.795853 -0.421693
N3    N     N_2   0.662666 0.685679 0.711134 -0.417595
N4    N     N_2   0.997773 0.776189 0.269396 -0.365558
N5    N     N_2   0.609934 0.533441 0.231611 -0.399778
N6    N     N_2   0.807878 0.673174 0.963316 -0.440042
O1    O     O_2   0.906370 0.542040 0.619810 -0.466446
O2    O     O_2   0.175289 0.781404 0.476808 -0.501860
O3    O     O_3   0.077236 0.766085 0.381391 -0.640840
O4    O     O_3   0.138370 0.541980 0.559630 -0.457091
O5    O     O_3   0.572820 0.404940 0.471170 -0.437248
O6    O     O_2   0.345130 0.693150 0.532000 -0.465486
O7    O     O_3   0.544513 0.725026 0.610689 -0.656368
O8    O     O_2   0.354410 0.557507 0.329164 -0.530057
O9    O     O_3   0.490234 0.681419 0.332329 -0.574425
O10   O     O_2   0.057868 0.377058 0.194254 -0.619456
O11   O     O_2   0.416358 0.379167 0.797190 -0.605104
O12   O     O_3   0.657988 0.293797 0.388037 -0.547362
O13   O     O_2   0.835986 0.632165 0.207008 -0.548768
O14   O     O_2   0.108837 0.617091 0.800960 -0.620942
O15   O     O_3   0.686580 0.398330 0.583860 -0.440310
O16   O     O_2   0.849919 0.439303 0.668984 -0.479648
O17   O     O_3   0.034843 0.667934 0.628905 -0.641581
O18   O     O_3   0.680179 0.332426 0.673751 -0.583280
O19   O     O_2   0.844570 0.306830 0.467970 -0.415579
O20   O     O_3   0.101900 0.357890 0.557750 -0.433953
O21   O     O_2   0.143908 0.271955 0.467593 -0.374462
O22   O     O_3   0.002283 0.205925 0.531495 -0.551342
O23   O     O_2   0.283330 0.457940 0.380160 -0.473634
O24   O     O_3   0.051340 0.457960 0.440360 -0.442314
O25   O     O_3   0.503130 0.601610 0.416130 -0.492914
O26   O     O_3   0.160639 0.331528 0.378213 -0.572729
O27   O     O_3   0.616890 0.595000 0.528820 -0.477261
O28   O     O_3   0.087820 0.642040 0.442240 -0.491090
P1    P     P_3+3 0.071770 0.565500 0.613330 1.016970
P2    P     P_3+3 0.664870 0.318630 0.453960 1.169104
P3    P     P_3+3 0.150566 0.262649 0.524089 1.111663
P4    P     P_3+3 0.117940 0.434440 0.386660 1.031104
P5    P     P_3+3 0.048042 0.742956 0.441311 0.958918
P6    P     P_3+3 0.680259 0.419795 0.650513 1.013833
P7    P     P_3+3 0.530860 0.694472 0.545200 0.945340
P8    P     P_3+3 0.511812 0.588455 0.350198 0.965141

loop_
_geom_bond_atom_site_label_1
_geom_bond_atom_site_label_2
_ccdc_geom_bond_type
C34   H13   S    
C19   C24   A    
C28   H50   S    
Ba1   O24   S    
C1    H9    S    
C4    H35   S    
C27   O11   D    
O19   P2    D    
C66   H62   S    
C49   Cl2   S    
C12   H8    S    
C62   O12   S    
C67   H20   S    
O6    P7    D    
H60   N5    S    
C27   N2    Am   
C60   H48   S    
C51   C57   A    
C2    O13   D    
C32   H37   S    
C24   C25   A    
O25   P8    S    
Ba2   O28   S    
C17   C19   A    
C50   P2    S    
C32   C33   S    
C35   C38   A    
C16   H49   S    
C36   C37   A    
C34   N3    S    
C55   C57   A    
C47   H44   S    
O27   P7    S    
C52   C61   S    
Ba1   O15   S    
C20   H31   S    
C53   C60   A    
C44   C50   D    
C23   H11   S    
C54   C55   A    
C58   H43   S    
C1    H15   S    
Ba1   Ba2   S    
C4    H25   S    
O7    P7    S    
C67   C69   S    
C22   C27   A    
C11   C38   A    
C17   C35   A    
Ba2   O24   S    
C9    C13   A    
C43   H38   S    
C6    C7    D    
C23   O7    S    
C21   C22   A    
Ba2   O25   S    
C21   H30   S    
C7    C8    S    
H64   N6    S    
C61   H70   S    
C26   O14   D    
C8    N1    S    
C37   C43   A    
C64   H53   S    
C6    P4    S    
C10   C70   A    
C6    C14   D    
C39   H33   S    
C65   N4    S    
C29   H29   S    
C52   O17   S    
O18   P6    S    
C66   H61   S    
C15   C31   D    
C1    H4    S    
C25   C42   A    
C44   Cl3   S    
C69   H22   S    
C48   C49   S    
C51   C53   A    
C45   H17   S    
C4    C16   S    
O2    P5    D    
C44   C46   S    
C57   C59   S    
C68   H66   S    
C59   H41   S    
C49   C50   D    
C9    C10   A    
C5    P8    S    
C17   C20   A    
O16   P6    D    
C13   C39   A    
C64   N3    S    
O3    P5    S    
C3    C5    S    
C18   C37   A    
Ba1   P1    S    
C51   H42   S    
C4    O22   S    
O15   P6    S    
Ba1   O19   S    
C58   C59   D    
C63   H7    S    
Ba1   O4    S    
C65   H59   S    
C56   H19   S    
C35   C36   A    
Ba2   O23   S    
C55   H47   S    
C28   Cl4   S    
C63   H5    S    
C29   C30   S    
C54   P7    S    
C7    H27   S    
O17   P1    S    
C65   H58   S    
C31   C32   D    
C28   O26   S    
C68   N6    S    
Ba2   P4    S    
C10   C11   A    
C11   H28   S    
Ba1   O1    S    
C45   Cl1   S    
C1    C12   S    
C16   H46   S    
C42   H36   S    
C46   C47   S    
C52   H45   S    
O1    P1    D    
C41   C42   A    
C31   P1    S    
C62   H3    S    
C54   C60   A    
O4    P1    S    
C40   H12   S    
Ba2   O27   S    
O8    P8    D    
C14   H39   S    
C18   C41   A    
H55   N4    S    
C34   H14   S    
O24   P4    S    
C5    C14   S    
C68   H65   S    
Ba2   O4    S    
C65   H57   S    
C18   C19   A    
C26   N2    Am   
C62   H2    S    
C69   H26   S    
C22   C24   A    
C66   H63   S    
C3    N5    S    
O22   P3    S    
C46   P3    S    
Ba1   P2    S    
C2    N1    Am   
O9    P8    S    
C70   N1    Am   
C52   H56   S    
C69   H24   S    
Ba1   O20   S    
C68   H68   S    
C67   O9    S    
C30   P6    S    
C16   H16   S    
C62   C63   S    
C2    C13   A    
Ba1   O5    S    
C40   H34   S    
C48   C58   S    
C3    C8    D    
C66   N5    S    
C39   C43   A    
C40   H23   S    
H51   N3    S    
C45   C56   S    
Ba1   O27   S    
O20   P3    S    
C63   H6    S    
C45   O3    S    
C12   O18   S    
Ba2   O5    S    
C61   H67   S    
C23   H10   S    
C64   H52   S    
C29   C33   D    
C33   N2    S    
C53   P5    S    
C56   H18   S    
O12   P2    S    
O28   P5    S    
C23   C34   S    
C38   H32   S    
Ba2   O6    S    
O21   P3    D    
C47   C48   D    
O5    P2    S    
C25   C26   A    
C12   H1    S    
C15   C30   S    
C70   O10   D    
C20   C21   A    
C28   C40   S    
C9    C36   A    
C61   H69   S    
O26   P4    S    
C41   N6    S    
C56   N4    S    
C15   H40   S    
O23   P4    D    
C64   H54   S    
C67   H21   S    
