data_mof_unit_77.cif
_audit_creation_date              2012-12-10T17:10:21-0500
_audit_creation_method            fapswitch 2.2
_symmetry_space_group_name_H-M    P1
_symmetry_Int_Tables_number       1
_space_group_crystal_system       triclinic
_cell_length_a                    15.716023
_cell_length_b                    10.552886
_cell_length_c                    10.045248
_cell_angle_alpha                 88.197145
_cell_angle_beta                  90.753315
_cell_angle_gamma                 90.286982
_cell_volume                      1665.01214262

loop_
_atom_site_label
_atom_site_type_symbol
_atom_type_description
_atom_site_fract_x
_atom_site_fract_y
_atom_site_fract_z
_atom_type_partial_charge
Br1   Br    Br    0.067636 0.707435 0.273982 -0.576303
C1    C     C_R   0.491181 0.262771 0.502181 0.936538
C2    C     C_2   0.490925 0.871859 0.487640 -0.382767
C3    C     C_2   0.422507 0.068458 0.421295 0.181035
C4    C     C_R   0.338031 0.499387 0.499238 0.868735
C5    C     C_2   0.468321 0.131480 0.512450 -0.426171
C6    C     C_2   0.553004 0.567253 0.925811 0.165927
C7    C     C_2   0.537543 0.585402 0.072614 -0.127626
C8    C     C_R   0.498980 0.738110 0.497478 0.914659
C9    C     C_R   0.661990 0.500191 0.500813 0.904490
C10   C     C_3   0.973667 0.415915 0.592202 0.188807
C11   C     C_3   0.026928 0.386188 0.469256 0.171954
C12   C     C_3   0.083156 0.501694 0.498302 0.018197
C13   C     C_1   0.249212 0.500682 0.497613 -0.164782
C14   C     C_1   0.750894 0.500972 0.502508 -0.193963
C15   C     C_3   0.030873 0.531681 0.622282 -0.261051
C16   C     C_3   0.063614 0.259532 0.427275 -0.402408
C17   C     C_3   0.994136 0.162648 0.397682 -0.844329
C18   C     C_3   0.632595 0.624734 0.863497 -0.304231
C19   C     C_3   0.686836 0.708435 0.953246 -0.970724
C20   C     C_3   0.937478 0.325400 0.699480 -0.395630
C21   C     C_3   0.007310 0.254586 0.777480 -0.858656
C22   C     C_3   0.938540 0.746324 0.567946 -0.379914
C23   C     C_3   0.973433 0.617020 0.531530 0.145897
C24   C     C_3   0.009475 0.838359 0.605335 -0.834775
C25   C     C_3   0.338307 0.856778 0.405302 -0.360198
C26   C     C_3   0.266592 0.889136 0.499303 -0.867008
C27   C     C_3   0.376530 0.132862 0.303369 -0.370964
C28   C     C_3   0.424757 0.114884 0.174547 -0.843182
C29   C     C_3   0.917128 0.501926 0.502666 0.007751
C30   C     C_3   0.026794 0.587537 0.408950 0.291448
C31   C     C_3   0.969470 0.472079 0.378888 -0.258776
C32   C     C_1   0.173980 0.501643 0.497360 -0.005326
C33   C     C_1   0.826180 0.501582 0.503031 -0.054873
C34   C     C_2   0.419582 0.929136 0.439293 0.174433
H1    H     H_    0.487891 0.083858 0.605446 0.146046
H2    H     H_    0.023619 0.074855 0.361744 0.268699
H3    H     H_    0.101767 0.276529 0.336062 0.213693
H4    H     H_    0.106929 0.221124 0.506617 0.202317
H5    H     H_    0.650391 0.793033 0.981927 0.263163
H6    H     H_    0.708888 0.653976 0.043560 0.276766
H7    H     H_    0.743884 0.741925 0.898033 0.262998
H8    H     H_    0.673928 0.545852 0.833694 0.223368
H9    H     H_    0.614967 0.683483 0.774436 0.241754
H10   H     H_    0.041233 0.189279 0.712386 0.259881
H11   H     H_    0.053505 0.322361 0.820709 0.262700
H12   H     H_    0.446159 0.468797 0.897119 0.152189
H13   H     H_    0.978418 0.197404 0.859972 0.254847
H14   H     H_    0.900107 0.381540 0.769714 0.209437
H15   H     H_    0.893587 0.256520 0.652896 0.204852
H16   H     H_    0.047619 0.799171 0.690728 0.261208
H17   H     H_    0.051828 0.857414 0.519524 0.284047
H18   H     H_    0.981268 0.929489 0.634510 0.245045
H19   H     H_    0.901402 0.786864 0.482079 0.222091
H20   H     H_    0.895173 0.733196 0.653787 0.202751
H21   H     H_    0.285598 0.864958 0.603911 0.264005
H22   H     H_    0.250629 0.991439 0.490484 0.250367
H23   H     H_    0.563547 0.667863 0.120401 0.181365
H24   H     H_    0.208949 0.833185 0.473970 0.279350
H25   H     H_    0.318575 0.878510 0.300652 0.215746
H26   H     H_    0.346904 0.752930 0.412335 0.218015
H27   H     H_    0.489905 0.155428 0.182388 0.269834
H28   H     H_    0.429270 0.012515 0.153163 0.253273
H29   H     H_    0.390586 0.163960 0.090488 0.239516
H30   H     H_    0.311334 0.093717 0.292412 0.197183
H31   H     H_    0.366425 0.235271 0.318169 0.218939
H32   H     H_    0.482712 0.418453 0.103996 0.164900
H33   H     H_    0.942374 0.448371 0.280074 0.173349
H34   H     H_    0.058113 0.555926 0.720839 0.167094
H35   H     H_    0.548988 0.923971 0.509161 0.114934
H36   H     H_    0.957963 0.137781 0.488820 0.256840
H37   H     H_    0.949784 0.200509 0.319361 0.259547
N1    N     N_2   0.500900 0.501330 0.852150 -0.223190
N2    N     N_2   0.500930 0.501360 0.147810 -0.209454
O1    O     O_R   0.499990 0.319060 0.613040 -0.609916
O2    O     O_R   0.500010 0.319100 0.386900 -0.603101
O3    O     O_R   0.376760 0.499970 0.613050 -0.606167
O4    O     O_R   0.376790 0.500010 0.386910 -0.617066
O5    O     O_R   0.499990 0.680900 0.613100 -0.615637
O6    O     O_R   0.500010 0.680940 0.386960 -0.611486
O7    O     O_R   0.623210 0.499990 0.613090 -0.639872
O8    O     O_R   0.623240 0.500030 0.386950 -0.596186
Zn1   Zn    Zn3+2 0.499980 0.499970 0.650990 0.926676
Zn2   Zn    Zn3+2 0.500020 0.500030 0.349010 0.937074

loop_
_geom_bond_atom_site_label_1
_geom_bond_atom_site_label_2
_ccdc_geom_bond_type
C21   H13   S    
C28   H28   S    
C18   C19   S    
O6    Zn2   S    
O2    Zn2   S    
C13   C32   T    
C20   H14   S    
C19   H6    S    
C6    C7    S    
C6    N1    D    
C25   C26   S    
C27   C28   S    
C17   H2    S    
C24   H18   S    
C9    C14   S    
C16   H4    S    
C19   H5    S    
O3    Zn1   S    
Br1   C30   S    
C8    O5    A    
C7    H23   S    
C10   C29   S    
C5    H1    S    
O5    Zn1   S    
C11   C16   S    
C22   C23   S    
C14   C33   T    
C31   H33   S    
C28   H29   S    
C15   C23   S    
C20   C21   S    
C11   C31   S    
C1    C5    S    
C20   H15   S    
O7    Zn1   S    
C18   H8    S    
C17   H37   S    
C29   C33   S    
C2    H35   S    
H12   N1    S    
C3    C5    D    
C26   H22   S    
C26   H21   S    
C9    O8    A    
C8    O6    A    
C27   H31   S    
C24   H16   S    
C12   C32   S    
C2    C8    S    
C10   C15   S    
C30   C31   S    
C2    C34   D    
C7    N2    D    
C16   C17   S    
H32   N2    S    
C25   H26   S    
C4    C13   S    
C21   H11   S    
C6    C18   S    
C4    O3    A    
C1    O2    A    
C18   H9    S    
C22   H19   S    
C17   H36   S    
C3    C34   S    
C28   H27   S    
C12   C30   S    
C15   H34   S    
N2    Zn2   S    
C19   H7    S    
C10   C11   S    
C22   H20   S    
C9    O7    A    
O8    Zn2   S    
C27   H30   S    
C24   H17   S    
C26   H24   S    
C29   C31   S    
O1    Zn1   S    
C10   C20   S    
C16   H3    S    
C22   C24   S    
C23   C29   S    
C23   C30   S    
O4    Zn2   S    
C25   C34   S    
C21   H10   S    
C11   C12   S    
C3    C27   S    
C12   C15   S    
C4    O4    A    
C25   H25   S    
N1    Zn1   S    
C1    O1    A    
