data_mof_unit_844.cif
_audit_creation_date              2012-10-26T18:26:39-0400
_audit_creation_method            fapswitch 2.2
_symmetry_space_group_name_H-M    P1
_symmetry_Int_Tables_number       1
_space_group_crystal_system       triclinic
_cell_length_a                    15.865068
_cell_length_b                    8.747025
_cell_length_c                    7.470093
_cell_angle_alpha                 102.745053
_cell_angle_beta                  94.083646
_cell_angle_gamma                 92.31944
_cell_volume                      1006.84940788

loop_
_atom_site_label
_atom_site_type_symbol
_atom_type_description
_atom_site_fract_x
_atom_site_fract_y
_atom_site_fract_z
_atom_type_partial_charge
C1    C     C_R   0.498626 0.200675 0.454218 0.562241
C2    C     C_3   0.977597 0.644098 0.591152 -0.102590
C3    C     C_1   0.250912 0.499521 0.507433 -0.015378
C4    C     C_1   0.749089 0.500389 0.492562 -0.009716
C5    C     C_3   0.032310 0.529366 0.672901 0.102035
C6    C     C_3   0.967694 0.470505 0.327107 0.102579
C7    C     C_3   0.083974 0.498073 0.504065 0.045860
C8    C     C_3   0.916029 0.501798 0.495942 0.046088
C9    C     C_1   0.175526 0.498943 0.507789 -0.028396
C10   C     C_1   0.824476 0.500941 0.492212 -0.025271
C11   C     C_R   0.499648 0.799326 0.545883 0.582785
C12   C     C_R   0.340159 0.499690 0.502435 0.537973
C13   C     C_R   0.659840 0.500260 0.497560 0.547899
C14   C     C_2   0.507594 0.035351 0.431680 0.084274
C15   C     C_2   0.488081 0.964404 0.567851 0.106082
C16   C     C_3   0.970846 0.390484 0.580035 0.132690
C17   C     C_3   0.029158 0.609388 0.419973 0.133141
C18   C     C_3   0.022406 0.355773 0.408855 -0.103263
Cu1   Cu    Cu3+1 0.509330 0.517380 0.684380 0.982106
Cu2   Cu    Cu3+1 0.490670 0.482620 0.315620 0.984199
H1    H     H_    0.040117 0.238477 0.334851 0.119188
H2    H     H_    0.882608 0.353339 0.122948 0.235572
H3    H     H_    0.021734 0.611088 0.943490 0.238854
H4    H     H_    0.117431 0.646465 0.877035 0.233917
H5    H     H_    0.602372 0.009667 0.260470 0.230474
H6    H     H_    0.504112 0.960790 0.153726 0.245892
H7    H     H_    0.441097 0.976215 0.822105 0.237929
H8    H     H_    0.388910 0.073579 0.684628 0.210919
H9    H     H_    0.959889 0.761394 0.665157 0.120353
H10   H     H_    0.434312 0.378445 0.949183 0.253268
H11   H     H_    0.565665 0.621599 0.050825 0.256368
H12   H     H_    0.988453 0.230343 0.737122 0.241054
H13   H     H_    0.897343 0.322443 0.763525 0.242877
H14   H     H_    0.011559 0.769453 0.262791 0.241987
H15   H     H_    0.102700 0.677461 0.236565 0.241673
H16   H     H_    0.978289 0.388858 0.056517 0.238290
N1    N     N_2   0.476600 0.456420 0.038510 -0.247694
N2    N     N_2   0.523400 0.543580 0.961490 -0.250886
N3    N     N_3   0.937523 0.269516 0.666277 -0.622105
N4    N     N_3   0.062478 0.730359 0.333731 -0.624734
N5    N     N_3   0.931520 0.439958 0.137606 -0.640637
N6    N     N_3   0.068486 0.559909 0.862401 -0.642290
N7    N     N_3   0.543886 0.953175 0.268806 -0.624535
N8    N     N_3   0.449601 0.047185 0.728477 -0.622037
O1    O     O_R   0.506070 0.286130 0.619780 -0.475465
O2    O     O_R   0.493930 0.713870 0.380220 -0.478558
O3    O     O_R   0.490300 0.256770 0.308360 -0.509341
O4    O     O_R   0.509700 0.743230 0.691640 -0.513937
O5    O     O_R   0.386960 0.514660 0.655680 -0.508540
O6    O     O_R   0.613040 0.485340 0.344320 -0.499552
O7    O     O_R   0.371190 0.485310 0.344260 -0.499550
O8    O     O_R   0.628810 0.514690 0.655740 -0.494097

loop_
_geom_bond_atom_site_label_1
_geom_bond_atom_site_label_2
_ccdc_geom_bond_type
H6    N7    S    
C6    C8    S    
C5    N6    S    
Cu1   O1    S    
N1    N2    D    
C3    C9    T    
Cu1   N2    S    
H2    N5    S    
C1    C14   S    
C13   O8    A    
H4    N6    S    
Cu1   O5    S    
Cu1   Cu2   S    
H11   N2    S    
C7    C18   S    
H5    N7    S    
H15   N4    S    
H16   N5    S    
C8    C16   S    
C2    C17   S    
Cu2   N1    S    
C1    O1    A    
C11   O4    A    
H13   N3    S    
H3    N6    S    
C2    H9    S    
H14   N4    S    
Cu1   O8    S    
C16   C18   S    
C15   N8    S    
C12   O5    A    
Cu2   O7    S    
C6    C18   S    
C2    C8    S    
C2    C5    S    
C16   N3    S    
C4    C10   T    
C13   O6    A    
Cu2   O3    S    
C7    C9    S    
C12   O7    A    
C8    C10   S    
H12   N3    S    
C6    N5    S    
C4    C13   S    
C5    C7    S    
C6    C17   S    
C18   H1    S    
C14   C15   D    
C1    O3    A    
C11   O2    A    
Cu2   O6    S    
C3    C12   S    
C7    C17   S    
Cu1   O4    S    
C11   C15   S    
H7    N8    S    
H8    N8    S    
Cu2   O2    S    
H10   N1    S    
C14   N7    S    
C5    C16   S    
C17   N4    S    
