data_mof_unit_3233.cif
_audit_creation_date              2012-10-26T19:46:09-0400
_audit_creation_method            fapswitch 2.2
_symmetry_space_group_name_H-M    P1
_symmetry_Int_Tables_number       1
_space_group_crystal_system       triclinic
_cell_length_a                    10.852839
_cell_length_b                    9.672278
_cell_length_c                    15.94585
_cell_angle_alpha                 90.683302
_cell_angle_beta                  93.611629
_cell_angle_gamma                 90.383346
_cell_volume                      1670.3730041

loop_
_atom_site_label
_atom_site_type_symbol
_atom_type_description
_atom_site_fract_x
_atom_site_fract_y
_atom_site_fract_z
_atom_type_partial_charge
C1    C     C_R   0.263193 0.500540 0.506857 0.552796
C2    C     C_R   0.939019 0.630852 0.533446 0.105654
C3    C     C_R   0.874252 0.503966 0.527621 0.000739
C4    C     C_R   0.130971 0.504305 0.524190 -0.030053
C5    C     C_R   0.434065 0.072893 0.438229 0.228093
C6    C     C_R   0.433223 0.923303 0.438690 0.231871
C7    C     C_R   0.500362 0.499234 0.340425 0.539016
C8    C     C_R   0.560633 0.928744 0.562971 0.211930
C9    C     C_R   0.560141 0.074405 0.563351 0.214936
C10   C     C_R   0.738021 0.500869 0.509991 0.558311
C11   C     C_R   0.501725 0.500768 0.659272 0.512758
C12   C     C_3   0.650054 0.571348 0.956092 0.279513
C13   C     C_3   0.395754 0.589223 0.046335 0.281334
C14   C     C_3   0.502059 0.339390 0.044665 0.325504
C15   C     C_3   0.504616 0.344371 0.943399 0.198275
C16   C     C_3   0.402293 0.591276 0.944470 0.264555
C17   C     C_1   0.508312 0.502811 0.748505 -0.058967
C18   C     C_3   0.515272 0.498042 0.082429 0.065079
C19   C     C_3   0.519455 0.504046 0.916691 0.129680
C20   C     C_3   0.155805 0.572014 0.055513 -0.332475
C21   C     C_3   0.369225 0.229306 0.154486 -0.302948
C22   C     C_3   0.589552 0.100605 0.075205 -0.303411
C23   C     C_3   0.646897 0.569691 0.059410 0.272823
C24   C     C_3   0.305992 0.830970 0.072306 -0.327143
C25   C     C_3   0.773488 0.774393 0.125920 -0.315820
C26   C     C_3   0.773454 0.456428 0.184716 -0.301772
C27   C     C_3   0.667064 0.752037 0.838559 -0.291410
C28   C     C_3   0.874489 0.550670 0.912728 -0.323937
C29   C     C_3   0.130343 0.138655 0.559142 -0.301737
C30   C     C_3   0.199225 0.795839 0.609550 -0.261404
C31   C     C_3   0.886595 0.294325 0.684479 -0.305153
C32   C     C_3   0.888237 0.744704 0.660563 -0.318970
C33   C     C_3   0.242400 0.146240 0.360380 -0.288418
C34   C     C_1   0.515181 0.504976 0.823911 0.038892
C35   C     C_3   0.380326 0.845950 0.293623 -0.293924
C36   C     C_1   0.511125 0.495997 0.175449 -0.018619
C37   C     C_1   0.505269 0.497408 0.250848 -0.082313
C38   C     C_R   0.070105 0.384097 0.549967 0.102410
C39   C     C_R   0.067346 0.631917 0.526449 0.104817
C40   C     C_R   0.940165 0.383946 0.551096 0.120210
Cu1   Cu    Cu3+1 0.500020 0.640660 0.500000 0.951448
Cu2   Cu    Cu3+1 0.500020 0.359340 0.500000 0.943363
H1    H     H_    0.246676 0.453320 0.931462 0.269564
H2    H     H_    0.094235 0.480076 0.047840 0.125874
H3    H     H_    0.144656 0.632479 0.997669 0.141523
H4    H     H_    0.122420 0.634538 0.108246 0.124871
H5    H     H_    0.303302 0.288924 0.034238 0.276437
H6    H     H_    0.302087 0.294420 0.185943 0.127523
H7    H     H_    0.457280 0.230017 0.193280 0.180350
H8    H     H_    0.331268 0.123037 0.152324 0.112503
H9    H     H_    0.689878 0.275388 0.059395 0.279593
H10   H     H_    0.671204 0.052057 0.048522 0.112551
H11   H     H_    0.507812 0.066914 0.034924 0.164363
H12   H     H_    0.224584 0.601409 0.877795 0.205761
H13   H     H_    0.582486 0.060927 0.139713 0.141540
H14   H     H_    0.442971 0.736186 0.143933 0.255724
H15   H     H_    0.348319 0.934768 0.073360 0.126604
H16   H     H_    0.243268 0.826317 0.124441 0.131430
H17   H     H_    0.252160 0.820217 0.011816 0.151726
H18   H     H_    0.616954 0.276586 0.848679 0.233489
H19   H     H_    0.588273 0.155267 0.916256 0.232068
H20   H     H_    0.332637 0.781391 0.893791 0.207399
H21   H     H_    0.465865 0.801354 0.952630 0.258035
H22   H     H_    0.604518 0.785521 0.062781 0.261664
H23   H     H_    0.394798 0.279217 0.837318 0.236620
H24   H     H_    0.762663 0.887196 0.135612 0.113221
H25   H     H_    0.846492 0.758961 0.081315 0.116971
H26   H     H_    0.805005 0.734744 0.188060 0.159381
H27   H     H_    0.838302 0.523281 0.074493 0.254745
H28   H     H_    0.872796 0.435965 0.200732 0.106122
H29   H     H_    0.723296 0.360271 0.198440 0.175037
H30   H     H_    0.744608 0.539198 0.227334 0.163316
H31   H     H_    0.736008 0.770192 0.959904 0.250897
H32   H     H_    0.728331 0.842977 0.830681 0.115444
H33   H     H_    0.573718 0.782555 0.814546 0.180523
H34   H     H_    0.382775 0.178416 0.919962 0.222344
H35   H     H_    0.699665 0.667271 0.798947 0.154774
H36   H     H_    0.769824 0.396290 0.957579 0.276673
H37   H     H_    0.947183 0.470099 0.915865 0.114084
H38   H     H_    0.901994 0.631544 0.960059 0.121804
H39   H     H_    0.875040 0.593582 0.848873 0.147179
H40   H     H_    0.219940 0.304613 0.626321 0.264818
H41   H     H_    0.090443 0.071831 0.606431 0.135634
H42   H     H_    0.223858 0.100653 0.547039 0.151331
H43   H     H_    0.070067 0.132509 0.500274 0.128544
H44   H     H_    0.091477 0.842759 0.499364 0.220320
H45   H     H_    0.659670 0.775048 0.616225 0.299953
H46   H     H_    0.140328 0.857537 0.649718 0.100891
H47   H     H_    0.282073 0.858508 0.597466 0.151267
H48   H     H_    0.229951 0.702014 0.644397 0.161016
H49   H     H_    0.894858 0.178522 0.573350 0.263249
H50   H     H_    0.840272 0.205971 0.713566 0.151415
H51   H     H_    0.840086 0.391266 0.702537 0.140979
H52   H     H_    0.984094 0.297244 0.710078 0.166574
H53   H     H_    0.906650 0.842477 0.546132 0.249514
H54   H     H_    0.857086 0.844844 0.686247 0.153769
H55   H     H_    0.983264 0.725252 0.687067 0.135694
H56   H     H_    0.548315 0.842431 0.675384 0.224861
H57   H     H_    0.828270 0.660213 0.681685 0.130561
H58   H     H_    0.418594 0.129538 0.314854 0.224269
H59   H     H_    0.208320 0.250588 0.376017 0.176642
H60   H     H_    0.200556 0.069198 0.400700 0.111574
H61   H     H_    0.210435 0.122327 0.294253 0.095831
H62   H     H_    0.261136 0.849361 0.392090 0.241455
H63   H     H_    0.329111 0.928591 0.259454 0.103117
H64   H     H_    0.347921 0.745886 0.265399 0.150775
H65   H     H_    0.481026 0.857759 0.286116 0.154188
H66   H     H_    0.662208 0.230865 0.616746 0.304221
H67   H     H_    0.553609 0.162893 0.678233 0.229125
H68   H     H_    0.288192 0.503406 0.138332 0.254836
N1    N     N_R   0.500030 0.852070 0.500020 -0.241443
N2    N     N_2   0.403401 0.729452 0.083850 -0.526698
N3    N     N_3   0.607109 0.260906 0.912614 -0.666617
N4    N     N_3   0.415687 0.733605 0.912299 -0.623958
N5    N     N_2   0.655819 0.712516 0.094946 -0.502556
N6    N     N_2   0.755281 0.492864 0.096197 -0.520788
N7    N     N_2   0.667228 0.715313 0.926942 -0.505652
N8    N     N_2   0.755050 0.488467 0.927797 -0.492962
N9    N     N_2   0.139050 0.277897 0.592404 -0.504042
N10   N     N_2   0.133034 0.760624 0.530090 -0.495181
N11   N     N_2   0.879065 0.277752 0.593692 -0.497750
N12   N     N_R   0.500030 0.147930 0.500020 -0.238523
N13   N     N_2   0.882378 0.747918 0.569327 -0.486640
N14   N     N_2   0.376082 0.145366 0.369858 -0.450593
N15   N     N_2   0.353529 0.846550 0.381133 -0.448626
N16   N     N_3   0.290726 0.529891 0.899030 -0.607120
N17   N     N_3   0.390719 0.281960 0.902644 -0.650107
N18   N     N_3   0.617613 0.864729 0.635060 -0.619416
N19   N     N_3   0.619745 0.141298 0.635152 -0.613659
N20   N     N_2   0.281521 0.525217 0.075373 -0.500084
N21   N     N_2   0.384993 0.276286 0.069494 -0.490706
N22   N     N_2   0.603978 0.250679 0.077731 -0.484116
O1    O     O_R   0.319660 0.618740 0.500000 -0.450075
O2    O     O_R   0.319660 0.381260 0.500000 -0.482841
O3    O     O_R   0.500020 0.618840 0.379440 -0.465464
O4    O     O_R   0.500020 0.381160 0.379440 -0.470647
O5    O     O_R   0.680370 0.618830 0.500010 -0.485990
O6    O     O_R   0.680370 0.381170 0.500010 -0.492788
O7    O     O_R   0.500010 0.618730 0.620560 -0.534791
O8    O     O_R   0.500010 0.381270 0.620560 -0.531846

loop_
_geom_bond_atom_site_label_1
_geom_bond_atom_site_label_2
_ccdc_geom_bond_type
Cu1   N1    S    
H27   N6    S    
Cu2   O6    S    
C26   H30   S    
Cu1   Cu2   S    
C14   C18   S    
C24   N2    S    
C30   H48   S    
Cu1   O1    S    
C14   N22   S    
C2    N13   S    
C15   C19   S    
C40   N11   S    
C29   N9    S    
C5    N14   S    
C13   C18   S    
C33   H59   S    
H23   N17   S    
C36   C37   T    
H36   N8    S    
H20   N4    S    
C13   N2    S    
C25   N5    S    
C5    C6    A    
C1    O1    A    
C39   N10   S    
C32   H55   S    
Cu2   O4    S    
C6    N1    A    
C35   N15   S    
C28   H37   S    
C11   O7    A    
C21   H8    S    
C23   N6    S    
H21   N4    S    
C2    C39   A    
C8    N18   S    
C21   N21   S    
H62   N15   S    
C8    C9    A    
C25   H25   S    
C33   N14   S    
C13   N20   S    
C15   N3    S    
C10   O5    A    
C27   H32   S    
Cu1   O5    S    
C20   H3    S    
C21   H6    S    
H56   N18   S    
H22   N5    S    
C15   N17   S    
C26   H29   S    
C32   N13   S    
H18   N3    S    
C25   H26   S    
H40   N9    S    
C30   H47   S    
C27   H33   S    
H1    N16   S    
C21   H7    S    
H45   N18   S    
C20   H2    S    
C22   H11   S    
C14   N21   S    
C27   N7    S    
C16   C19   S    
H31   N7    S    
Cu2   O8    S    
C18   C23   S    
C31   N11   S    
C29   H42   S    
C8    N1    A    
C24   H15   S    
C31   H51   S    
C5    N12   A    
C33   H60   S    
H5    N21   S    
H58   N14   S    
C11   O8    A    
C7    O3    A    
C35   H63   S    
H12   N16   S    
C12   C23   S    
C4    C39   A    
C9    N12   A    
C7    C37   S    
H66   N19   S    
C12   N8    S    
C38   N9    S    
C32   H54   S    
C4    C38   A    
C3    C40   A    
H19   N3    S    
C26   H28   S    
C17   C34   T    
C30   H46   S    
C1    O2    A    
Cu1   O3    S    
Cu2   N12   S    
C22   H10   S    
H53   N13   S    
C11   C17   S    
C22   N22   S    
C28   H39   S    
C33   H61   S    
C29   H43   S    
C25   H24   S    
C6    N15   S    
C20   N20   S    
C27   H35   S    
C19   C34   S    
C16   N4    S    
H9    N22   S    
C29   H41   S    
C22   H13   S    
C9    N19   S    
C31   H52   S    
C32   H57   S    
Cu2   O2    S    
C1    C4    S    
C2    C3    A    
C7    O4    A    
C3    C10   S    
C28   N8    S    
C38   C40   A    
C18   C36   S    
C30   N10   S    
C24   H17   S    
C12   C19   S    
H68   N20   S    
C28   H38   S    
C26   N6    S    
Cu1   O7    S    
C35   H65   S    
C23   N5    S    
C12   N7    S    
C24   H16   S    
C31   H50   S    
H49   N11   S    
C13   C16   S    
C35   H64   S    
H34   N17   S    
C14   C15   S    
H44   N10   S    
C10   O6    A    
H67   N19   S    
C16   N16   S    
H14   N2    S    
C20   H4    S    
