data_mof_unit_283.cif
_audit_creation_date              2013-03-05T16:07:15-0500
_audit_creation_method            fapswitch 2.2
_symmetry_space_group_name_H-M    P1
_symmetry_Int_Tables_number       1
_space_group_crystal_system       triclinic
_cell_length_a                    10.790149
_cell_length_b                    9.613216
_cell_length_c                    17.782701
_cell_angle_alpha                 89.613775
_cell_angle_beta                  92.597583
_cell_angle_gamma                 89.951367
_cell_volume                      1842.62617878

loop_
_atom_site_label
_atom_site_type_symbol
_atom_site_description
_atom_site_fract_x
_atom_site_fract_y
_atom_site_fract_z
_atom_type_partial_charge
O1    O     O_R   0.319640 0.618740 0.499990 -0.550176
O2    O     O_R   0.680360 0.381260 0.500010 -0.551470
O3    O     O_R   0.680360 0.618740 0.500010 -0.614689
O4    O     O_R   0.319640 0.381260 0.499990 -0.615293
C1    C     C_R   0.262898 0.499968 0.500137 0.810310
C2    C     C_R   0.737103 0.500027 0.499880 0.810481
O5    O     O_R   0.500000 0.618830 0.391250 -0.577767
O6    O     O_R   0.500000 0.381170 0.608750 -0.577713
O7    O     O_R   0.500000 0.618830 0.608750 -0.577633
O8    O     O_R   0.500000 0.381170 0.391250 -0.577605
C3    C     C_R   0.060280 0.478914 0.431710 0.004028
C4    C     C_R   0.939719 0.521067 0.568358 0.003648
C5    C     C_R   0.929867 0.479868 0.431295 -0.087247
C6    C     C_R   0.070153 0.519811 0.568805 -0.087676
C7    C     C_R   0.508571 0.500530 0.355800 0.823051
C8    C     C_R   0.491528 0.499473 0.644208 0.823173
Cu1   Cu    Cu3+1 0.500000 0.640660 0.500000 1.013283
Cu2   Cu    Cu3+1 0.500000 0.359340 0.500000 1.012804
C9    C     C_R   0.871367 0.500192 0.499815 -0.116928
C10   C     C_R   0.128638 0.499758 0.500244 -0.116656
N1    N     N_R   0.500000 0.852070 0.500000 -0.244499
N2    N     N_R   0.500000 0.147930 0.500000 -0.244355
C11   C     C_R   0.473232 0.623804 0.846471 -0.202272
C12   C     C_R   0.526224 0.376527 0.153445 -0.202441
C13   C     C_R   0.503362 0.625998 0.152014 -0.199517
C14   C     C_R   0.497684 0.374521 0.848113 -0.199413
H1    H     H_    0.463140 0.719800 0.877420 0.130144
H2    H     H_    0.535726 0.280529 0.122415 0.130093
H3    H     H_    0.495177 0.722388 0.120002 0.131727
H4    H     H_    0.506520 0.278270 0.880204 0.131754
C15   C     C_R   0.460813 0.624664 0.767880 -0.033255
C16   C     C_R   0.538699 0.375393 0.232034 -0.033078
C17   C     C_R   0.515470 0.629456 0.230475 -0.003882
C18   C     C_R   0.485664 0.370781 0.769656 -0.003053
C19   C     C_R   0.476600 0.498033 0.727448 -0.074881
C20   C     C_R   0.523650 0.502029 0.272572 -0.075092
C21   C     C_R   0.422105 0.074507 0.450952 0.106118
C22   C     C_R   0.577868 0.925479 0.549047 0.106397
C23   C     C_R   0.581793 0.074014 0.546195 0.072595
C24   C     C_R   0.418303 0.925957 0.453751 0.071170
C25   C     C_R   0.492752 0.500025 0.885983 0.138770
C26   C     C_R   0.507431 0.500540 0.114039 0.138870
C27   C     C_1   0.498174 0.500421 0.966298 -0.019599
C28   C     C_1   0.501972 0.500329 0.033722 -0.019635
C29   C     C_2   0.423234 0.759671 0.732913 0.470400
H5    H     H_    0.457993 0.855909 0.757489 0.085962
O9    O     O_2   0.346148 0.765958 0.680607 -0.485244
C30   C     C_2   0.575622 0.240076 0.266875 0.469902
H6    H     H_    0.540315 0.144122 0.242246 0.085110
O10   O     O_2   0.652796 0.233177 0.319113 -0.484489
C31   C     C_2   0.526673 0.769889 0.263761 0.364133
H7    H     H_    0.463910 0.852095 0.244166 0.082642
O11   O     O_2   0.611880 0.797919 0.308627 -0.506321
C32   C     C_2   0.475641 0.230173 0.736493 0.363373
H8    H     H_    0.539350 0.148794 0.755983 0.083722
O12   O     O_2   0.390405 0.201007 0.691875 -0.506450
C33   C     C_2   0.348442 0.147089 0.389646 0.425067
H9    H     H_    0.305165 0.245764 0.397451 0.117974
O13   O     O_2   0.336254 0.095932 0.327069 -0.599830
C34   C     C_2   0.651343 0.852897 0.610412 0.427059
H10   H     H_    0.694961 0.754414 0.602567 0.117406
O14   O     O_2   0.663014 0.903876 0.673058 -0.599319
C35   C     C_2   0.683530 0.147083 0.588117 0.533814
H11   H     H_    0.665287 0.229006 0.627002 0.119840
O15   O     O_2   0.791233 0.113646 0.579756 -0.506827
C36   C     C_2   0.316817 0.852771 0.411699 0.537004
H12   H     H_    0.335423 0.772115 0.372109 0.118189
O16   O     O_2   0.208971 0.884889 0.420646 -0.506005
C37   C     C_2   0.125870 0.459328 0.360692 0.375738
H13   H     H_    0.104706 0.370890 0.324912 0.148161
O17   O     O_2   0.204514 0.542016 0.341744 -0.575037
C38   C     C_2   0.874090 0.541093 0.639324 0.376837
H14   H     H_    0.895531 0.629517 0.675061 0.148273
O18   O     O_2   0.795104 0.458833 0.658274 -0.576054
C39   C     C_2   0.852475 0.471753 0.359625 0.468934
H15   H     H_    0.764938 0.526857 0.354441 0.071559
O19   O     O_2   0.883380 0.402239 0.306455 -0.519307
C40   C     C_2   0.147593 0.527240 0.640504 0.470135
H16   H     H_    0.235454 0.472753 0.645365 0.071037
O20   O     O_2   0.116343 0.595355 0.694109 -0.519978

loop_
_geom_bond_atom_site_label_1
_geom_bond_atom_site_label_2
_geom_bond_distance
_ccdc_geom_bond_type
C36   O16   1.221318 D    
C35   O15   1.221338 D    
O2    Cu2   1.957656 S    
C12   C26   1.388841 A    
C39   H15   1.082528 S    
O3    C2    1.294695 A    
C1    C10   1.448774 S    
C29   H5    1.085709 S    
C2    C9    1.448777 S    
O1    C1    1.296075 A    
C16   C20   1.431840 A    
O7    C8    1.310779 A    
C21   C24   1.429265 A    
O8    C7    1.310828 A    
C8    C19   1.496176 S    
C22   C23   1.429188 A    
C40   O20   1.219961 D    
C33   O13   1.221347 D    
C17   C20   1.431866 A    
C34   O14   1.221391 D    
C18   C19   1.431838 A    
C37   O17   1.220222 D    
C14   C18   1.396027 A    
N1    C22   1.381136 A    
C5    C39   1.494222 S    
O5    Cu1   1.946628 S    
C11   H1    1.085571 S    
O4    Cu2   1.957300 S    
O5    C7    1.309210 A    
C36   H12   1.075660 S    
C4    C38   1.488350 S    
O6    C8    1.309215 A    
C24   C36   1.479016 S    
C25   C27   1.426804 S    
O2    C2    1.296033 A    
C26   C28   1.426800 S    
C29   O9    1.220524 D    
C13   H3    1.085672 S    
C32   O12   1.221181 D    
C3    C10   1.411218 A    
C5    C9    1.412107 A    
C31   H7    1.085608 S    
C6    C10   1.412289 A    
C38   O18   1.220176 D    
C40   H16   1.082463 S    
O4    C1    1.294652 A    
N2    C21   1.381388 A    
Cu1   N1    2.032330 S    
C34   H10   1.069704 S    
C31   O11   1.221181 D    
C11   C15   1.397886 A    
C27   C28   1.197821 T    
C12   C16   1.397870 A    
Cu1   Cu2   2.704390 S    
C39   O19   1.220034 D    
C22   C34   1.488817 S    
O7    Cu1   1.943815 S    
C30   H6    1.085696 S    
C4    C6    1.407103 A    
C14   H4    1.085678 S    
C15   C19   1.431922 A    
C7    C20   1.496223 S    
C32   H8    1.085602 S    
Cu2   N2    2.032331 S    
C12   H2    1.085571 S    
C38   H14   1.083614 S    
C13   C26   1.387844 A    
C3    C37   1.488349 S    
C18   C32   1.480469 S    
C17   C31   1.480568 S    
C23   C35   1.479336 S    
O1    Cu1   1.957656 S    
C11   C25   1.388818 A    
C3    C5    1.406888 A    
C33   H9    1.069595 S    
C16   C30   1.483453 S    
N1    C24   1.372341 A    
O8    Cu2   1.943815 S    
N2    C23   1.372578 A    
C4    C9    1.411355 A    
C30   O10   1.220537 D    
O3    Cu1   1.957300 S    
C6    C40   1.494559 S    
C37   H13   1.083625 S    
O6    Cu2   1.946628 S    
C35   H11   1.075422 S    
C15   C29   1.483523 S    
C21   C33   1.489088 S    
C14   C25   1.387834 A    
C13   C17   1.396063 A    
