data_mof_unit_3962.cif
_audit_creation_date              2013-03-05T16:35:37-0500
_audit_creation_method            fapswitch 2.2
_symmetry_space_group_name_H-M    P1
_symmetry_Int_Tables_number       1
_space_group_crystal_system       triclinic
_cell_length_a                    7.79335
_cell_length_b                    9.087235
_cell_length_c                    17.31354
_cell_angle_alpha                 89.991424
_cell_angle_beta                  85.145372
_cell_angle_gamma                 89.911479
_cell_volume                      1221.74485226

loop_
_atom_site_label
_atom_site_type_symbol
_atom_site_description
_atom_site_fract_x
_atom_site_fract_y
_atom_site_fract_z
_atom_type_partial_charge
O1    O     O_R   0.357240 0.711600 0.500000 -0.576176
O2    O     O_R   0.642760 0.288400 0.500000 -0.576174
O3    O     O_R   0.642760 0.711600 0.500000 -0.577688
O4    O     O_R   0.357240 0.288400 0.500000 -0.577685
H1    H     H_    0.316291 0.276040 0.885508 0.134458
H2    H     H_    0.683709 0.723928 0.114484 0.134457
C1    C     C_R   0.499925 0.779929 0.500027 0.838942
C2    C     C_R   0.500075 0.220071 0.499973 0.838937
O5    O     O_R   0.340660 0.500000 0.613590 -0.583578
O6    O     O_R   0.659340 0.500000 0.386410 -0.583575
O7    O     O_R   0.626230 0.500000 0.613600 -0.581957
O8    O     O_R   0.373770 0.500000 0.386400 -0.581954
C3    C     C_R   0.476466 0.499340 0.650007 0.813576
C4    C     C_R   0.523534 0.500661 0.349994 0.813581
Cu1   Cu    Cu3+1 0.330920 0.500000 0.500000 0.996509
Cu2   Cu    Cu3+1 0.669080 0.500000 0.500000 0.996510
H3    H     H_    0.444850 0.298351 0.110833 0.134680
H4    H     H_    0.555336 0.701540 0.889172 0.134671
N1    N     N_1   0.923170 0.500000 0.500010 -0.050194
N2    N     N_1   0.076830 0.500000 0.499990 -0.050193
C5    C     C_R   0.459855 0.496414 0.734318 -0.034054
C6    C     C_R   0.540153 0.503571 0.265683 -0.034034
C7    C     C_R   0.521743 0.615785 0.776070 0.112722
C8    C     C_R   0.478343 0.384162 0.223935 0.112723
C9    C     C_R   0.510181 0.609379 0.856834 -0.140439
C10   C     C_R   0.489951 0.390536 0.143169 -0.140451
C11   C     C_R   0.439786 0.485547 0.895975 0.090731
C12   C     C_R   0.560321 0.514372 0.104023 0.090724
C13   C     C_R   0.372322 0.370532 0.854571 -0.159821
C14   C     C_R   0.627703 0.629430 0.145424 -0.159801
C15   C     C_R   0.382389 0.373954 0.773690 0.120096
C16   C     C_R   0.617584 0.626041 0.226306 0.120105
C17   C     C_2   0.436630 0.472778 0.980433 -0.205406
C18   C     C_2   0.563507 0.527113 0.019564 -0.205419
C19   C     C_1   0.499899 0.934606 0.500010 -0.180052
C20   C     C_1   0.500101 0.065394 0.499989 -0.180057
H5    H     H_    0.669593 0.587217 0.989565 0.149197
H6    H     H_    0.330545 0.412675 0.010435 0.149201
C21   C     C_3   0.597148 0.750997 0.735538 -0.854147
H7    H     H_    0.630724 0.836752 0.777413 0.227068
H8    H     H_    0.716416 0.721435 0.699220 0.252140
H9    H     H_    0.502456 0.799270 0.698226 0.221623
C22   C     C_3   0.402975 0.248944 0.264475 -0.854168
H10   H     H_    0.369449 0.163164 0.222605 0.227076
H11   H     H_    0.497669 0.200714 0.301799 0.221630
H12   H     H_    0.283685 0.278487 0.300782 0.252130
C23   C     C_3   0.683951 0.755465 0.269542 -0.845926
H13   H     H_    0.578905 0.801805 0.309713 0.219514
H14   H     H_    0.791826 0.719966 0.303170 0.251679
H15   H     H_    0.732281 0.844594 0.229529 0.226479
C24   C     C_3   0.315931 0.244572 0.730451 -0.845862
H16   H     H_    0.420931 0.198210 0.690263 0.219506
H17   H     H_    0.267582 0.155443 0.770459 0.226464
H18   H     H_    0.208046 0.280124 0.696841 0.251682

loop_
_geom_bond_atom_site_label_1
_geom_bond_atom_site_label_2
_geom_bond_distance
_ccdc_geom_bond_type
C22   H10   1.110973 S    
O1    Cu1   1.934084 S    
C9    C11   1.401870 A    
C18   H5    1.086388 S    
C22   H11   1.110829 S    
O7    Cu2   1.966906 S    
N1    N2    1.197498 T    
C10   C12   1.401870 A    
C23   H13   1.110804 S    
O8    Cu1   1.966907 S    
O4    C2    1.273756 A    
C24   H18   1.109872 S    
C4    C6    1.454734 S    
O4    Cu1   1.933454 S    
C12   C14   1.395843 A    
C17   C18   1.339969 D    
O5    Cu1   1.974518 S    
C12   C18   1.464969 S    
C13   C15   1.396237 A    
O6    Cu2   1.974518 S    
C11   C17   1.464980 S    
C14   C16   1.396231 A    
O7    C3    1.278716 A    
C5    C15   1.414117 A    
H4    C9    1.083097 S    
C6    C16   1.414115 A    
Cu2   N1    1.980226 S    
C7    C21   1.509859 S    
H3    C10   1.083092 S    
C22   H12   1.109901 S    
O8    C4    1.278717 A    
C23   H15   1.111032 S    
O3    C1    1.273756 A    
C7    C9    1.394803 A    
C5    C7    1.411639 A    
O6    C4    1.276974 A    
Cu1   N2    1.980227 S    
C16   C23   1.509559 S    
C6    C8    1.411629 A    
C11   C13   1.395851 A    
C3    C5    1.454740 S    
Cu1   Cu2   2.635399 S    
H1    C13   1.084584 S    
O2    Cu2   1.934085 S    
C21   H8    1.109896 S    
C23   H14   1.109864 S    
C2    C20   1.405587 S    
C15   C24   1.509569 S    
C21   H7    1.110979 S    
C8    C22   1.509858 S    
O5    C3    1.276981 A    
C21   H9    1.110834 S    
C17   H6    1.086390 S    
H2    C14   1.084586 S    
O1    C1    1.274480 A    
C1    C19   1.405587 S    
O2    C2    1.274480 A    
O3    Cu2   1.933453 S    
C24   H16   1.110807 S    
C8    C10   1.394810 A    
C24   H17   1.111036 S    
C19   C20   1.188500 T    
