data_mof_unit_1792.cif
_audit_creation_date              2013-03-05T15:47:47-0500
_audit_creation_method            fapswitch 2.2
_symmetry_space_group_name_H-M    P1
_symmetry_Int_Tables_number       1
_space_group_crystal_system       triclinic
_cell_length_a                    10.872243
_cell_length_b                    13.05801
_cell_length_c                    11.646241
_cell_angle_alpha                 99.964513
_cell_angle_beta                  93.883651
_cell_angle_gamma                 90.036317
_cell_volume                      1624.60564819

loop_
_atom_site_label
_atom_site_type_symbol
_atom_site_description
_atom_site_fract_x
_atom_site_fract_y
_atom_site_fract_z
_atom_type_partial_charge
O1    O     O_R   0.506570 0.354460 0.582000 -0.570506
O2    O     O_R   0.493430 0.645540 0.418000 -0.602111
O3    O     O_R   0.490940 0.341410 0.386200 -0.580006
O4    O     O_R   0.509060 0.658590 0.613800 -0.591534
C1    C     C_R   0.500766 0.299756 0.478854 0.847006
C2    C     C_R   0.497838 0.701222 0.521126 0.891499
O5    O     O_R   0.327470 0.506520 0.597900 -0.606682
O6    O     O_R   0.672530 0.493480 0.402100 -0.596950
O7    O     O_R   0.311840 0.493460 0.402100 -0.604967
O8    O     O_R   0.688160 0.506540 0.597900 -0.586047
C3    C     C_R   0.262940 0.512993 0.501956 0.853396
C4    C     C_R   0.738443 0.505055 0.499399 0.912365
Cu1   Cu    Cu3+1 0.509250 0.507730 0.615930 0.993157
Cu2   Cu    Cu3+1 0.490750 0.492270 0.384070 0.973084
C5    C     C_R   0.127973 0.597184 0.721275 -0.122722
C6    C     C_R   0.880586 0.443236 0.285239 -0.197723
C7    C     C_R   0.068046 0.657791 0.810315 -0.057635
C8    C     C_R   0.935015 0.447490 0.181359 -0.125764
C9    C     C_R   0.950880 0.695000 0.787822 0.366575
C10   C     C_R   0.040874 0.507714 0.182291 0.376047
C11   C     C_R   0.885995 0.659211 0.679623 -0.086880
C12   C     C_R   0.102421 0.552364 0.289733 -0.088748
C13   C     C_R   0.939324 0.581525 0.596912 0.017157
C14   C     C_R   0.058198 0.529316 0.395293 0.016614
C15   C     C_R   0.068037 0.567762 0.608386 0.062666
C16   C     C_R   0.935198 0.496018 0.393071 0.072937
C17   C     C_R   0.872371 0.523753 0.497232 -0.094052
C18   C     C_R   0.129728 0.537095 0.503578 -0.101354
H1    H     H_    0.222606 0.582275 0.743790 0.202495
H2    H     H_    0.796291 0.398605 0.277840 0.204205
H3    H     H_    0.118457 0.685220 0.893395 0.208911
H4    H     H_    0.889535 0.409961 0.099216 0.194689
C19   C     C_R   0.494203 0.815761 0.532930 -0.113997
C20   C     C_R   0.515753 0.187931 0.469193 -0.152168
C21   C     C_R   0.633214 0.031729 0.407489 -0.075759
C22   C     C_R   0.431474 0.984533 0.637071 -0.049328
C23   C     C_R   0.615383 0.138862 0.411123 -0.062826
C24   C     C_R   0.438464 0.875969 0.628584 -0.092449
C25   C     C_R   0.440275 0.133051 0.531464 -0.066582
C26   C     C_R   0.549499 0.866078 0.450287 -0.034805
C27   C     C_R   0.473973 0.031588 0.546064 0.122299
C28   C     C_R   0.553181 0.975719 0.467004 0.076993
N1    N     N_R   0.523180 0.519350 0.790130 -0.231385
N2    N     N_R   0.476820 0.480650 0.209870 -0.240511
C29   C     C_R   0.378828 0.405685 0.022158 0.351345
C30   C     C_R   0.624885 0.589315 0.977772 0.315870
C31   C     C_R   0.390726 0.415517 0.144617 0.010235
C32   C     C_R   0.611145 0.582210 0.855766 0.046368
C33   C     C_R   0.554723 0.536737 0.156950 0.054965
C34   C     C_R   0.446664 0.461056 0.842500 0.074900
C35   C     C_R   0.545919 0.531358 0.034045 -0.089528
C36   C     C_R   0.455795 0.465455 0.965499 -0.074813
H5    H     H_    0.378865 0.411009 0.787744 0.183135
H6    H     H_    0.623735 0.585343 0.211300 0.177754
H7    H     H_    0.671990 0.626514 0.813164 0.142106
H8    H     H_    0.330992 0.370386 0.187948 0.167629
Cl1   Cl    Cl    0.088986 0.529286 0.047181 -0.611246
Cl2   Cl    Cl    0.897366 0.797694 0.890365 -0.517061
Cl3   Cl    Cl    0.268243 0.316804 0.944015 -0.534367
Cl4   Cl    Cl    0.742872 0.669806 0.056627 -0.524528
C37   C     C_2   0.782601 0.722389 0.643061 0.413347
H9    H     H_    0.721175 0.760990 0.705963 0.105770
O9    O     O_2   0.770420 0.737653 0.542585 -0.567456
C38   C     C_2   0.197125 0.635114 0.291308 0.514199
H10   H     H_    0.246812 0.639158 0.214530 0.107698
O10   O     O_2   0.218479 0.701507 0.378083 -0.508219
C39   C     C_2   0.592115 0.805157 0.340440 0.483952
H11   H     H_    0.655560 0.741596 0.343224 0.137340
O11   O     O_2   0.555871 0.826187 0.245757 -0.521331
C40   C     C_2   0.318578 0.177058 0.566430 0.450340
H12   H     H_    0.304521 0.260382 0.585112 0.070901
O12   O     O_2   0.230276 0.119899 0.569337 -0.491057
C41   C     C_2   0.379606 0.826456 0.716604 0.394265
H13   H     H_    0.403950 0.851612 0.809111 0.066909
O13   O     O_2   0.299326 0.760358 0.685901 -0.519571
C42   C     C_2   0.706869 0.200443 0.361942 0.368614
H14   H     H_    0.730101 0.178120 0.271977 0.065310
O14   O     O_2   0.761083 0.273635 0.424072 -0.550210
C43   C     C_2   0.748416 0.985026 0.360016 0.467621
H15   H     H_    0.780179 0.003503 0.279595 0.086350
O15   O     O_2   0.811307 0.928785 0.413255 -0.462750
C44   C     C_2   0.390634 0.048745 0.746407 0.457332
H16   H     H_    0.319835 0.020214 0.794573 0.102960
O16   O     O_2   0.438909 0.133187 0.785536 -0.503684

loop_
_geom_bond_atom_site_label_1
_geom_bond_atom_site_label_2
_geom_bond_distance
_ccdc_geom_bond_type
N2    C33   1.363724 A    
C32   H7    1.077862 S    
C20   C23   1.411167 A    
C27   C28   1.413281 A    
C25   C27   1.410187 A    
C15   C18   1.429052 A    
O5    C3    1.294023 A    
C16   C17   1.424716 A    
O1    C1    1.284513 A    
C9    C11   1.406870 A    
C42   O14   1.219271 D    
C5    C15   1.417606 A    
C6    H2    1.076211 S    
C33   H6    1.078196 S    
C41   H13   1.085094 S    
O4    Cu1   1.974374 S    
C37   O9    1.219146 D    
C21   C28   1.424372 A    
C20   C25   1.404504 A    
C22   C44   1.493050 S    
C33   C35   1.417598 A    
C26   C39   1.487520 S    
C34   C36   1.420351 A    
C40   H12   1.085045 S    
C13   C17   1.424224 A    
N1    C32   1.362193 A    
C11   C37   1.477657 S    
N2    C31   1.362355 A    
C26   C28   1.411258 A    
Cu1   Cu2   2.666558 S    
C41   O13   1.218442 D    
C22   C27   1.416251 A    
O2    C2    1.289729 A    
C5    H1    1.070801 S    
C29   C31   1.406721 A    
C9    Cl2   1.761773 S    
C6    C16   1.415493 A    
C30   C32   1.405531 A    
C19   C26   1.419933 A    
C4    C17   1.478898 S    
C39   H11   1.082925 S    
C34   H5    1.081016 S    
C42   H14   1.084807 S    
O4    C2    1.296099 A    
C43   O15   1.221520 D    
C29   C36   1.413154 A    
C30   C35   1.409395 A    
C35   C36   1.411797 A    
C39   O11   1.221763 D    
C38   O10   1.221307 D    
O7    Cu2   1.970328 S    
O6    C4    1.284926 A    
C1    C20   1.455114 S    
O7    C3    1.296700 A    
O3    Cu2   1.974377 S    
O8    C4    1.300968 A    
C23   C42   1.483115 S    
C10   C12   1.409625 A    
C44   O16   1.221458 D    
C11   C13   1.425257 A    
C7    H3    1.082984 S    
C12   C14   1.428661 A    
O1    Cu1   1.971618 S    
Cu1   N1    2.003424 S    
C21   C23   1.406187 A    
Cu2   N2    2.003424 S    
C5    C7    1.390800 A    
C29   Cl3   1.762170 S    
O6    Cu2   1.973049 S    
C30   Cl4   1.760201 S    
C14   C18   1.424163 A    
C14   C16   1.403125 A    
O3    C1    1.288118 A    
O8    Cu1   1.970328 S    
N1    C34   1.368244 A    
C19   C24   1.419623 A    
C2    C19   1.478879 S    
C38   H10   1.084395 S    
C22   C24   1.406374 A    
C3    C18   1.482986 S    
C21   C43   1.491459 S    
C7    C9    1.388176 A    
C25   C40   1.496552 S    
C8    C10   1.391902 A    
C13   C15   1.411301 A    
C37   H9    1.084284 S    
O2    Cu2   1.971615 S    
C12   C38   1.489046 S    
C43   H15   1.084715 S    
O5    Cu1   1.973048 S    
C8    H4    1.083143 S    
C6    C8    1.391811 A    
C44   H16   1.084626 S    
C40   O12   1.221532 D    
C10   Cl1   1.758873 S    
C31   H8    1.081920 S    
C24   C41   1.481909 S    
