data_mof_unit_4912.cif
_audit_creation_date              2012-10-26T20:21:43-0400
_audit_creation_method            fapswitch 2.2
_symmetry_space_group_name_H-M    P1
_symmetry_Int_Tables_number       1
_space_group_crystal_system       monoclinic
_cell_length_a                    17.001058
_cell_length_b                    13.647393
_cell_length_c                    9.618695
_cell_angle_alpha                 90.0
_cell_angle_beta                  89.999932
_cell_angle_gamma                 90.0
_cell_volume                      2231.73076758

loop_
_atom_site_label
_atom_site_type_symbol
_atom_type_description
_atom_site_fract_x
_atom_site_fract_y
_atom_site_fract_z
_atom_type_partial_charge
C1    C     C_R   0.122611 0.386816 0.500571 0.592918
C2    C     C_R   0.000611 0.588848 0.924196 0.313516
C3    C     C_R   0.999389 0.588848 0.075804 0.313516
C4    C     C_R   0.999389 0.411152 0.924196 0.313516
C5    C     C_R   0.500611 0.911152 0.075804 0.313516
C6    C     C_R   0.500611 0.088848 0.924196 0.313516
C7    C     C_R   0.499389 0.088848 0.075804 0.313516
C8    C     C_R   0.499389 0.911152 0.924196 0.313516
C9    C     C_R   0.776704 0.288746 0.369048 0.224335
C10   C     C_R   0.226195 0.708699 0.622324 0.220397
C11   C     C_R   0.223297 0.711253 0.369048 0.224336
C12   C     C_R   0.877389 0.613184 0.500571 0.592919
C13   C     C_R   0.773805 0.291301 0.622324 0.220399
C14   C     C_R   0.223296 0.288747 0.630952 0.224334
C15   C     C_R   0.773805 0.708699 0.377676 0.220397
C16   C     C_R   0.776703 0.711253 0.630952 0.224336
C17   C     C_R   0.226195 0.291301 0.377675 0.220397
C18   C     C_R   0.276704 0.788746 0.369048 0.224336
C19   C     C_R   0.726196 0.208698 0.622324 0.220397
C20   C     C_R   0.723296 0.211254 0.369048 0.224337
C21   C     C_R   0.273804 0.791302 0.622324 0.220397
C22   C     C_R   0.723296 0.788746 0.630952 0.224336
C23   C     C_R   0.877389 0.386816 0.499429 0.592923
C24   C     C_R   0.273804 0.208699 0.377676 0.220397
C25   C     C_R   0.276704 0.211254 0.630952 0.224336
C26   C     C_R   0.726196 0.791302 0.377676 0.220397
C27   C     C_R   0.193366 0.675274 0.496684 -0.078848
C28   C     C_R   0.806634 0.324725 0.496685 -0.078847
C29   C     C_R   0.806634 0.675275 0.503316 -0.078848
C30   C     C_R   0.193366 0.324725 0.503315 -0.078849
C31   C     C_R   0.693366 0.175275 0.496684 -0.078849
C32   C     C_R   0.306634 0.824725 0.496684 -0.078848
C33   C     C_R   0.306634 0.175275 0.503316 -0.078848
C34   C     C_R   0.122611 0.613184 0.499429 0.592920
C35   C     C_R   0.693366 0.824725 0.503316 -0.078848
C36   C     C_R   0.622611 0.886816 0.500571 0.592920
C37   C     C_R   0.377389 0.113184 0.500571 0.592920
C38   C     C_R   0.377389 0.886816 0.499429 0.592920
C39   C     C_R   0.622611 0.113184 0.499429 0.592919
C40   C     C_R   0.000611 0.411152 0.075804 0.313516
Cl1   Cl    Cl    0.796507 0.346058 0.206812 -0.303443
Cl2   Cl    Cl    0.722188 0.138281 0.776764 -0.308590
Cl3   Cl    Cl    0.703492 0.153943 0.206812 -0.303441
Cl4   Cl    Cl    0.277810 0.861720 0.776763 -0.308591
Cl5   Cl    Cl    0.703491 0.846056 0.793188 -0.303441
Cl6   Cl    Cl    0.277812 0.138281 0.223236 -0.308591
Cl7   Cl    Cl    0.296508 0.153943 0.793188 -0.303441
Cl8   Cl    Cl    0.722190 0.861720 0.223237 -0.308590
Cl9   Cl    Cl    0.222187 0.638282 0.776765 -0.308589
Cl10  Cl    Cl    0.203493 0.653941 0.206812 -0.303442
Cl11  Cl    Cl    0.777812 0.361718 0.776765 -0.308590
Cl12  Cl    Cl    0.203493 0.346058 0.793187 -0.303443
Cl13  Cl    Cl    0.777813 0.638282 0.223235 -0.308590
Cl14  Cl    Cl    0.796507 0.653941 0.793188 -0.303442
Cl15  Cl    Cl    0.222188 0.361718 0.223235 -0.308589
Cl16  Cl    Cl    0.296509 0.846056 0.206812 -0.303442
Cu1   Cu    Cu3+1 1.000000 0.500000 0.640660 1.258187
Cu2   Cu    Cu3+1 0.000000 0.500000 0.359340 1.258187
Cu3   Cu    Cu3+1 0.500000 0.000000 0.640660 1.258187
Cu4   Cu    Cu3+1 0.500000 0.000000 0.359340 1.258187
H1    H     H_    0.011684 0.209528 0.358393 0.354588
H2    H     H_    0.011684 0.790471 0.641606 0.354588
H3    H     H_    0.988317 0.790472 0.358393 0.354588
H4    H     H_    0.988325 0.209526 0.641608 0.354589
H5    H     H_    0.511684 0.709528 0.358393 0.354588
H6    H     H_    0.511685 0.290471 0.641606 0.354588
H7    H     H_    0.488316 0.290472 0.358393 0.354588
H8    H     H_    0.488316 0.709528 0.641607 0.354589
N1    N     N_R   0.000000 0.500000 0.852070 -0.306621
N2    N     N_R   0.000000 0.500000 0.147930 -0.306620
N3    N     N_R   0.500000 0.000000 0.852070 -0.306620
N4    N     N_R   0.500000 0.000000 0.147930 -0.306620
O1    O     O_R   0.090170 0.409820 0.618740 -0.424457
O2    O     O_R   0.409830 0.090180 0.381260 -0.428407
O3    O     O_R   0.409830 0.090180 0.618740 -0.424456
O4    O     O_R   0.590170 0.909820 0.381260 -0.428406
O5    O     O_R   0.409830 0.909820 0.381260 -0.424457
O6    O     O_R   0.590170 0.090180 0.618740 -0.428407
O7    O     O_R   0.590170 0.090180 0.381260 -0.424456
O8    O     O_R   0.409830 0.909820 0.618740 -0.428406
O9    O     O_2   0.946784 0.222679 0.112004 -0.146331
O10   O     O_2   0.087480 0.250094 0.134103 -0.158080
O11   O     O_3   0.998963 0.279021 0.338696 -0.503502
O12   O     O_R   0.909830 0.590180 0.381260 -0.428406
O13   O     O_2   0.946783 0.777320 0.887996 -0.146330
O14   O     O_2   0.087480 0.749907 0.865896 -0.158081
O15   O     O_3   0.998964 0.720979 0.661304 -0.503503
O16   O     O_2   0.053217 0.777320 0.112005 -0.146331
O17   O     O_2   0.912520 0.749907 0.134104 -0.158080
O18   O     O_3   0.001036 0.720979 0.338696 -0.503503
O19   O     O_2   0.053217 0.222680 0.887996 -0.146337
O20   O     O_2   0.912520 0.250093 0.865897 -0.158076
O21   O     O_3   0.001036 0.279021 0.661304 -0.503504
O22   O     O_2   0.446785 0.722678 0.112003 -0.146330
O23   O     O_R   0.909830 0.590180 0.618740 -0.424457
O24   O     O_2   0.587481 0.750096 0.134104 -0.158081
O25   O     O_3   0.498964 0.779021 0.338695 -0.503503
O26   O     O_2   0.446784 0.277321 0.887996 -0.146329
O27   O     O_2   0.587481 0.249906 0.865896 -0.158082
O28   O     O_3   0.498964 0.220979 0.661305 -0.503503
O29   O     O_2   0.553216 0.277321 0.112004 -0.146330
O30   O     O_2   0.412520 0.249906 0.134104 -0.158081
O31   O     O_3   0.501036 0.220979 0.338695 -0.503503
O32   O     O_2   0.553215 0.722678 0.887997 -0.146331
O33   O     O_2   0.412518 0.750096 0.865896 -0.158081
O34   O     O_R   0.090170 0.409820 0.381260 -0.428406
O35   O     O_3   0.501036 0.779021 0.661305 -0.503504
O36   O     O_R   0.909830 0.409820 0.381260 -0.424457
O37   O     O_R   0.090170 0.590180 0.618740 -0.428407
O38   O     O_R   0.090170 0.590180 0.381260 -0.424456
O39   O     O_R   0.909830 0.409820 0.618740 -0.428404
O40   O     O_R   0.590170 0.909820 0.618740 -0.424457
S1    S     S_3+6 0.007930 0.291820 0.166350 0.170117
S2    S     S_3+6 0.007930 0.708180 0.833649 0.170117
S3    S     S_3+6 0.992070 0.708180 0.166351 0.170117
S4    S     S_3+6 0.992070 0.291820 0.833650 0.170116
S5    S     S_3+6 0.507931 0.791820 0.166350 0.170117
S6    S     S_3+6 0.507931 0.208180 0.833650 0.170117
S7    S     S_3+6 0.492070 0.208180 0.166350 0.170117
S8    S     S_3+6 0.492069 0.791820 0.833650 0.170117

loop_
_geom_bond_atom_site_label_1
_geom_bond_atom_site_label_2
_ccdc_geom_bond_type
C10   C27   A    
C37   O2    A    
O17   S3    D    
C11   C18   A    
C12   C29   S    
O11   S1    S    
C35   C36   S    
C19   C31   A    
H7    O31   S    
Cu4   O7    S    
C22   C35   A    
Cu3   N3    S    
C40   N2    A    
C15   Cl13  S    
O13   S2    D    
H4    O21   S    
C5    N4    A    
O22   S5    D    
O33   S8    D    
Cu4   N4    S    
H6    O28   S    
O19   S4    D    
C12   O12   A    
Cu1   O1    S    
O15   S2    S    
C36   O4    A    
C13   Cl11  S    
C14   Cl12  S    
C4    C40   A    
C36   O40   A    
C12   O23   A    
O26   S6    D    
H8    O35   S    
C32   C38   S    
C2    N1    A    
C25   Cl7   S    
C19   Cl2   S    
C18   Cl16  S    
C1    O34   A    
C37   O3    A    
Cu3   Cu4   S    
C10   C21   A    
C17   C30   A    
C14   C30   A    
Cu3   O6    S    
C4    N1    A    
C15   C29   A    
C27   C34   S    
C6    N3    A    
C21   C32   A    
Cu1   O37   S    
Cu4   O5    S    
C17   C24   A    
C13   C19   A    
O29   S7    D    
C39   O6    A    
C7    S7    S    
O24   S5    D    
C3    N2    A    
H1    O11   S    
C7    N4    A    
Cu2   N2    S    
C15   C26   A    
C16   C29   A    
C23   C28   S    
Cu4   O4    S    
C33   C37   S    
C5    S5    S    
Cu2   O34   S    
O21   S4    S    
C39   O7    A    
Cu2   O12   S    
C21   Cl4   S    
C9    C20   A    
C40   S1    S    
C11   C27   A    
Cu3   O40   S    
C13   C28   A    
O18   S3    S    
O20   S4    D    
C34   O38   A    
C18   C32   A    
Cu3   O3    S    
O35   S8    S    
C20   Cl3   S    
C8    S8    S    
C17   Cl15  S    
C8    N3    A    
C16   C22   A    
Cu2   O38   S    
C4    S4    S    
O31   S7    S    
O10   S1    D    
Cu3   O8    S    
C5    C8    A    
C6    C7    A    
C38   O5    A    
C26   Cl8   S    
C23   O39   A    
H2    O15   S    
C9    Cl1   S    
C24   C33   A    
O14   S2    D    
C1    O1    A    
O16   S3    D    
C2    C3    A    
C24   Cl6   S    
C11   Cl10  S    
C3    S3    S    
O27   S6    D    
C2    S2    S    
Cu1   Cu2   S    
Cu1   O39   S    
C38   O8    A    
C23   O36   A    
H3    O18   S    
Cu4   O2    S    
C1    C30   S    
C31   C39   S    
Cu2   O36   S    
C14   C25   A    
O25   S5    S    
C16   Cl14  S    
H5    O25   S    
C26   C35   A    
C22   Cl5   S    
O28   S6    S    
Cu1   O23   S    
O9    S1    D    
C34   O37   A    
Cu1   N1    S    
C10   Cl9   S    
C6    S6    S    
O30   S7    D    
C9    C28   A    
C25   C33   A    
O32   S8    D    
C20   C31   A    
