data_mof_unit_1004.cif
_audit_creation_date              2012-12-11T14:46:23-0500
_audit_creation_method            fapswitch 2.2
_symmetry_space_group_name_H-M    P1
_symmetry_Int_Tables_number       1
_space_group_crystal_system       triclinic
_cell_length_a                    17.350363
_cell_length_b                    17.730519
_cell_length_c                    6.93542
_cell_angle_alpha                 90.082929
_cell_angle_beta                  90.866816
_cell_angle_gamma                 89.922062
_cell_volume                      2133.30147481

loop_
_atom_site_label
_atom_site_type_symbol
_atom_type_description
_atom_site_fract_x
_atom_site_fract_y
_atom_site_fract_z
_atom_type_partial_charge
O1    O     O_R   0.796490 0.328940 0.373020 -0.520308
O2    O     O_R   0.203510 0.671060 0.626980 -0.499864
O3    O     O_R   0.203510 0.828940 0.626980 -0.526012
O4    O     O_R   0.796490 0.171060 0.373020 -0.501425
O5    O     O_R   0.805560 0.173330 0.702970 -0.534916
O6    O     O_R   0.194440 0.826670 0.297030 -0.542608
O7    O     O_R   0.194440 0.673330 0.297030 -0.533064
O8    O     O_R   0.805560 0.326670 0.702970 -0.535565
O9    O     O_R   0.658440 0.172360 0.870170 -0.546526
O10   O     O_R   0.341560 0.827640 0.129830 -0.546204
O11   O     O_R   0.341560 0.672360 0.129830 -0.544260
O12   O     O_R   0.658440 0.327640 0.870170 -0.545775
C1    C     C_R   0.823728 0.145538 0.536008 0.758479
C2    C     C_R   0.176862 0.854218 0.463773 0.751375
C3    C     C_R   0.176013 0.645857 0.463844 0.770029
C4    C     C_R   0.823706 0.353733 0.536289 0.750808
O13   O     O_3   0.679200 0.250000 0.537050 -0.390387
O14   O     O_3   0.320800 0.750000 0.462950 -0.386889
V1    V     V_3+5 0.736420 0.250000 0.813120 1.545397
V2    V     V_3+5 0.263580 0.750000 0.186880 1.522365
O15   O     O_R   0.649370 0.327980 0.199650 -0.544400
O16   O     O_R   0.350630 0.672020 0.800350 -0.538972
O17   O     O_R   0.350630 0.827980 0.800350 -0.541917
O18   O     O_R   0.649370 0.172020 0.199650 -0.539853
C5    C     C_R   0.630572 0.354418 0.029756 0.714086
C6    C     C_R   0.369430 0.645586 0.970240 0.730916
C7    C     C_R   0.369455 0.854409 0.970415 0.690762
C8    C     C_R   0.630569 0.145574 0.029592 0.721740
V3    V     V_3+5 0.718510 0.250000 0.312740 1.543068
V4    V     V_3+5 0.281490 0.750000 0.687260 1.531904
O19   O     O_3   0.775740 0.250000 0.038930 -0.329894
O20   O     O_3   0.224260 0.750000 0.961070 -0.334417
C9    C     C_1   0.574156 0.083142 0.016898 -0.168737
C10   C     C_1   0.425870 0.916843 0.983128 -0.166665
C11   C     C_1   0.425854 0.583165 0.982717 -0.174821
C12   C     C_1   0.574160 0.416850 0.017266 -0.165325
C13   C     C_1   0.527502 0.030891 0.006289 0.039253
C14   C     C_1   0.472519 0.969098 0.993755 0.042366
C15   C     C_1   0.472524 0.530904 0.993528 0.031335
C16   C     C_1   0.527499 0.469118 0.006442 0.032501
C17   C     C_R   0.879721 0.081024 0.537291 -0.185856
C18   C     C_R   0.120618 0.917315 0.467065 -0.159017
C19   C     C_R   0.119241 0.582203 0.461335 -0.186191
C20   C     C_R   0.879491 0.417212 0.533793 -0.157871
C21   C     C_R   0.082283 0.045166 0.376076 -0.072985
C22   C     C_R   0.930780 0.966515 0.693764 -0.048113
C23   C     C_R   0.921450 0.540538 0.651478 -0.060228
C24   C     C_R   0.062767 0.474581 0.286005 -0.042328
C25   C     C_R   0.139390 0.987852 0.386481 -0.132659
C26   C     C_R   0.873504 0.023755 0.678959 -0.097435
C27   C     C_R   0.865955 0.482150 0.645896 -0.124317
C28   C     C_R   0.123096 0.527710 0.311937 -0.102058
C29   C     C_R   0.049058 0.907268 0.556385 0.184020
C30   C     C_R   0.944072 0.080868 0.414627 0.293501
C31   C     C_R   0.946389 0.412091 0.421837 0.201451
C32   C     C_R   0.056360 0.580993 0.589007 0.293008
C33   C     C_R   0.996098 0.968362 0.571555 -0.040859
C34   C     C_R   0.007720 0.032394 0.453727 0.018842
C35   C     C_R   0.000228 0.472781 0.417041 -0.040421
C36   C     C_R   0.992630 0.532082 0.553414 0.022413
C37   C     C_2   0.104084 0.120580 0.302736 0.625145
H1    H     H_    0.136027 0.125729 0.170084 0.076796
O21   O     O_2   0.088937 0.177311 0.394574 -0.461526
C38   C     C_2   0.927031 0.910281 0.851855 0.616538
H2    H     H_    0.977948 0.899185 0.940287 0.044524
O22   O     O_2   0.868606 0.873670 0.878702 -0.469453
C39   C     C_2   0.897498 0.615439 0.724828 0.559241
H3    H     H_    0.878027 0.622295 0.871553 0.116752
O23   O     O_2   0.898341 0.670212 0.618636 -0.463973
C40   C     C_2   0.060115 0.428006 0.107923 0.614465
H4    H     H_    0.008007 0.427338 0.019208 0.042104
O24   O     O_2   0.114042 0.387329 0.064661 -0.465182
Br1   Br    Br    0.936025 0.130317 0.166310 -0.443653
Br2   Br    Br    0.018555 0.804633 0.606999 -0.428848
Br3   Br    Br    0.065488 0.633466 0.834060 -0.452228
Br4   Br    Br    0.971130 0.313447 0.321157 -0.408892
C41   C     C_2   0.804134 0.022361 0.803551 0.541497
H5    H     H_    0.747878 0.035535 0.741706 -0.008681
O25   O     O_2   0.809413 0.010089 0.976414 -0.503266
C42   C     C_2   0.219579 0.000993 0.318234 0.332557
H6    H     H_    0.252164 0.955644 0.253501 0.058371
O26   O     O_2   0.251510 0.061747 0.340865 -0.513366
C43   C     C_2   0.193715 0.524493 0.191473 0.546974
H7    H     H_    0.249903 0.532522 0.259350 -0.010442
O27   O     O_2   0.189989 0.516917 0.016646 -0.501174
C44   C     C_2   0.791529 0.489301 0.749537 0.374899
H8    H     H_    0.738976 0.466665 0.685456 0.040087
O28   O     O_2   0.788670 0.517239 0.910215 -0.539739

loop_
_geom_bond_atom_site_label_1
_geom_bond_atom_site_label_2
_ccdc_geom_bond_type
O10   C7    A    
C31   C35   A    
C28   C43   S    
O13   V3    S    
C29   Br2   S    
V1    O19   S    
C1    C17   S    
C41   H5    S    
C18   C29   A    
C30   C34   A    
C44   O28   D    
C19   C28   A    
O4    C1    A    
C37   O21   D    
O18   V3    S    
C23   C36   A    
O9    V1    S    
O10   V2    S    
C40   H4    S    
O14   V4    S    
O17   C7    A    
C4    C20   S    
O5    C1    A    
O4    V3    S    
C2    C18   S    
O7    C3    A    
C35   C36   A    
O8    C4    A    
C32   Br3   S    
C27   C44   S    
C23   C39   S    
C41   O25   D    
C7    C10   S    
C21   C34   A    
O11   V2    S    
O8    V1    S    
C39   H3    S    
O17   V4    S    
C12   C16   T    
C42   O26   D    
C15   C16   S    
C29   C33   A    
C44   H8    S    
C23   C27   A    
C5    C12   S    
O11   C6    A    
O15   V3    S    
C9    C13   T    
C32   C36   A    
C22   C38   S    
C39   O23   D    
C38   O22   D    
O3    V4    S    
C11   C15   T    
C13   C14   S    
O6    C2    A    
C30   Br1   S    
C19   C32   A    
C43   H7    S    
C21   C25   A    
O1    V3    S    
O1    C4    A    
O2    C3    A    
O3    C2    A    
C31   Br4   S    
C20   C27   A    
C43   O27   D    
C8    C9    S    
C22   C33   A    
C26   C41   S    
C17   C26   A    
C24   C35   A    
V2    O20   S    
O15   C5    A    
O16   V4    S    
C10   C14   T    
O18   C8    A    
C24   C40   S    
C42   H6    S    
O5    V1    S    
O6    V2    S    
C22   C26   A    
C25   C42   S    
O12   C5    A    
O2    V4    S    
C38   H2    S    
C3    C19   S    
V3    O19   S    
V4    O20   S    
C20   C31   A    
C33   C34   A    
O12   V1    S    
C21   C37   S    
O13   V1    S    
O14   V2    S    
C37   H1    S    
C17   C30   A    
C18   C25   A    
C6    C11   S    
C24   C28   A    
O7    V2    S    
O16   C6    A    
C40   O24   D    
O9    C8    A    
