data_mof_unit_329.cif
_audit_creation_date              2012-12-11T15:09:07-0500
_audit_creation_method            fapswitch 2.2
_symmetry_space_group_name_H-M    P1
_symmetry_Int_Tables_number       1
_space_group_crystal_system       triclinic
_cell_length_a                    21.369414
_cell_length_b                    21.432906
_cell_length_c                    22.258814
_cell_angle_alpha                 89.918741
_cell_angle_beta                  89.920586
_cell_angle_gamma                 90.00169
_cell_volume                      10194.709112

loop_
_atom_site_label
_atom_site_type_symbol
_atom_type_description
_atom_site_fract_x
_atom_site_fract_y
_atom_site_fract_z
_atom_type_partial_charge
C1    C     C_R   0.938648 0.134044 0.113397 -0.138906
C2    C     C_R   0.085079 0.158988 0.077871 -0.120345
C3    C     C_R   0.101423 0.737413 0.310396 -0.100195
C4    C     C_R   0.363921 0.201768 0.846738 -0.096890
C5    C     C_R   0.797950 0.636792 0.152268 -0.097063
C6    C     C_R   0.262663 0.897921 0.689087 -0.104323
C7    C     C_R   0.736767 0.102095 0.310596 -0.103219
C8    C     C_R   0.398318 0.237188 0.190270 -0.108967
C9    C     C_R   0.762646 0.602361 0.810465 -0.102098
C10   C     C_R   0.298231 0.862983 0.346783 -0.098769
C11   C     C_R   0.863710 0.298637 0.653486 -0.090356
C12   C     C_R   0.601232 0.762418 0.189422 -0.102969
C13   C     C_R   0.135545 0.938937 0.887492 -0.093510
C14   C     C_R   0.237823 0.398169 0.811158 -0.102861
C15   C     C_R   0.863694 0.297821 0.346477 -0.100701
C16   C     C_R   0.136314 0.701697 0.653889 -0.095272
C17   C     C_R   0.892273 0.105932 0.148519 0.128116
C18   C     C_R   0.107521 0.893898 0.851476 0.127714
C19   C     C_R   0.148195 0.149737 0.088392 0.141442
C20   C     C_R   0.849971 0.852056 0.911673 0.144854
C21   C     C_R   0.106146 0.892498 0.148512 0.127657
C22   C     C_R   0.892648 0.106298 0.851485 0.127523
C23   C     C_R   0.851595 0.850101 0.087930 0.146306
C24   C     C_R   0.864458 0.060797 0.112482 -0.085845
C25   C     C_R   0.150124 0.148064 0.911803 0.143276
C26   C     C_R   0.349937 0.648000 0.588290 0.144322
C27   C     C_R   0.650056 0.352001 0.411714 0.143446
C28   C     C_R   0.607546 0.606311 0.648398 0.126419
C29   C     C_R   0.393923 0.392554 0.351525 0.127568
C30   C     C_R   0.650082 0.351989 0.588225 0.143006
C31   C     C_R   0.351699 0.649801 0.411795 0.143764
C32   C     C_R   0.392683 0.393916 0.648644 0.128916
C33   C     C_R   0.606258 0.607605 0.351471 0.128254
C34   C     C_R   0.819550 0.742185 0.889767 -0.316513
C35   C     C_R   0.086853 0.158772 0.922449 -0.157426
C36   C     C_R   0.258290 0.179944 0.110932 -0.320210
C37   C     C_R   0.903707 0.175653 0.762398 -0.325476
C38   C     C_R   0.175431 0.903185 0.237622 -0.329612
C39   C     C_R   0.180635 0.258071 0.890303 -0.315437
C40   C     C_R   0.741331 0.819785 0.109835 -0.297960
C41   C     C_R   0.096391 0.824812 0.762433 -0.324952
C42   C     C_R   0.903461 0.174770 0.237767 -0.327386
C43   C     C_R   0.324448 0.403073 0.262487 -0.327887
C44   C     C_R   0.596613 0.675710 0.737270 -0.325146
C45   C     C_R   0.241511 0.680099 0.389723 -0.316930
C46   C     C_R   0.914770 0.840919 0.077659 -0.076838
C47   C     C_R   0.680575 0.242075 0.610096 -0.337418
C48   C     C_R   0.675393 0.596755 0.262068 -0.319711
C49   C     C_R   0.403947 0.324868 0.737885 -0.326566
C50   C     C_R   0.680196 0.242042 0.389946 -0.320031
C51   C     C_R   0.319548 0.757953 0.609902 -0.317409
C52   C     C_R   0.801348 0.804499 0.899139 -0.091034
C53   C     C_R   0.195920 0.198179 0.100975 -0.085226
C54   C     C_R   0.875089 0.123621 0.789356 -0.080063
C55   C     C_R   0.123313 0.874786 0.210637 -0.080151
C56   C     C_R   0.198808 0.195719 0.899601 -0.089432
C57   C     C_R   0.864540 0.061194 0.887542 -0.092823
C58   C     C_R   0.803740 0.801581 0.099954 -0.095150
C59   C     C_R   0.125162 0.876671 0.789341 -0.080067
C60   C     C_R   0.874541 0.123096 0.210655 -0.079191
C61   C     C_R   0.376628 0.374733 0.289501 -0.077148
C62   C     C_R   0.625265 0.623714 0.710422 -0.079991
C63   C     C_R   0.303922 0.698290 0.399461 -0.089754
C64   C     C_R   0.698752 0.304397 0.600575 -0.090270
C65   C     C_R   0.623339 0.625210 0.289252 -0.082241
C66   C     C_R   0.375214 0.376770 0.710886 -0.080111
C67   C     C_R   0.698595 0.304288 0.399349 -0.091121
C68   C     C_R   0.134027 0.938976 0.113451 -0.134365
C69   C     C_R   0.301314 0.695630 0.600679 -0.090282
C70   C     C_R   0.737893 0.821132 0.890594 0.672835
C71   C     C_R   0.179345 0.261564 0.108924 0.656412
C72   C     C_R   0.824826 0.094158 0.759505 0.670051
C73   C     C_R   0.093623 0.824590 0.240454 0.673089
C74   C     C_R   0.262339 0.179180 0.891298 0.673272
C75   C     C_R   0.820217 0.738125 0.107634 0.674566
C76   C     C_R   0.175607 0.905996 0.759438 0.669660
C77   C     C_R   0.823889 0.093916 0.240360 0.669802
C78   C     C_R   0.406222 0.324441 0.259878 0.663777
C79   C     C_R   0.413198 0.658725 0.577584 -0.162789
C80   C     C_R   0.675641 0.594353 0.740271 0.670880
C81   C     C_R   0.320484 0.761693 0.391446 0.672455
C82   C     C_R   0.762256 0.320994 0.608809 0.691125
C83   C     C_R   0.593551 0.675312 0.259460 0.671439
C84   C     C_R   0.324898 0.406201 0.740810 0.670027
C85   C     C_R   0.762161 0.320660 0.391021 0.675990
C86   C     C_R   0.237813 0.679084 0.609223 0.673867
C87   C     C_R   0.586823 0.341274 0.422488 -0.115484
C88   C     C_R   0.635555 0.561175 0.612412 -0.089087
C89   C     C_R   0.061089 0.865960 0.886626 -0.130375
C90   C     C_R   0.365987 0.438996 0.386530 -0.132631
C91   C     C_R   0.586843 0.341241 0.577557 -0.163720
C92   C     C_R   0.414808 0.659049 0.422282 -0.076095
C93   C     C_R   0.364559 0.438922 0.612560 -0.093650
C94   C     C_R   0.634158 0.561192 0.386510 -0.129700
C95   C     C_R   0.439016 0.364542 0.387632 -0.095592
C96   C     C_R   0.561087 0.634154 0.613318 -0.130447
C97   C     C_R   0.659251 0.414979 0.422163 -0.120584
C98   C     C_R   0.340743 0.585055 0.577737 -0.076368
C99   C     C_R   0.561240 0.635637 0.387626 -0.091365
C100  C     C_R   0.158916 0.086670 0.077601 -0.162062
C101  C     C_R   0.439020 0.365965 0.613467 -0.134915
C102  C     C_R   0.341052 0.586677 0.422443 -0.162789
C103  C     C_R   0.659233 0.414970 0.577719 -0.073076
C104  C     C_R   0.696946 0.779637 0.862505 -0.068020
C105  C     C_R   0.220775 0.302456 0.137181 -0.062920
C106  C     C_R   0.794496 0.124894 0.712385 -0.073143
C107  C     C_R   0.124305 0.794110 0.287513 -0.075194
C108  C     C_R   0.303416 0.220801 0.863342 -0.068200
C109  C     C_R   0.778731 0.697151 0.135907 -0.066737
C110  C     C_R   0.205862 0.875271 0.712262 -0.072225
C111  C     C_R   0.840781 0.914994 0.922262 -0.081068
C112  C     C_R   0.793682 0.124615 0.287573 -0.071217
C113  C     C_R   0.375467 0.293911 0.212971 -0.068906
C114  C     C_R   0.705918 0.625092 0.787347 -0.073119
C115  C     C_R   0.279000 0.802641 0.363249 -0.066460
C116  C     C_R   0.803273 0.279501 0.636915 -0.077635
C117  C     C_R   0.624145 0.705734 0.212241 -0.072451
C118  C     C_R   0.294604 0.375478 0.788042 -0.073250
C119  C     C_R   0.803095 0.278985 0.363021 -0.071460
C120  C     C_R   0.196817 0.720698 0.637190 -0.069135
C121  C     C_R   0.360773 0.200565 0.153207 -0.201675
C122  C     C_R   0.061168 0.864416 0.112413 -0.089641
C123  C     C_R   0.799094 0.639865 0.847718 -0.200754
C124  C     C_R   0.261736 0.898581 0.307889 -0.206920
C125  C     C_R   0.899305 0.262051 0.692301 -0.205548
C126  C     C_R   0.638754 0.799052 0.152155 -0.190362
C127  C     C_R   0.201263 0.360569 0.848416 -0.200538
C128  C     C_R   0.899263 0.261070 0.307779 -0.203868
C129  C     C_R   0.100711 0.738405 0.692581 -0.203070
C130  C     C_R   0.600975 0.762141 0.807083 -0.204237
C131  C     C_R   0.238037 0.398375 0.192334 -0.204877
C132  C     C_R   0.701204 0.139676 0.652153 -0.208363
C133  C     C_R   0.939020 0.134152 0.886589 -0.130794
C134  C     C_R   0.138962 0.700787 0.347560 -0.199880
C135  C     C_R   0.399574 0.238464 0.807975 -0.205057
C136  C     C_R   0.761518 0.601227 0.191348 -0.198496
C137  C     C_R   0.299123 0.860354 0.651812 -0.202267
C138  C     C_R   0.700370 0.139685 0.347892 -0.198159
C139  C     C_R   0.778700 0.699949 0.862935 0.151413
C140  C     C_R   0.300579 0.220826 0.137665 0.151380
C141  C     C_R   0.875159 0.205694 0.714206 0.154237
C142  C     C_R   0.205339 0.874556 0.285852 0.156664
C143  C     C_R   0.221615 0.300443 0.863643 0.151163
C144  C     C_R   0.840980 0.913221 0.077369 -0.122248
C145  C     C_R   0.698957 0.778811 0.136518 0.146460
C146  C     C_R   0.124955 0.794709 0.714301 0.153585
C147  C     C_R   0.874881 0.204890 0.285889 0.153703
C148  C     C_R   0.294453 0.374368 0.214414 0.154518
C149  C     C_R   0.625167 0.705799 0.785344 0.154420
C150  C     C_R   0.199177 0.721026 0.363010 0.150682
C151  C     C_R   0.721529 0.199798 0.636826 0.159753
C152  C     C_R   0.705181 0.625292 0.213638 0.151356
C153  C     C_R   0.375392 0.294802 0.786129 0.154614
C154  C     C_R   0.720990 0.199649 0.363211 0.153569
C155  C     C_R   0.159268 0.085075 0.922273 -0.076818
C156  C     C_R   0.278677 0.800284 0.636655 0.152457
C157  C     C_R   0.718551 0.720006 0.845918 0.000917
C158  C     C_R   0.280448 0.280937 0.154225 0.000402
C159  C     C_R   0.818018 0.182596 0.691990 0.004052
C160  C     C_R   0.182091 0.817486 0.307984 0.004199
C161  C     C_R   0.281851 0.280469 0.846723 0.000721
C162  C     C_R   0.719068 0.718664 0.153082 0.000877
C163  C     C_R   0.182196 0.817663 0.691982 0.004167
C164  C     C_R   0.817514 0.182087 0.308038 0.004228
C165  C     C_R   0.317670 0.317279 0.192458 0.002651
C166  C     C_R   0.913198 0.841286 0.922412 -0.163012
C167  C     C_R   0.682323 0.682750 0.807624 0.004118
C168  C     C_R   0.219306 0.781145 0.346312 0.000724
C169  C     C_R   0.781715 0.219856 0.653672 0.001723
C170  C     C_R   0.681897 0.682338 0.191553 0.005467
C171  C     C_R   0.318185 0.317813 0.808413 0.004265
C172  C     C_R   0.781305 0.219455 0.346337 0.001509
C173  C     C_R   0.218455 0.780329 0.653695 0.000879
C174  C     C_R   0.636527 0.798754 0.845808 -0.096951
C175  C     C_R   0.201539 0.362784 0.153525 -0.107465
C176  C     C_R   0.737760 0.102135 0.689372 -0.100937
F1    F     F_    0.716098 0.878565 0.905058 -0.733221
F2    F     F_    0.698334 0.538513 0.721665 -0.724391
F3    F     F_    0.377845 0.783502 0.406608 -0.734709
F4    F     F_    0.784048 0.378377 0.594000 -0.716330
F5    F     F_    0.537432 0.697596 0.278244 -0.724667
F6    F     F_    0.302225 0.462039 0.722080 -0.724390
F7    F     F_    0.784071 0.377998 0.405632 -0.726463
F8    F     F_    0.216023 0.621622 0.594914 -0.732799
F9    F     F_    0.122044 0.283416 0.093538 -0.744723
F10   F     F_    0.802267 0.038229 0.778169 -0.724349
F11   F     F_    0.037512 0.802281 0.221831 -0.721828
F12   F     F_    0.284094 0.121726 0.905837 -0.733483
F13   F     F_    0.877497 0.716294 0.092067 -0.733906
F14   F     F_    0.198434 0.961738 0.778130 -0.725081
F15   F     F_    0.800777 0.038396 0.221406 -0.732089
F16   F     F_    0.462289 0.302040 0.278596 -0.735695
H1    H     H_    0.970333 0.170628 0.126526 0.110665
H2    H     H_    0.060625 0.202529 0.072961 0.185810
H3    H     H_    0.173470 0.969784 0.876462 0.188733
H4    H     H_    0.826825 0.029513 0.123424 0.184407
H5    H     H_    0.064419 0.203603 0.927437 0.105784
H6    H     H_    0.939124 0.797367 0.072526 0.183713
H7    H     H_    0.826590 0.030419 0.876592 0.189104
H8    H     H_    0.170309 0.971074 0.126621 0.104205
H9    H     H_    0.435666 0.703558 0.572626 0.105937
H10   H     H_    0.564439 0.296431 0.427656 0.092885
H11   H     H_    0.673506 0.530376 0.623382 0.188766
H12   H     H_    0.029052 0.829600 0.873596 0.105002
H13   H     H_    0.329662 0.471063 0.373306 0.105235
H14   H     H_    0.564451 0.296389 0.572604 0.094617
H15   H     H_    0.439088 0.702621 0.427512 0.183676
H16   H     H_    0.326643 0.469748 0.623581 0.188772
H17   H     H_    0.670613 0.529349 0.373225 0.111876
H18   H     H_    0.470073 0.326739 0.376860 0.183381
H19   H     H_    0.529049 0.670542 0.626359 0.104857
H20   H     H_    0.702938 0.439314 0.427142 0.192627
H21   H     H_    0.297047 0.560840 0.572424 0.183647
H22   H     H_    0.530544 0.673683 0.376820 0.188051
H23   H     H_    0.203893 0.064294 0.072661 0.106155
H24   H     H_    0.471098 0.329626 0.626555 0.104929
H25   H     H_    0.296101 0.564232 0.427387 0.106024
H26   H     H_    0.702903 0.439281 0.572454 0.190453
H27   H     H_    0.866908 0.727163 0.898686 0.158288
H28   H     H_    0.273279 0.132601 0.102493 0.157604
H29   H     H_    0.944996 0.196605 0.781798 0.153751
H30   H     H_    0.196552 0.944386 0.218225 0.152781
H31   H     H_    0.133213 0.273027 0.899089 0.157777
H32   H     H_    0.726398 0.867182 0.101512 0.163142
H33   H     H_    0.054957 0.803997 0.781847 0.153945
H34   H     H_    0.797091 0.939244 0.927568 0.184130
H35   H     H_    0.945062 0.195434 0.218539 0.158959
H36   H     H_    0.303372 0.444309 0.281747 0.153928
H37   H     H_    0.555259 0.696594 0.717878 0.153713
H38   H     H_    0.226531 0.632748 0.398260 0.157935
H39   H     H_    0.633171 0.227081 0.601395 0.151292
H40   H     H_    0.696553 0.555583 0.281425 0.160195
H41   H     H_    0.445304 0.303982 0.718448 0.153554
H42   H     H_    0.632732 0.227187 0.398703 0.156203
H43   H     H_    0.366945 0.772915 0.600962 0.157799
H44   H     H_    0.618322 0.843830 0.859138 0.187669
H45   H     H_    0.030461 0.826371 0.123291 0.188127
H46   H     H_    0.156418 0.380897 0.139867 0.185956
H47   H     H_    0.719338 0.057357 0.703471 0.187229
H48   H     H_    0.056576 0.719091 0.296222 0.188944
H49   H     H_    0.382098 0.156671 0.860112 0.187518
H50   H     H_    0.843055 0.618679 0.138494 0.187652
H51   H     H_    0.281193 0.942633 0.703081 0.187087
H52   H     H_    0.718108 0.057481 0.296469 0.185469
H53   H     H_    0.443167 0.218864 0.204483 0.184493
H54   H     H_    0.781124 0.557616 0.796463 0.187849
H55   H     H_    0.343363 0.881085 0.360372 0.186254
H56   H     H_    0.971100 0.170522 0.873486 0.104387
H57   H     H_    0.881875 0.343728 0.640026 0.190178
H58   H     H_    0.556404 0.780745 0.203758 0.187704
H59   H     H_    0.219364 0.442927 0.797095 0.187804
H60   H     H_    0.882040 0.342799 0.359890 0.188305
H61   H     H_    0.118080 0.656632 0.640607 0.188352
H62   H     H_    0.377360 0.154915 0.139655 0.136064
H63   H     H_    0.844773 0.623347 0.861620 0.136486
H64   H     H_    0.279491 0.943068 0.292148 0.132647
H65   H     H_    0.943856 0.279700 0.708114 0.135061
H66   H     H_    0.622178 0.844724 0.138580 0.139206
H67   H     H_    0.796018 0.935542 0.072167 0.105714
H68   H     H_    0.155521 0.377027 0.862264 0.136364
H69   H     H_    0.943983 0.278490 0.292007 0.137925
H70   H     H_    0.056086 0.720869 0.708481 0.135284
H71   H     H_    0.556416 0.779755 0.791209 0.134510
H72   H     H_    0.220292 0.442869 0.207947 0.134616
H73   H     H_    0.655501 0.123155 0.638372 0.131641
H74   H     H_    0.122374 0.655134 0.361225 0.137703
H75   H     H_    0.444179 0.220889 0.792113 0.134282
H76   H     H_    0.779291 0.556747 0.207041 0.139502
H77   H     H_    0.344861 0.876794 0.637882 0.135310
H78   H     H_    0.202939 0.060799 0.927559 0.183854
H79   H     H_    0.654550 0.123364 0.361701 0.134650
H80   H     H_    0.935613 0.796430 0.927339 0.106512
N1    N     N_R   0.940200 0.105310 0.059970 -0.046026
N2    N     N_R   0.059800 0.105310 0.059970 -0.053360
N3    N     N_R   0.105310 0.940200 0.940030 -0.060724
N4    N     N_R   0.894690 0.059800 0.059970 -0.059860
N5    N     N_R   0.059800 0.105310 0.940030 -0.042217
N6    N     N_R   0.940200 0.894690 0.059970 -0.061498
N7    N     N_R   0.894690 0.059800 0.940030 -0.061464
N8    N     N_R   0.105310 0.940200 0.059970 -0.045272
N9    N     N_R   0.440200 0.605310 0.559970 -0.043173
N10   N     N_R   0.559800 0.394690 0.440030 -0.046462
N11   N     N_R   0.605310 0.559800 0.559970 -0.060623
N12   N     N_R   0.059800 0.894690 0.940030 -0.045356
N13   N     N_R   0.394690 0.440200 0.440030 -0.045185
N14   N     N_R   0.559800 0.394690 0.559970 -0.041297
N15   N     N_R   0.440200 0.605310 0.440030 -0.060768
N16   N     N_R   0.394690 0.440200 0.559970 -0.060475
N17   N     N_R   0.605310 0.559800 0.440030 -0.046842
N18   N     N_R   0.440200 0.394690 0.440030 -0.058976
N19   N     N_R   0.559800 0.605310 0.559970 -0.045539
N20   N     N_R   0.605310 0.440200 0.440030 -0.057577
N21   N     N_R   0.394690 0.559800 0.559970 -0.060709
N22   N     N_R   0.559800 0.605310 0.440030 -0.060763
N23   N     N_R   0.105310 0.059800 0.059970 -0.042128
N24   N     N_R   0.440200 0.394690 0.559970 -0.045443
N25   N     N_R   0.394690 0.559800 0.440030 -0.042887
N26   N     N_R   0.605310 0.440200 0.559970 -0.062792
N27   N     N_R   0.894690 0.940200 0.940030 -0.061640
N28   N     N_R   0.059800 0.894690 0.059970 -0.060675
N29   N     N_R   0.940200 0.105310 0.940030 -0.044531
N30   N     N_R   0.894690 0.940200 0.059970 -0.050166
N31   N     N_R   0.105310 0.059800 0.940030 -0.060742
N32   N     N_R   0.940200 0.894690 0.940030 -0.043151
Ni1   Ni    Ni4+2 1.000000 0.104370 0.000000 0.224866
Ni2   Ni    Ni4+2 0.000000 0.895630 0.000000 0.223243
Ni3   Ni    Ni4+2 0.104370 0.000000 0.000000 0.224044
Ni4   Ni    Ni4+2 0.895630 0.000000 0.000000 0.222460
Ni5   Ni    Ni4+2 0.500000 0.604370 0.500000 0.223903
Ni6   Ni    Ni4+2 0.500000 0.395630 0.500000 0.213894
Ni7   Ni    Ni4+2 0.604370 0.500000 0.500000 0.233082
Ni8   Ni    Ni4+2 0.395630 0.500000 0.500000 0.223058

loop_
_geom_bond_atom_site_label_1
_geom_bond_atom_site_label_2
_ccdc_geom_bond_type
C23   C58   S    
C97   H20   S    
C5    C136  A    
C6    C110  A    
C104  C157  A    
C102  N25   A    
C130  C174  A    
C11   H57   S    
C40   C145  A    
C9    C114  A    
C121  C140  A    
C49   C153  A    
C10   C124  A    
C147  C164  A    
C8    C121  A    
C46   H6    S    
C122  H45   S    
C12   C126  A    
N28   Ni2   S    
N30   Ni4   S    
N1    N4    A    
C51   H43   S    
C95   N18   A    
C36   C53   A    
C102  H25   S    
C117  C170  A    
C38   C55   A    
C79   H9    S    
C48   C65   A    
C159  C169  A    
C130  H71   S    
C138  C154  A    
C96   H19   S    
C148  C165  A    
C18   C89   A    
C100  N23   A    
C42   C147  A    
C136  C152  A    
C112  C164  A    
C156  C173  A    
C67   C85   A    
C40   C58   A    
C126  H66   S    
C47   C64   A    
C21   C55   S    
C137  H77   S    
C34   H27   S    
C104  C174  A    
C14   H59   S    
C77   C112  A    
C1    H1    S    
N2    N23   A    
C2    N2    A    
C90   H13   S    
C152  C170  A    
C16   H61   S    
C166  N32   A    
C39   C56   A    
N29   Ni1   S    
C19   C100  A    
C150  C168  A    
C127  C143  A    
C128  H69   S    
N15   Ni5   S    
N16   N24   A    
C16   C129  A    
C4    C135  A    
C13   C18   A    
N10   N20   A    
C72   C106  A    
C8    H53   S    
N8    N28   A    
C78   C113  A    
N1    Ni1   S    
C129  H70   S    
C53   C71   A    
C91   H14   S    
C43   C61   A    
C27   C97   A    
C75   F13   S    
C2    C19   A    
C95   H18   S    
N17   N22   A    
C93   N16   A    
C128  C147  A    
C68   N8    A    
C79   N9    A    
C175  H46   S    
C28   C96   A    
C44   C62   A    
C83   C117  A    
C84   F6    S    
C37   H29   S    
N4    Ni4   S    
C118  C171  A    
C9    C123  A    
C70   C104  A    
C160  C168  A    
C76   F14   S    
C13   N3    A    
C133  H56   S    
C12   C117  A    
C176  H47   S    
C139  C157  A    
C155  N31   A    
C26   C69   S    
C51   C69   A    
C143  C161  A    
C158  C165  A    
C103  N26   A    
C99   N22   A    
C33   C94   A    
C114  C167  A    
C22   C54   S    
C62   C80   A    
C16   C120  A    
C106  C159  A    
C123  C139  A    
C7    C112  A    
C83   F5    S    
C85   C119  A    
C140  C158  A    
C132  H73   S    
N21   Ni8   S    
N12   Ni2   S    
C141  C159  A    
C41   C146  A    
C125  C141  A    
C50   C67   A    
C87   H10   S    
C3    H48   S    
N32   Ni2   S    
C32   C93   A    
C57   H7    S    
C153  C171  A    
C71   F9    S    
C92   N15   A    
C126  C145  A    
C29   C61   S    
C49   C66   A    
C22   C133  A    
C31   C63   S    
C26   C79   A    
C33   C99   A    
C7    H52   S    
C130  C149  A    
C44   H37   S    
N25   Ni8   S    
C27   C87   A    
C21   C68   A    
C164  C172  A    
C98   N21   A    
C45   H38   S    
C163  C173  A    
C155  H78   S    
C43   H36   S    
C35   H5    S    
C24   N4    A    
C89   N12   A    
C133  N29   A    
C80   C114  A    
C70   F1    S    
C108  C161  A    
C1    C17   A    
C151  C169  A    
C136  H76   S    
C3    C134  A    
C6    C137  A    
C87   N10   A    
C92   H15   S    
N22   Ni5   S    
C15   C119  A    
C27   C67   S    
C103  H26   S    
C161  C171  A    
N3    Ni3   S    
C18   C59   S    
C89   H12   S    
C84   C118  A    
C105  C175  A    
C23   C46   A    
C106  C176  A    
C32   C101  A    
C86   C120  A    
C10   H55   S    
C115  C168  A    
C93   H16   S    
C59   C76   A    
C28   C62   S    
N17   Ni7   S    
N23   Ni3   S    
C30   C64   S    
N19   Ni5   S    
C149  C167  A    
C157  C167  A    
N5    Ni1   S    
C107  C160  A    
N14   Ni6   S    
C37   C141  A    
C11   C125  A    
N9    Ni5   S    
C109  C162  A    
C113  C165  A    
N11   Ni7   S    
C73   C107  A    
C15   H60   S    
C24   H4    S    
C12   H58   S    
C45   C150  A    
C132  C176  A    
C21   C122  A    
C50   H42   S    
C144  H67   S    
C43   C148  A    
C30   C103  A    
C25   C56   S    
C5    H50   S    
C123  H63   S    
N8    Ni3   S    
C85   F7    S    
C86   F8    S    
C94   N17   A    
C39   H31   S    
C29   C90   A    
C73   F11   S    
C74   F12   S    
C138  H79   S    
C41   H33   S    
C56   C74   A    
C77   F15   S    
C31   C102  A    
C78   F16   S    
C81   F3    S    
C142  C160  A    
N11   N19   A    
C14   C127  A    
C2    H2    S    
C80   F2    S    
N26   Ni7   S    
C162  C170  A    
C11   C116  A    
C72   F10   S    
C129  C146  A    
C8    C113  A    
C25   C35   A    
C98   H21   S    
C63   C81   A    
N18   Ni6   S    
N24   Ni6   S    
C15   C128  A    
C71   C105  A    
C23   C144  A    
C32   C66   S    
C144  N30   A    
N15   N25   A    
C111  H34   S    
C166  H80   S    
C7    C138  A    
C110  C163  A    
C99   H22   S    
C20   C166  A    
C34   C52   A    
C44   C149  A    
C38   H30   S    
C82   C116  A    
N20   Ni7   S    
N7    Ni4   S    
C5    C109  A    
C131  C175  A    
C46   N6    A    
C122  N28   A    
C74   C108  A    
C76   C110  A    
C13   H3    S    
C132  C151  A    
C91   N14   A    
C4    C108  A    
N2    Ni1   S    
N5    N31   A    
C134  C150  A    
C134  H74   S    
C100  H23   S    
N7    N29   A    
C25   C155  A    
C96   N19   A    
C124  H64   S    
C36   H28   S    
C22   C57   A    
C33   C65   S    
C121  H62   S    
C42   H35   S    
C40   H32   S    
N27   Ni4   S    
C65   C83   A    
C47   H39   S    
C145  C162  A    
C101  H24   S    
C20   C111  A    
C125  H65   S    
C34   C139  A    
C49   H41   S    
C105  C158  A    
C14   C118  A    
C28   C88   A    
C1    N1    A    
C119  C172  A    
N6    Ni2   S    
N9    N21   A    
C19   C53   S    
C135  H75   S    
C38   C142  A    
C124  C142  A    
N10   Ni6   S    
C58   C75   A    
C51   C156  A    
C75   C109  A    
C17   C24   A    
C41   C59   A    
C42   C60   A    
C29   C95   A    
N31   Ni3   S    
C17   C60   S    
C3    C107  A    
N13   N18   A    
C45   C63   A    
C137  C156  A    
C55   C73   A    
C9    H54   S    
C61   C78   A    
C81   C115  A    
C90   N13   A    
C154  C172  A    
C131  C148  A    
N3    N12   A    
C36   C140  A    
C64   C82   A    
C26   C98   A    
C37   C54   A    
C57   N7    A    
N6    N30   A    
C39   C143  A    
C6    H51   S    
C88   N11   A    
C4    H49   S    
C131  H72   S    
N27   N32   A    
C35   N5    A    
C47   C151  A    
C30   C91   A    
C174  H44   S    
C101  N24   A    
N13   Ni8   S    
C146  C163  A    
C111  N27   A    
C135  C153  A    
C68   H8    S    
C97   N20   A    
C60   C77   A    
C48   C152  A    
C20   C52   S    
C50   C154  A    
C116  C169  A    
C88   H11   S    
C52   C70   A    
C10   C115  A    
C66   C84   A    
C48   H40   S    
C120  C173  A    
C54   C72   A    
C94   H17   S    
C31   C92   A    
C82   F4    S    
C127  H68   S    
N14   N26   A    
N16   Ni8   S    
C69   C86   A    
