data_mof_unit_1718.cif
_audit_creation_date              2012-10-26T18:34:24-0400
_audit_creation_method            fapswitch 2.2
_symmetry_space_group_name_H-M    P1
_symmetry_Int_Tables_number       1
_space_group_crystal_system       triclinic
_cell_length_a                    10.811053
_cell_length_b                    9.63647
_cell_length_c                    9.049075
_cell_angle_alpha                 90.000011
_cell_angle_beta                  92.968956
_cell_angle_gamma                 90.000021
_cell_volume                      941.470751208

loop_
_atom_site_label
_atom_site_type_symbol
_atom_type_description
_atom_site_fract_x
_atom_site_fract_y
_atom_site_fract_z
_atom_type_partial_charge
C1    C     C_R   0.263202 0.500000 0.515774 0.548662
C2    C     C_R   0.062086 0.626835 0.525991 0.004357
C3    C     C_R   0.871989 0.500000 0.467555 0.010739
C4    C     C_R   0.128011 0.500000 0.532445 0.010739
C5    C     C_R   0.439898 0.074042 0.387428 0.112746
C6    C     C_R   0.560102 0.925958 0.612572 0.112746
C7    C     C_R   0.560102 0.074042 0.612572 0.112747
C8    C     C_R   0.439898 0.925958 0.387428 0.112747
C9    C     C_3   0.116292 0.240147 0.591647 -0.353550
C10   C     C_3   0.883708 0.759853 0.408353 -0.353550
C11   C     C_3   0.883707 0.240147 0.408351 -0.353550
C12   C     C_R   0.736798 0.500000 0.484226 0.548662
C13   C     C_3   0.116293 0.759853 0.591649 -0.353550
C14   C     C_2   0.375289 0.146121 0.261425 0.626037
C15   C     C_2   0.624711 0.853879 0.738574 0.626037
C16   C     C_2   0.624711 0.146121 0.738574 0.626037
C17   C     C_2   0.375288 0.853878 0.261426 0.626037
C18   C     C_R   0.499502 0.500000 0.220967 0.548779
C19   C     C_R   0.500498 0.500000 0.779033 0.548778
C20   C     C_1   0.499827 0.500000 0.065658 0.014954
C21   C     C_1   0.500173 0.500000 0.934342 0.014954
C22   C     C_R   0.062086 0.373165 0.525990 0.004357
C23   C     C_R   0.937914 0.626835 0.474010 0.004357
C24   C     C_R   0.937914 0.373165 0.474009 0.004357
Cu1   Cu    Cu3+1 0.500000 0.640660 0.500000 1.025983
Cu2   Cu    Cu3+1 0.500000 0.359340 0.500000 1.025983
H1    H     H_    0.195916 0.260561 0.670995 0.157903
H2    H     H_    0.195916 0.739438 0.670996 0.157903
H3    H     H_    0.143971 0.831743 0.503897 0.188214
H4    H     H_    0.046339 0.812982 0.657334 0.128989
H5    H     H_    0.224655 0.250854 0.182466 0.327441
H6    H     H_    0.775345 0.749146 0.817534 0.327441
H7    H     H_    0.775346 0.250854 0.817534 0.327441
H8    H     H_    0.224654 0.749146 0.182466 0.327441
H9    H     H_    0.046339 0.187018 0.657332 0.128989
H10   H     H_    0.143971 0.168257 0.503895 0.188214
H11   H     H_    0.804084 0.739438 0.329005 0.157903
H12   H     H_    0.856029 0.831743 0.496105 0.188214
H13   H     H_    0.953661 0.812982 0.342668 0.128989
H14   H     H_    0.804083 0.260562 0.329004 0.157903
H15   H     H_    0.953661 0.187018 0.342666 0.128990
H16   H     H_    0.856029 0.168257 0.496103 0.188214
N1    N     N_R   0.500000 0.852070 0.500000 -0.305252
N2    N     N_R   0.500000 0.147930 0.500000 -0.305253
O1    O     O_R   0.319640 0.618740 0.499990 -0.478347
O2    O     O_R   0.259317 0.206076 0.277173 -0.712025
O3    O     O_2   0.578281 0.852666 0.858991 -0.443200
O4    O     O_R   0.740683 0.793924 0.722827 -0.712025
O5    O     O_2   0.578281 0.147335 0.858990 -0.443200
O6    O     O_R   0.740684 0.206075 0.722826 -0.712026
O7    O     O_2   0.421719 0.852665 0.141010 -0.443200
O8    O     O_R   0.259316 0.793925 0.277174 -0.712026
O9    O     O_R   0.680360 0.381260 0.500010 -0.478347
O10   O     O_R   0.680360 0.618740 0.500010 -0.478346
O11   O     O_R   0.319640 0.381260 0.499990 -0.478346
O12   O     O_R   0.500000 0.618760 0.288390 -0.480498
O13   O     O_R   0.500000 0.381240 0.711610 -0.480498
O14   O     O_R   0.500000 0.618760 0.711610 -0.480498
O15   O     O_R   0.500000 0.381240 0.288390 -0.480498
O16   O     O_2   0.421719 0.147334 0.141009 -0.443200

loop_
_geom_bond_atom_site_label_1
_geom_bond_atom_site_label_2
_ccdc_geom_bond_type
C9    H10   S    
C2    C4    A    
Cu1   O12   S    
C13   H2    S    
C6    C7    A    
C15   O3    D    
C10   C23   S    
C5    C8    A    
C14   O16   D    
Cu2   O15   S    
C11   C24   S    
H8    O8    S    
C8    C17   S    
C8    N1    A    
C18   O12   A    
C10   H12   S    
C1    C4    S    
Cu2   O11   S    
Cu1   N1    S    
C1    O11   A    
Cu2   N2    S    
C14   O2    S    
C7    N2    A    
C19   O13   A    
H6    O4    S    
C1    O1    A    
C5    C14   S    
C15   O4    S    
C11   H16   S    
C10   H11   S    
C17   O8    S    
C13   H3    S    
C7    C16   S    
C19   C21   S    
C5    N2    A    
C16   O6    S    
C11   H15   S    
C18   C20   S    
C6    N1    A    
C19   O14   A    
C11   H14   S    
Cu2   O13   S    
C22   C24   A    
C9    C22   S    
C6    C15   S    
Cu1   O14   S    
C16   O5    D    
Cu2   O9    S    
Cu1   O1    S    
C18   O15   A    
C4    C22   A    
Cu1   O10   S    
C9    H1    S    
C17   O7    D    
C20   C21   T    
C2    C23   A    
C9    H9    S    
C2    C13   S    
C3    C12   S    
H7    O6    S    
Cu1   Cu2   S    
C13   H4    S    
C3    C23   A    
C12   O10   A    
C12   O9    A    
C3    C24   A    
C10   H13   S    
H5    O2    S    
