data_mof_unit_551.cif
_audit_creation_date              2013-03-05T16:36:15-0500
_audit_creation_method            fapswitch 2.2
_symmetry_space_group_name_H-M    P1
_symmetry_Int_Tables_number       1
_space_group_crystal_system       triclinic
_cell_length_a                    27.754404
_cell_length_b                    9.06794
_cell_length_c                    7.793329
_cell_angle_alpha                 89.999573
_cell_angle_beta                  90.014658
_cell_angle_gamma                 90.00093
_cell_volume                      1961.38811739

loop_
_atom_site_label
_atom_site_type_symbol
_atom_site_description
_atom_site_fract_x
_atom_site_fract_y
_atom_site_fract_z
_atom_type_partial_charge
O1    O     O_R   0.500000 0.288390 0.642760 -0.577266
O2    O     O_R   0.500000 0.711610 0.357240 -0.577347
O3    O     O_R   0.500000 0.711610 0.642760 -0.577292
O4    O     O_R   0.500000 0.288390 0.357240 -0.577322
C1    C     C_R   0.500000 0.220090 0.500000 0.842374
C2    C     C_R   0.500000 0.779910 0.499999 0.842307
O5    O     O_R   0.430260 0.500000 0.642770 -0.579196
O6    O     O_R   0.569740 0.500000 0.357230 -0.579194
O7    O     O_R   0.569740 0.500000 0.642770 -0.579179
O8    O     O_R   0.430260 0.500000 0.357230 -0.579187
C3    C     C_R   0.407346 0.499931 0.499968 0.807914
C4    C     C_R   0.592653 0.500133 0.500003 0.807908
Cu1   Cu    Cu3+1 0.500000 0.500000 0.669080 1.003423
Cu2   Cu    Cu3+1 0.500000 0.500000 0.330920 1.003363
C5    C     C_R   0.176549 0.380809 0.561812 0.511529
C6    C     C_R   0.823410 0.620832 0.560416 0.510930
C7    C     C_R   0.176854 0.618725 0.431460 0.511649
C8    C     C_R   0.823173 0.382949 0.429981 0.512173
O9    O     O_2   0.200411 0.271408 0.642854 -0.572648
O10   O     O_2   0.799511 0.730259 0.641231 -0.572694
O11   O     O_2   0.201054 0.727837 0.351199 -0.572579
O12   O     O_2   0.799007 0.273877 0.349479 -0.572539
N1    N     N_R   0.201219 0.499672 0.497147 -0.446067
N2    N     N_R   0.798775 0.501861 0.495794 -0.446075
C9    C     C_R   0.279019 0.601684 0.603213 0.163892
C10   C     C_R   0.721130 0.399247 0.602478 0.163569
C11   C     C_R   0.279266 0.397269 0.394197 0.164023
C12   C     C_R   0.720574 0.603827 0.393689 0.164567
C13   C     C_R   0.329483 0.597413 0.604601 -0.251018
C14   C     C_R   0.670659 0.403198 0.604305 -0.251133
C15   C     C_R   0.329723 0.401625 0.394343 -0.250674
C16   C     C_R   0.670126 0.599211 0.394337 -0.250556
C17   C     C_R   0.253242 0.499499 0.498242 0.317688
C18   C     C_R   0.746753 0.501674 0.497355 0.317620
C19   C     C_R   0.101141 0.500189 0.495369 -0.044765
C20   C     C_R   0.898853 0.501556 0.494363 -0.044728
C21   C     C_R   0.126353 0.372566 0.543822 -0.008936
C22   C     C_R   0.873610 0.629153 0.542652 -0.008926
C23   C     C_R   0.126625 0.627508 0.447684 -0.009002
C24   C     C_R   0.873401 0.374234 0.446427 -0.009015
C25   C     C_R   0.100897 0.241395 0.573410 -0.155468
C26   C     C_R   0.899043 0.760342 0.572439 -0.155324
C27   C     C_R   0.101406 0.758974 0.417278 -0.155599
C28   C     C_R   0.898642 0.242793 0.416159 -0.155757
C29   C     C_R   0.354660 0.499591 0.499767 -0.081672
C30   C     C_R   0.645337 0.500960 0.499789 -0.081658
H1    H     H_    0.349944 0.325932 0.314264 0.152125
H2    H     H_    0.649794 0.674800 0.314433 0.152182
H3    H     H_    0.349521 0.673233 0.685134 0.152086
H4    H     H_    0.650733 0.327112 0.684817 0.151978
H5    H     H_    0.119570 0.141257 0.609874 0.178576
H6    H     H_    0.880347 0.860468 0.608767 0.178590
H7    H     H_    0.120287 0.858869 0.381312 0.178650
H8    H     H_    0.879784 0.142894 0.380006 0.178651
C31   C     C_R   0.974679 0.365781 0.481344 0.043209
C32   C     C_R   0.025325 0.635984 0.481656 0.043220
C33   C     C_R   0.974881 0.636355 0.507040 0.043244
C34   C     C_R   0.025103 0.365407 0.507283 0.043240
C35   C     C_R   0.949610 0.501240 0.494176 0.068939
C36   C     C_R   0.050384 0.500520 0.494715 0.068947
C37   C     C_R   0.948452 0.236913 0.441081 -0.212450
C38   C     C_R   0.051582 0.764861 0.441725 -0.212467
C39   C     C_R   0.948844 0.765597 0.547189 -0.212444
C40   C     C_R   0.051111 0.236159 0.547698 -0.212438
H9    H     H_    0.966215 0.132443 0.419777 0.134067
H10   H     H_    0.033836 0.869340 0.420279 0.134043
H11   H     H_    0.966755 0.869848 0.568396 0.133806
H12   H     H_    0.033181 0.131915 0.568725 0.133810
C41   C     C_1   0.500000 0.065431 0.500000 -0.177542
C42   C     C_1   0.500000 0.934569 0.499999 -0.177531
N3    N     N_1   0.500000 0.500000 0.076820 -0.046741
N4    N     N_1   0.500000 0.500000 0.923180 -0.046725
C43   C     C_3   0.255046 0.280427 0.283600 -0.390466
C44   C     C_3   0.233241 0.344360 0.120830 -0.800811
H13   H     H_    0.209339 0.439016 0.150347 0.264730
H14   H     H_    0.262612 0.378885 0.033149 0.262893
H15   H     H_    0.211623 0.258429 0.054643 0.266816
H16   H     H_    0.281558 0.194859 0.244357 0.203786
H17   H     H_    0.227155 0.219179 0.354969 0.244414
C45   C     C_3   0.744619 0.720464 0.282391 -0.390476
C46   C     C_3   0.765841 0.656154 0.118924 -0.801723
H18   H     H_    0.790231 0.562563 0.148035 0.264805
H19   H     H_    0.736167 0.619904 0.033453 0.262711
H20   H     H_    0.786817 0.742319 0.050587 0.267565
H21   H     H_    0.718085 0.806300 0.244074 0.203874
H22   H     H_    0.772811 0.781381 0.352681 0.244329
C47   C     C_3   0.254518 0.718672 0.712781 -0.390418
C48   C     C_3   0.232091 0.654930 0.874558 -0.800003
H23   H     H_    0.208603 0.559463 0.844303 0.264839
H24   H     H_    0.261129 0.621662 0.964292 0.263335
H25   H     H_    0.209929 0.740616 0.938817 0.266275
H26   H     H_    0.280955 0.804062 0.753234 0.203763
H27   H     H_    0.226930 0.780139 0.640127 0.244320
C49   C     C_3   0.745804 0.282153 0.711465 -0.390362
C50   C     C_3   0.768514 0.345649 0.872936 -0.799434
H28   H     H_    0.791579 0.442083 0.842701 0.264819
H29   H     H_    0.739645 0.377373 0.964036 0.263483
H30   H     H_    0.791161 0.260290 0.935673 0.265773
H31   H     H_    0.719440 0.196686 0.752269 0.203743
H32   H     H_    0.773260 0.220760 0.638167 0.244284

loop_
_geom_bond_atom_site_label_1
_geom_bond_atom_site_label_2
_geom_bond_distance
_ccdc_geom_bond_type
C10   C49   1.522349 S    
O5    Cu1   1.946370 S    
C47   C48   1.520358 S    
C31   C35   1.415270 A    
C43   C44   1.520221 S    
C50   H28   1.109076 S    
C20   C35   1.408726 A    
C46   H18   1.109010 S    
C50   H30   1.110447 S    
C13   H3    1.084302 S    
C11   C17   1.427893 A    
O5    C3    1.281653 A    
C7    N1    1.372826 A    
C44   H14   1.108930 S    
O1    C1    1.273345 A    
C40   H12   1.080772 S    
C19   C21   1.404064 A    
C22   C26   1.402572 A    
C41   C42   1.186645 T    
C7    C23   1.402120 A    
C33   C35   1.415302 A    
C34   C36   1.415284 A    
C47   H27   1.103325 S    
C9    C47   1.522258 S    
C32   C33   1.413985 A    
Cu2   N3    1.980284 S    
O7    Cu1   1.946472 S    
C5    C21   1.402176 A    
C20   C24   1.404070 A    
C45   H22   1.103287 S    
C5    O9    1.349609 S    
C27   H7    1.083419 S    
N1    C17   1.443880 S    
C44   H15   1.110442 S    
C1    C41   1.402442 S    
C43   H16   1.112283 S    
C8    N2    1.372784 A    
O3    Cu1   1.929798 S    
C6    O10   1.349633 S    
O3    C2    1.273343 A    
C5    N1    1.372840 A    
C14   H4    1.084323 S    
C12   C18   1.427728 A    
C6    N2    1.372877 A    
C15   H1    1.084338 S    
Cu1   Cu2   2.635393 S    
C34   C40   1.412007 A    
C16   H2    1.084376 S    
O2    C2    1.273344 A    
C12   C45   1.522036 S    
C46   H19   1.108933 S    
C10   C18   1.428239 A    
C33   C39   1.412012 A    
C9    C13   1.401173 A    
C39   H11   1.080775 S    
C44   H13   1.108988 S    
C38   H10   1.080771 S    
C11   C15   1.400941 A    
C12   C16   1.400787 A    
C4    C30   1.462217 S    
O8    Cu2   1.946474 S    
C45   C46   1.519990 S    
C23   C27   1.402549 A    
C7    O11   1.349625 S    
C32   C36   1.415274 A    
C13   C29   1.393903 A    
C19   C36   1.408730 A    
C19   C23   1.404060 A    
C45   H21   1.112301 S    
C37   H9    1.080786 S    
C48   H25   1.110423 S    
C49   H32   1.103246 S    
O6    C4    1.281447 A    
C43   H17   1.103294 S    
C48   H24   1.108747 S    
C10   C14   1.401308 A    
C32   C38   1.411994 A    
C3    C29   1.462261 S    
O1    Cu1   1.929801 S    
C46   H20   1.110494 S    
C2    C42   1.402441 S    
O6    Cu2   1.946367 S    
C8    O12   1.349619 S    
C16   C30   1.393844 A    
C14   C30   1.393912 A    
O4    C1    1.273342 A    
C50   H29   1.108649 S    
Cu1   N4    1.980284 S    
C28   C37   1.396996 A    
C20   C22   1.404060 A    
N3    N4    1.197368 T    
O4    Cu2   1.929798 S    
C11   C43   1.522192 S    
C49   H31   1.112328 S    
C31   C37   1.411996 A    
C21   C25   1.402554 A    
C49   C50   1.520517 S    
O2    Cu2   1.929801 S    
O7    C4    1.281694 A    
N2    C18   1.443889 S    
C9    C17   1.428065 A    
O8    C3    1.281509 A    
C28   H8    1.083439 S    
C24   C28   1.402559 A    
C8    C24   1.402106 A    
C48   H23   1.108998 S    
C15   C29   1.393897 A    
C31   C34   1.413969 A    
C6    C22   1.402197 A    
C25   C40   1.396995 A    
C47   H26   1.112289 S    
C26   C39   1.396996 A    
C25   H5    1.083423 S    
C27   C38   1.396986 A    
C26   H6    1.083441 S    
