data_mof_unit_1918.cif
_audit_creation_date              2013-03-05T15:55:20-0500
_audit_creation_method            fapswitch 2.2
_symmetry_space_group_name_H-M    P1
_symmetry_Int_Tables_number       1
_space_group_crystal_system       triclinic
_cell_length_a                    14.705892
_cell_length_b                    14.761381
_cell_length_c                    33.199564
_cell_angle_alpha                 95.99848
_cell_angle_beta                  95.926062
_cell_angle_gamma                 61.129177
_cell_volume                      6265.0948676

loop_
_atom_site_label
_atom_site_type_symbol
_atom_site_description
_atom_site_fract_x
_atom_site_fract_y
_atom_site_fract_z
_atom_type_partial_charge
O1    O     O_R   0.679450 0.499830 0.463150 -0.552671
O2    O     O_R   0.480650 0.664000 0.464630 -0.547445
C1    C     C_R   0.391094 0.699986 0.446086 0.864610
O3    O     O_R   0.323930 0.675950 0.455370 -0.504359
O4    O     O_R   0.354700 0.475360 0.451930 -0.537000
C2    C     C_R   0.405886 0.386193 0.433991 0.803015
O5    O     O_R   0.494470 0.320860 0.448390 -0.528666
O6    O     O_R   0.662580 0.357570 0.460050 -0.500016
C3    C     C_R   0.700881 0.409933 0.447284 0.830777
O7    O     O_R   0.680900 0.502040 0.551870 -0.544548
O8    O     O_R   0.481990 0.666040 0.546870 -0.540625
C4    C     C_R   0.392958 0.702326 0.561053 0.813720
O9    O     O_R   0.325370 0.678160 0.544080 -0.535425
O10   O     O_R   0.356040 0.477400 0.534170 -0.538125
C5    C     C_R   0.406837 0.388612 0.548998 0.793118
O11   O     O_R   0.495910 0.323070 0.537100 -0.541291
O12   O     O_R   0.663920 0.359620 0.542290 -0.531769
C6    C     C_R   0.702128 0.413125 0.562457 0.810375
Cr1   Cr    Cr6+3 0.576280 0.580550 0.506370 0.970519
Cr2   Cr    Cr6+3 0.346780 0.572400 0.496520 1.014321
Cr3   Cr    Cr6+3 0.576960 0.347070 0.497150 1.027236
O13   O     O_3   0.500010 0.500010 0.500010 -0.354142
H1    H     H_    0.462737 0.226200 0.184283 0.198148
H2    H     H_    0.470679 0.209970 0.308276 0.163604
H3    H     H_    0.512955 0.223511 0.380749 0.188066
C7    C     C_R   0.369806 0.365134 0.392746 -0.125767
C8    C     C_R   0.273284 0.437251 0.375526 -0.217522
C9    C     C_R   0.247371 0.428897 0.333891 0.402516
C10   C     C_R   0.321057 0.348028 0.309345 -0.028768
C11   C     C_R   0.413986 0.272428 0.326969 -0.174158
C12   C     C_R   0.437957 0.280297 0.368388 -0.115322
C13   C     C_R   0.390490 0.268323 0.166433 -0.233124
C14   C     C_R   0.387268 0.248498 0.124226 0.386896
C15   C     C_R   0.203880 0.377103 0.121163 -0.281572
C16   C     C_R   0.208347 0.399471 0.163090 0.414161
C17   C     C_R   0.301306 0.340455 0.185939 -0.090716
C18   C     C_1   0.304933 0.345900 0.229462 0.120963
C19   C     C_1   0.309917 0.347563 0.265872 0.094268
C20   C     C_R   0.290857 0.298643 0.101532 -0.237912
H4    H     H_    0.219290 0.501831 0.394261 0.193979
H5    H     H_    0.130352 0.418817 0.104092 0.201866
N1    N     N_R   0.755136 0.410645 0.220008 -0.249207
N2    N     N_R   0.752795 0.418022 0.260134 -0.211695
C21   C     C_R   0.752093 0.376585 0.408382 -0.151995
C22   C     C_R   0.757894 0.451905 0.387687 -0.188043
C23   C     C_R   0.777896 0.434819 0.346884 -0.050914
C24   C     C_R   0.793752 0.341665 0.325822 -0.073969
C25   C     C_R   0.799674 0.261657 0.347126 -0.147455
C26   C     C_R   0.779175 0.278203 0.388243 0.392393
N3    N     N_R   0.842318 0.237464 0.261036 -0.252787
N4    N     N_R   0.845330 0.230146 0.220834 -0.202322
C27   C     C_R   0.801346 0.316621 0.199502 0.565984
C28   C     C_R   0.797178 0.331744 0.281450 0.534932
C29   C     C_R   0.825704 0.391036 0.141016 -0.131201
C30   C     C_R   0.866635 0.378590 0.103770 -0.112139
C31   C     C_R   0.883901 0.206348 0.093425 -0.193164
C32   C     C_R   0.840738 0.218684 0.130701 0.394973
C33   C     C_R   0.817722 0.309715 0.155958 -0.116215
C34   C     C_R   0.900868 0.284363 0.080589 -0.128648
H6    H     H_    0.739654 0.527508 0.402135 0.188717
H7    H     H_    0.877228 0.440805 0.094366 0.178989
H8    H     H_    0.776677 0.496468 0.331403 0.218909
H9    H     H_    0.814979 0.188024 0.331416 0.192321
H10   H     H_    0.807420 0.462132 0.159386 0.196449
H11   H     H_    0.906292 0.134818 0.074866 0.187351
N5    N     N_R   0.300004 0.769347 0.215854 -0.253866
N6    N     N_R   0.303663 0.761339 0.255573 -0.239455
C35   C     C_R   0.376226 0.748830 0.407622 -0.224302
C36   C     C_R   0.279931 0.791169 0.384669 0.392457
C37   C     C_R   0.278570 0.803998 0.343365 -0.220663
C38   C     C_R   0.370390 0.778424 0.324981 -0.172838
C39   C     C_R   0.465091 0.743965 0.348623 0.406607
C40   C     C_R   0.466234 0.732208 0.389786 -0.269463
N7    N     N_R   0.422520 0.825247 0.266012 -0.196344
N8    N     N_R   0.419032 0.832979 0.226317 -0.256269
C41   C     C_R   0.358144 0.804714 0.200444 0.515880
C42   C     C_R   0.365158 0.789003 0.281305 0.599932
C43   C     C_R   0.267053 0.816698 0.132098 -0.097894
C44   C     C_R   0.243159 0.854114 0.093522 -0.125286
C45   C     C_R   0.386191 0.893738 0.102786 -0.130840
C46   C     C_R   0.409821 0.856701 0.141403 -0.106918
C47   C     C_R   0.347299 0.822574 0.157092 0.000337
C48   C     C_R   0.299471 0.897479 0.079383 -0.066156
H12   H     H_    0.540805 0.699745 0.406838 0.192070
H13   H     H_    0.176753 0.854722 0.075824 0.164111
H14   H     H_    0.205257 0.834642 0.325426 0.209138
H15   H     H_    0.218445 0.789372 0.143174 0.172600
H16   H     H_    0.431744 0.925596 0.092440 0.174020
H17   H     H_    0.473496 0.860242 0.159731 0.172501
N9    N     N_R   0.193299 0.371383 0.752558 -0.259127
N10   N     N_R   0.204801 0.385436 0.714837 -0.186306
C49   C     C_R   0.364650 0.363045 0.582053 -0.123993
C50   C     C_R   0.265152 0.431659 0.595362 -0.177328
C51   C     C_R   0.229456 0.411854 0.629227 0.418061
C52   C     C_R   0.294687 0.322402 0.650771 -0.079539
C53   C     C_R   0.391752 0.251392 0.635752 -0.158606
C54   C     C_R   0.426242 0.271379 0.601925 -0.126146
N11   N     N_R   0.321338 0.209172 0.705289 -0.269557
N12   N     N_R   0.310258 0.195092 0.743056 -0.268271
C55   C     C_R   0.246849 0.276149 0.767619 0.504090
C56   C     C_R   0.269499 0.304822 0.690430 0.560537
C57   C     C_R   0.168237 0.342816 0.834863 -0.116648
C58   C     C_R   0.170270 0.333813 0.876424 -0.139283
C59   C     C_R   0.321999 0.164546 0.870768 -0.143041
C60   C     C_R   0.319344 0.172994 0.829141 -0.108680
C61   C     C_R   0.243408 0.262968 0.810855 0.015311
C62   C     C_R   0.248453 0.245383 0.894937 -0.073262
H18   H     H_    0.215451 0.501737 0.579834 0.175170
H19   H     H_    0.503083 0.216413 0.592267 0.176455
H20   H     H_    0.110845 0.396442 0.894023 0.148611
H21   H     H_    0.443775 0.181885 0.651224 0.188262
H22   H     H_    0.108050 0.412620 0.821597 0.151337
H23   H     H_    0.381432 0.094463 0.884055 0.176824
H24   H     H_    0.378178 0.109827 0.811494 0.163755
H25   H     H_    0.860965 0.160936 0.804022 0.210832
H26   H     H_    0.761125 0.229439 0.594151 0.189209
C63   C     C_R   0.759430 0.377304 0.601777 -0.128045
C64   C     C_R   0.783663 0.443613 0.628610 -0.107671
C65   C     C_R   0.817992 0.418791 0.668635 -0.141631
C66   C     C_R   0.829430 0.327199 0.682395 -0.030345
C67   C     C_R   0.813224 0.255557 0.655083 0.398520
C68   C     C_R   0.777811 0.281974 0.614886 -0.217105
C69   C     C_R   0.872326 0.219886 0.822664 -0.086871
C70   C     C_R   0.894474 0.210172 0.864541 0.376055
C71   C     C_R   0.901042 0.372567 0.870199 -0.193725
C72   C     C_R   0.879308 0.381090 0.828575 -0.132407
C73   C     C_R   0.868103 0.303358 0.804647 0.017532
C74   C     C_1   0.855583 0.308487 0.761449 0.049307
C75   C     C_1   0.845237 0.315209 0.725323 0.081971
C76   C     C_R   0.913623 0.285099 0.888697 -0.137564
H27   H     H_    0.770356 0.517526 0.619416 0.177012
H28   H     H_    0.874885 0.446707 0.814863 0.149073
H29   H     H_    0.913946 0.432193 0.887459 0.171083
H30   H     H_    0.830556 0.473870 0.689480 0.174284
H31   H     H_    0.478242 0.847146 0.821968 0.203010
H32   H     H_    0.529965 0.743452 0.610580 0.176631
C77   C     C_R   0.374347 0.760696 0.600917 -0.122801
C78   C     C_R   0.279660 0.795489 0.618796 -0.133961
C79   C     C_R   0.269672 0.831233 0.659499 -0.130364
C80   C     C_R   0.353907 0.832742 0.682795 0.000218
C81   C     C_R   0.446584 0.804791 0.664588 0.411919
C82   C     C_R   0.456256 0.769492 0.623724 -0.191680
C83   C     C_R   0.403108 0.867440 0.832634 -0.239459
C84   C     C_R   0.387973 0.885444 0.874409 0.359862
C85   C     C_R   0.209655 0.917719 0.859252 -0.253519
C86   C     C_R   0.225715 0.896716 0.817816 0.400127
C87   C     C_R   0.322401 0.875129 0.804484 -0.093521
C88   C     C_1   0.338536 0.863046 0.761930 0.115508
C89   C     C_1   0.347260 0.851511 0.725912 0.113055
C90   C     C_R   0.288093 0.916273 0.887768 -0.227629
H33   H     H_    0.215163 0.789984 0.602000 0.177234
H34   H     H_    0.133435 0.939201 0.869010 0.235093
H35   H     H_    0.197796 0.852774 0.673337 0.203547
O14   O     O_R   0.170070 0.978950 0.027680 -0.542347
O15   O     O_R   0.001760 0.175230 0.026640 -0.530606
C91   C     C_R   0.962914 0.264480 0.045488 0.813387
O16   O     O_R   0.984760 0.333570 0.037150 -0.544972
O17   O     O_R   0.183410 0.309240 0.041890 -0.541543
C92   C     C_R   0.273182 0.260493 0.059884 0.879814
O18   O     O_R   0.340240 0.172500 0.045430 -0.502443
O19   O     O_R   0.309670 0.000990 0.032050 -0.530923
C93   C     C_R   0.259594 0.958829 0.043475 0.787996
O20   O     O_R   0.168330 0.982130 0.939200 -0.529403
O21   O     O_R   0.000140 0.178170 0.944610 -0.502003
C94   C     C_R   0.962863 0.267532 0.930512 0.806242
O22   O     O_R   0.983010 0.336750 0.948660 -0.559154
O23   O     O_R   0.181800 0.312190 0.959860 -0.534301
C95   C     C_R   0.248882 0.232950 0.938514 0.798648
O24   O     O_R   0.338500 0.175680 0.956950 -0.509091
O25   O     O_R   0.308050 0.003930 0.950020 -0.526253
C96   C     C_R   0.256652 0.964322 0.928948 0.839658
Cr4   Cr    Cr6+3 0.087320 0.083240 0.984860 1.018954
Cr5   Cr    Cr6+3 0.087720 0.316210 0.996740 0.964881
Cr6   Cr    Cr6+3 0.317350 0.090340 0.995890 1.065413
O26   O     O_3   0.164130 0.163270 0.992500 -0.385150
N13   N     N_R   0.481770 0.177603 0.105196 0.137131
O27   O     O_R   0.552578 0.097760 0.123911 -0.318110
O28   O     O_R   0.504538 0.201655 0.072410 -0.325634
Cl1   Cl    Cl    0.785447 0.174271 0.412342 -0.538209
N14   N     N_R   0.820687 0.139054 0.142270 0.139146
O29   O     O_R   0.877767 0.042912 0.129582 -0.330416
O30   O     O_R   0.736859 0.163938 0.160559 -0.312432
N15   N     N_R   0.183691 0.821366 0.402634 0.134739
O31   O     O_R   0.166742 0.868332 0.438652 -0.339656
O32   O     O_R   0.107543 0.815151 0.381092 -0.301093
N16   N     N_R   0.562237 0.710960 0.330880 0.103790
O33   O     O_R   0.633711 0.728531 0.350805 -0.346951
O34   O     O_R   0.586516 0.647905 0.298574 -0.350614
Cl2   Cl    Cl    0.102080 0.500767 0.642650 -0.554201
Cl3   Cl    Cl    0.898799 0.102070 0.884533 -0.533860
N17   N     N_R   0.828134 0.158599 0.667829 0.109459
O35   O     O_R   0.781039 0.111174 0.647613 -0.346481
O36   O     O_R   0.895486 0.112491 0.697363 -0.332875
N18   N     N_R   0.474351 0.871153 0.902536 0.110276
O37   O     O_R   0.547969 0.887093 0.891920 -0.349195
O38   O     O_R   0.487973 0.827020 0.936203 -0.348294
Cl4   Cl    Cl    0.554056 0.806425 0.692778 -0.581350
N19   N     N_R   0.142185 0.900919 0.789836 0.121732
O39   O     O_R   0.045867 0.960579 0.798607 -0.331048
O40   O     O_R   0.161381 0.837320 0.757749 -0.348432
N20   N     N_R   0.117491 0.479603 0.182000 0.136365
O41   O     O_R   0.024961 0.501566 0.166192 -0.353644
O42   O     O_R   0.126731 0.539458 0.211958 -0.294997
N21   N     N_R   0.148175 0.503939 0.317001 0.136192
O43   O     O_R   0.099994 0.596841 0.334308 -0.302092
O44   O     O_R   0.099752 0.476205 0.287412 -0.309299

loop_
_geom_bond_atom_site_label_1
_geom_bond_atom_site_label_2
_geom_bond_distance
_ccdc_geom_bond_type
C43   H15   1.082859 S    
H3    C12   1.083119 S    
N18   O38   1.301434 A    
C77   C82   1.408290 A    
C22   H6    1.083106 S    
C50   C51   1.401393 A    
C30   C34   1.400162 A    
N20   O41   1.301623 A    
C57   H22   1.082930 S    
C52   C53   1.406339 A    
N6    C42   1.355936 A    
C44   H13   1.083132 S    
N15   O31   1.301567 A    
C34   C91   1.471787 S    
C74   C75   1.201700 T    
C70   Cl3   1.762266 S    
O19   C93   1.274006 A    
N9    N10   1.331131 A    
C69   C70   1.400918 A    
O4    Cr2   1.920482 S    
C22   C23   1.387239 A    
C21   C22   1.406743 A    
C83   C87   1.399291 A    
C4    O9    1.271790 A    
O8    Cr1   1.914078 S    
C7    C8    1.405483 A    
C94   O22   1.273404 A    
C71   C72   1.390655 A    
H26   C68   1.082949 S    
C23   H8    1.082917 S    
C58   H20   1.082651 S    
O4    C2    1.275044 A    
C13   C17   1.398533 A    
O21   C94   1.279606 A    
N8    C41   1.356728 A    
N15   O32   1.301554 A    
C50   H18   1.083327 S    
C85   C86   1.396979 A    
C11   C12   1.390941 A    
Cr6   O26   1.969569 S    
C84   N18   1.437901 S    
O25   C96   1.278536 A    
C79   H35   1.083790 S    
C5    O11   1.269278 A    
C31   C32   1.403973 A    
C15   C16   1.398874 A    
C23   C24   1.399006 A    
C14   N13   1.436798 S    
C64   C65   1.392628 A    
C84   C90   1.417086 A    
C64   H27   1.083045 S    
C87   C88   1.435162 S    
C57   C58   1.395853 A    
C5    C49   1.478154 S    
C29   C30   1.387268 A    
C95   O24   1.300717 A    
C71   C76   1.410682 A    
N2    C28   1.356148 A    
C1    C35   1.476799 S    
C35   C36   1.413766 A    
C3    C21   1.479014 S    
N7    C42   1.355227 A    
C10   C19   1.435308 S    
H32   C82   1.083242 S    
O24   Cr6   2.038810 S    
C57   C61   1.404963 A    
N19   O39   1.301396 A    
C10   C11   1.397839 A    
O20   C96   1.270768 A    
O7    Cr1   2.038670 S    
C40   H12   1.083419 S    
C85   C90   1.407911 A    
Cr4   O26   1.975513 S    
O23   Cr5   1.916286 S    
C46   H17   1.082951 S    
N13   O28   1.301431 A    
N18   O37   1.301446 A    
C77   C78   1.404075 A    
C7    C12   1.403702 A    
Cr3   O13   1.974004 S    
N20   O42   1.301032 A    
C51   C52   1.416996 A    
C15   H5    1.083054 S    
C81   Cl4   1.760975 S    
N10   C56   1.357264 A    
C45   C48   1.403375 A    
O15   Cr4   1.915165 S    
N9    C55   1.357552 A    
C59   C60   1.395390 A    
N14   O30   1.301538 A    
C49   C54   1.402223 A    
C46   C47   1.404095 A    
C2    O5    1.268931 A    
Cr5   O26   1.973766 S    
C90   C96   1.482264 S    
C53   H21   1.082990 S    
O1    Cr1   2.031507 S    
C65   H30   1.084055 S    
H25   C69   1.083811 S    
N7    N8    1.328220 A    
O14   Cr4   2.040317 S    
C66   C75   1.435643 S    
N3    C28   1.356636 A    
C24   C25   1.401870 A    
O10   Cr2   1.922051 S    
C60   H24   1.082923 S    
Cr1   O13   1.975445 S    
O1    C3    1.273602 A    
C88   C89   1.201390 T    
C41   C47   1.468930 S    
O23   C95   1.303999 A    
C43   C44   1.391483 A    
O6    C3    1.277692 A    
C25   H9    1.083317 S    
N3    N4    1.331341 A    
C35   C40   1.407387 A    
O5    Cr3   2.039279 S    
C21   C26   1.417116 A    
O12   Cr3   1.921097 S    
C15   C20   1.409268 A    
C16   C17   1.406105 A    
C91   O16   1.270323 A    
C86   N19   1.441698 S    
C63   C68   1.406794 A    
N17   O36   1.301410 A    
C18   C19   1.201817 T    
C54   H19   1.083115 S    
C31   H11   1.083111 S    
C43   C47   1.403672 A    
O17   Cr5   1.922125 S    
C69   C73   1.397273 A    
C92   O18   1.272956 A    
C72   H28   1.083900 S    
C8    H4    1.083157 S    
C79   C80   1.399423 A    
N5    C41   1.357390 A    
C53   C54   1.391720 A    
O12   C6    1.275988 A    
C70   C76   1.419342 A    
C14   C20   1.417151 A    
C80   C81   1.402884 A    
O20   Cr4   2.031694 S    
C6    C63   1.476709 S    
C39   N16   1.437682 S    
C67   C68   1.404782 A    
C37   C38   1.402884 A    
C27   C33   1.475003 S    
C36   N15   1.437711 S    
N13   O27   1.301454 A    
C48   C93   1.467536 S    
N21   O44   1.301035 A    
O17   C92   1.275605 A    
C45   C46   1.390825 A    
O21   Cr4   1.922420 S    
N1    N2    1.327860 A    
N16   O34   1.301429 A    
C1    O3    1.273011 A    
C37   H14   1.083733 S    
C38   C42   1.464796 S    
C66   C67   1.412681 A    
C86   C87   1.407870 A    
C29   C33   1.404784 A    
C71   H29   1.082795 S    
N17   O35   1.301621 A    
C62   C95   1.476247 S    
C9    C10   1.411815 A    
O22   Cr5   2.038086 S    
O9    Cr2   2.035262 S    
C20   C92   1.483543 S    
O2    Cr1   1.922743 S    
C4    C77   1.475666 S    
O18   Cr6   2.037710 S    
O14   C93   1.268394 A    
C16   N20   1.438862 S    
Cr2   O13   1.969701 S    
C39   C40   1.392844 A    
O6    Cr3   1.917055 S    
C67   N17   1.442194 S    
C32   N14   1.438252 S    
C58   C62   1.405731 A    
C65   C66   1.399505 A    
C31   C34   1.404307 A    
O11   Cr3   2.034132 S    
C73   C74   1.432197 S    
O25   Cr6   1.919443 S    
C78   H33   1.083003 S    
N11   C56   1.358876 A    
C60   C61   1.405647 A    
C55   C61   1.477743 S    
N12   C55   1.357169 A    
C24   C28   1.468731 S    
C13   C14   1.401917 A    
O2    C1    1.273200 A    
C51   Cl2   1.762378 S    
N4    C27   1.358827 A    
C45   H16   1.083230 S    
C81   C82   1.397424 A    
H1    C13   1.084282 S    
C44   C48   1.403879 A    
O19   Cr6   1.922579 S    
C76   C94   1.484973 S    
C32   C33   1.416762 A    
C2    C7    1.474268 S    
C9    N21   1.438739 S    
C29   H10   1.083160 S    
O7    C6    1.273474 A    
C72   C73   1.392787 A    
C25   C26   1.399316 A    
C30   H7    1.083187 S    
H31   C83   1.083930 S    
C49   C50   1.403879 A    
N5    N6    1.329469 A    
C36   C37   1.400549 A    
H2    C11   1.084080 S    
C85   H34   1.082675 S    
C78   C79   1.393979 A    
C59   H23   1.082301 S    
O3    Cr2   2.039955 S    
C52   C56   1.484281 S    
C38   C39   1.409939 A    
N21   O43   1.301500 A    
C17   C18   1.435691 S    
N11   N12   1.330860 A    
O16   Cr5   2.032488 S    
O15   C91   1.276057 A    
O10   C5    1.277332 A    
N19   O40   1.301165 A    
C26   Cl1   1.762659 S    
N16   O33   1.301335 A    
C63   C64   1.402754 A    
C80   C89   1.433617 S    
C59   C62   1.403666 A    
N14   O29   1.301473 A    
C83   C84   1.404740 A    
O8    C4    1.272877 A    
N1    C27   1.356047 A    
C8    C9    1.404299 A    
