data_mof_unit_2368.cif
_audit_creation_date              2012-12-10T20:32:00-0500
_audit_creation_method            fapswitch 2.2
_symmetry_space_group_name_H-M    P1
_symmetry_Int_Tables_number       1
_space_group_crystal_system       triclinic
_cell_length_a                    9.897837
_cell_length_b                    10.721154
_cell_length_c                    15.49457
_cell_angle_alpha                 90.644423
_cell_angle_beta                  66.064687
_cell_angle_gamma                 88.645571
_cell_volume                      1502.01819098

loop_
_atom_site_label
_atom_site_type_symbol
_atom_type_description
_atom_site_fract_x
_atom_site_fract_y
_atom_site_fract_z
_atom_type_partial_charge
C1    C     C_R   0.499448 0.739918 0.498870 0.878007
C2    C     C_R   0.703449 0.390689 0.041150 0.167715
C3    C     C_R   0.576019 0.466332 0.092324 0.126444
C4    C     C_R   0.405769 0.497395 0.677461 0.895432
C5    C     C_R   0.804208 0.360658 0.081161 -0.215410
C6    C     C_R   0.777047 0.403828 0.172250 -0.181749
C7    C     C_R   0.565566 0.523849 0.176169 -0.213960
C8    C     C_R   0.376741 0.941179 0.503879 0.131095
C9    C     C_R   0.505130 0.871056 0.486449 -0.106813
C10   C     C_R   0.642580 0.927822 0.447478 -0.277822
C11   C     C_R   0.649095 0.057248 0.440570 -0.028129
C12   C     C_R   0.397905 0.486092 0.922310 0.035924
C13   C     C_R   0.514383 0.128043 0.477756 -0.180239
C14   C     C_R   0.381749 0.067848 0.500121 0.080249
C15   C     C_3   0.235504 0.087681 0.581504 -0.420201
C16   C     C_R   0.505343 0.260206 0.493611 0.928406
C17   C     C_3   0.228630 0.946545 0.585731 -0.145831
C18   C     C_R   0.906257 0.603025 0.530514 0.220504
C19   C     C_R   0.954399 0.402114 0.463339 -0.158120
C20   C     C_R   0.098168 0.402207 0.462830 -0.109834
C21   C     C_R   0.048526 0.602768 0.531231 0.190318
C22   C     C_3   0.985314 0.654593 0.629714 -0.504765
C23   C     C_R   0.254888 0.537536 0.979295 0.067655
C24   C     C_3   0.834595 0.659414 0.626992 -0.463564
C25   C     C_R   0.593704 0.499475 0.323357 0.890775
C26   C     C_R   0.342887 0.496893 0.782412 -0.175361
C27   C     C_R   0.654223 0.482822 0.220909 -0.087845
C28   C     C_R   0.154478 0.562068 0.935778 0.048035
C29   C     C_R   0.192753 0.523497 0.841116 -0.034394
C30   C     C_R   0.442136 0.478431 0.824395 -0.250003
C31   C     C_2   0.795594 0.112498 0.392147 0.910112
C32   C     C_2   0.072788 0.495971 0.810015 0.892689
C33   C     C_R   0.498065 0.450593 0.962699 0.046034
C34   C     C_R   0.463970 0.483323 0.057927 0.029653
C35   C     C_R   0.316894 0.523123 0.116939 0.030465
C36   C     C_R   0.215623 0.555870 0.077526 0.035908
C37   C     C_R   0.628515 0.377288 0.911815 -0.181894
C38   C     C_R   0.727094 0.345186 0.951681 -0.180999
H1    H     H_    0.900891 0.301105 0.043359 0.150683
H2    H     H_    0.024529 0.747417 0.637509 0.194414
H3    H     H_    0.755212 0.597054 0.678748 0.222495
H4    H     H_    0.791586 0.755963 0.626314 0.207425
H5    H     H_    0.849178 0.373344 0.205068 0.180564
H6    H     H_    0.823280 0.286146 0.911711 0.153647
H7    H     H_    0.556764 0.459923 0.778991 0.166758
H8    H     H_    0.653058 0.337145 0.842703 0.140104
H9    H     H_    0.017904 0.542178 0.190785 0.187877
H10   H     H_    0.085696 0.688488 0.170970 0.194573
H11   H     H_    0.919978 0.233509 0.296117 0.315493
H12   H     H_    0.744368 0.871754 0.423120 0.191942
H13   H     H_    0.131813 0.922333 0.727900 0.205257
H14   H     H_    0.240458 0.801815 0.667491 0.194768
H15   H     H_    0.032554 0.714573 0.008565 0.208892
H16   H     H_    0.944031 0.574916 0.038691 0.233035
H17   H     H_    0.994600 0.377062 0.740247 0.324088
H18   H     H_    0.182067 0.446655 0.240918 0.188096
H19   H     H_    0.218473 0.599649 0.250130 0.183809
H20   H     H_    0.244829 0.133687 0.643535 0.227232
H21   H     H_    0.151596 0.131136 0.559596 0.193472
H22   H     H_    0.139262 0.909640 0.567871 0.160902
H23   H     H_    0.920507 0.321700 0.436123 0.185811
H24   H     H_    0.172243 0.322175 0.433957 0.164142
H25   H     H_    0.994336 0.585064 0.678673 0.250146
H26   H     H_    0.483862 0.597112 0.210667 0.167272
N1    N     N_R   0.856900 0.500860 0.500610 -0.109269
N2    N     N_R   0.142540 0.500820 0.500610 -0.101583
N3    N     N_3   0.072493 0.606222 0.138753 -0.492977
N4    N     N_3   0.233543 0.899212 0.672581 -0.435018
N5    N     N_3   0.015235 0.627822 0.983954 -0.402090
N6    N     N_3   0.263697 0.513488 0.217827 -0.456776
O1    O     O_R   0.385310 0.683210 0.499990 -0.627071
O2    O     O_R   0.812900 0.209568 0.329644 -0.823679
O3    O     O_2   0.958359 0.559773 0.839195 -0.632696
O4    O     O_R   0.085569 0.389743 0.753585 -0.812600
O5    O     O_R   0.614650 0.683240 0.500000 -0.619494
O6    O     O_R   0.319830 0.499970 0.632240 -0.578723
O7    O     O_R   0.549170 0.500000 0.632250 -0.620991
O8    O     O_R   0.385350 0.316760 0.500000 -0.612264
O9    O     O_R   0.614690 0.316790 0.500010 -0.602187
O10   O     O_R   0.450830 0.500000 0.367750 -0.602887
O11   O     O_R   0.680170 0.500030 0.367760 -0.604706
O12   O     O_2   0.902937 0.068847 0.402874 -0.663851
Zn1   Zn    Zn3+2 0.346870 0.499980 0.499990 0.964334
Zn2   Zn    Zn3+2 0.653130 0.500020 0.500010 0.953145

loop_
_geom_bond_atom_site_label_1
_geom_bond_atom_site_label_2
_ccdc_geom_bond_type
C21   N2    A    
C18   C21   A    
C24   H4    S    
C30   H7    S    
C35   C36   A    
H15   N5    S    
C36   N3    S    
C18   N1    A    
C12   C23   A    
C1    O1    A    
C31   O12   D    
C18   C24   S    
C20   N2    A    
C28   C29   A    
C29   C32   S    
C3    C7    A    
C32   O4    S    
O9    Zn2   S    
O5    Zn2   S    
C25   O10   A    
C7    C27   A    
C34   C35   A    
C22   H25   S    
H17   O4    S    
O8    Zn1   S    
C28   N5    S    
C35   N6    S    
C8    C9    A    
H11   O2    S    
H19   N6    S    
C9    C10   A    
H14   N4    S    
N2    Zn1   S    
C11   C31   S    
C13   C14   A    
C25   O11   A    
C24   H3    S    
O10   Zn1   S    
O6    Zn1   S    
H9    N3    S    
O1    Zn1   S    
C1    O5    A    
C1    C9    S    
C32   O3    D    
N1    Zn2   S    
C3    C34   A    
C33   C37   A    
C38   H6    S    
C37   C38   A    
C2    C38   A    
C6    C27   A    
C22   H2    S    
C33   C34   A    
C23   C28   A    
C31   O2    S    
C26   C30   A    
H18   N6    S    
C6    H5    S    
C5    H1    S    
C15   H20   S    
C22   C24   S    
C2    C5    A    
C10   H12   S    
O11   Zn2   S    
C15   C17   S    
C17   N4    S    
C8    C14   A    
C12   C30   A    
C15   H21   S    
C4    C26   S    
C25   C27   S    
C8    C17   S    
O7    Zn2   S    
C16   O9    A    
C19   C20   A    
C2    C3    A    
C12   C33   A    
C4    O7    A    
C11   C13   A    
C5    C6    A    
H16   N5    S    
C19   H23   S    
C19   N1    A    
C16   O8    A    
H13   N4    S    
H10   N3    S    
C20   H24   S    
C7    H26   S    
C4    O6    A    
C10   C11   A    
C17   H22   S    
C26   C29   A    
C23   C36   A    
C13   C16   S    
C14   C15   S    
C37   H8    S    
C21   C22   S    
