data_mof_unit_1647.cif
_audit_creation_date              2012-12-10T18:11:09-0500
_audit_creation_method            fapswitch 2.2
_symmetry_space_group_name_H-M    P1
_symmetry_Int_Tables_number       1
_space_group_crystal_system       triclinic
_cell_length_a                    10.952065
_cell_length_b                    9.415561
_cell_length_c                    10.692191
_cell_angle_alpha                 90.959168
_cell_angle_beta                  91.701278
_cell_angle_gamma                 89.624194
_cell_volume                      1101.9162682

loop_
_atom_site_label
_atom_site_type_symbol
_atom_type_description
_atom_site_fract_x
_atom_site_fract_y
_atom_site_fract_z
_atom_type_partial_charge
C1    C     C_R   0.260188 0.500382 0.494991 0.769814
C2    C     C_3   0.494343 0.496507 0.123216 -0.042335
C3    C     C_3   0.078597 0.541214 0.630971 -0.286195
C4    C     C_3   0.074891 0.346892 0.460466 -0.275666
C5    C     C_3   0.936114 0.573685 0.626698 -0.225886
C6    C     C_3   0.933579 0.334755 0.487742 -0.227877
C7    C     C_3   0.065652 0.608092 0.402015 -0.339523
C8    C     C_3   0.123180 0.500528 0.496133 -0.040687
C9    C     C_3   0.879979 0.496157 0.501357 -0.083353
C10   C     C_3   0.927051 0.578111 0.385355 -0.356094
C11   C     C_3   0.600863 0.081314 0.429179 -0.155742
C12   C     C_3   0.596764 0.914417 0.423331 -0.166469
C13   C     C_3   0.514288 0.085584 0.631310 -0.191782
C14   C     C_3   0.519465 0.918310 0.630686 -0.191669
C15   C     C_3   0.385392 0.083166 0.447743 -0.166837
C16   C     C_3   0.383364 0.916096 0.451813 -0.191305
C17   C     C_R   0.497155 0.498861 0.259550 0.820220
C18   C     C_R   0.740601 0.499223 0.498938 0.905532
C19   C     C_R   0.495913 0.500517 0.740990 0.902855
C20   C     C_3   0.399092 0.575135 0.041632 -0.141641
C21   C     C_3   0.484057 0.363003 0.038990 -0.173495
C22   C     C_3   0.389131 0.441787 0.954908 -0.111499
C23   C     C_3   0.494012 0.499805 0.878529 -0.035922
C24   C     C_3   0.503846 0.633112 0.962994 -0.212788
C25   C     C_3   0.588865 0.419766 0.960470 -0.171750
C26   C     C_3   0.597540 0.552915 0.046148 0.018302
Cu1   Cu    Cu3+1 0.499860 0.642410 0.500060 0.966186
Cu2   Cu    Cu3+1 0.499860 0.357590 0.500060 0.967090
H1    H     H_    0.689078 0.112345 0.473317 0.210731
H2    H     H_    0.686966 0.872430 0.452759 0.230320
H3    H     H_    0.598421 0.127927 0.678419 0.208624
H4    H     H_    0.609146 0.882112 0.670658 0.185658
H5    H     H_    0.306246 0.123829 0.500172 0.190871
H6    H     H_    0.306886 0.883951 0.510164 0.214914
H7    H     H_    0.374248 0.117626 0.349154 0.186927
H8    H     H_    0.363377 0.871599 0.356386 0.151834
H9    H     H_    0.436567 0.121768 0.688813 0.153952
H10   H     H_    0.448183 0.878933 0.693215 0.163495
H11   H     H_    0.321265 0.637771 0.078201 0.153735
H12   H     H_    0.475653 0.252571 0.072384 0.158695
H13   H     H_    0.512541 0.743803 0.930292 0.150791
H14   H     H_    0.666170 0.354594 0.925981 0.209850
H15   H     H_    0.096752 0.444727 0.686962 0.202299
H16   H     H_    0.125430 0.272498 0.522095 0.186304
H17   H     H_    0.079312 0.718582 0.437021 0.230420
H18   H     H_    0.110908 0.604576 0.310615 0.195180
N1    N     N_3   0.500250 0.143650 0.502780 -0.164781
N2    N     N_3   0.500250 0.856350 0.502780 -0.158487
O1    O     O_R   0.317570 0.620260 0.500070 -0.580421
O2    O     O_R   0.317570 0.379740 0.500070 -0.612900
O3    O     O_R   0.499850 0.620240 0.316900 -0.592315
O4    O     O_R   0.499850 0.379760 0.316900 -0.588268
O5    O     O_R   0.682190 0.620260 0.500030 -0.565894
O6    O     O_R   0.682190 0.379740 0.500030 -0.548701
O7    O     O_R   0.499910 0.620280 0.683200 -0.577315
O8    O     O_R   0.499910 0.379720 0.683200 -0.591628
H19   H     H_    0.303534 0.394538 0.915238 0.181945
H20   H     H_    0.875620 0.676593 0.363665 0.236045
H21   H     H_    0.911851 0.514456 0.299283 0.253617
H22   H     H_    0.597969 0.124010 0.332838 0.181075
H23   H     H_    0.581366 0.878869 0.324522 0.191006
C27   C     C_2   0.713901 0.616945 0.097801 0.800379
O9    O     O_2   0.710442 0.726554 0.160351 -0.608549
O10   O     O_R   0.825815 0.553042 0.071167 -0.717160
H24   H     H_    0.898010 0.612803 0.100837 0.346357
C28   C     C_2   0.153384 0.655738 0.699909 0.833086
O11   O     O_2   0.166939 0.772410 0.654078 -0.595661
O12   O     O_R   0.203333 0.628546 0.818614 -0.780718
H25   H     H_    0.248330 0.713666 0.855982 0.328387
C29   C     C_2   0.110698 0.296292 0.328437 0.865169
O13   O     O_2   0.158181 0.179542 0.315283 -0.630553
O14   O     O_R   0.082301 0.375377 0.221948 -0.755795
H26   H     H_    0.109666 0.327282 0.141887 0.356243
C30   C     C_2   0.875321 0.519915 0.742450 0.780919
O15   O     O_2   0.932129 0.456730 0.824914 -0.525307
O16   O     O_R   0.755314 0.561658 0.761030 -0.777507
H27   H     H_    0.740743 0.578693 0.852130 0.334646
C31   C     C_2   0.914861 0.249524 0.608779 0.803393
O17   O     O_2   0.812199 0.230341 0.646322 -0.586846
O18   O     O_R   0.013238 0.189782 0.676692 -0.755376
H28   H     H_    0.986906 0.136348 0.752814 0.386641
C32   C     C_2   0.911848 0.737260 0.635729 0.942737
O19   O     O_2   0.880370 0.805672 0.544910 -0.588292
O20   O     O_R   0.926224 0.813202 0.749424 -0.709377
H29   H     H_    0.957169 0.755154 0.822700 0.312593
C33   C     C_2   0.872384 0.244786 0.380737 0.854924
O21   O     O_2   0.803179 0.298399 0.302996 -0.552513
O22   O     O_R   0.898991 0.099612 0.366942 -0.706491
H30   H     H_    0.960577 0.063020 0.431327 0.335605

loop_
_geom_bond_atom_site_label_1
_geom_bond_atom_site_label_2
_ccdc_geom_bond_type
C19   O8    A    
Cu1   N2    S    
C7    C10   S    
C28   O12   S    
Cu2   N1    S    
C5    C32   S    
C1    C8    S    
C11   N1    S    
C15   N1    S    
C4    C8    S    
C17   O3    A    
C6    C9    S    
C4    C29   S    
Cu2   O8    S    
C7    C8    S    
C3    H15   S    
C30   O16   S    
C7    H17   S    
C10   H20   S    
C24   C26   S    
C33   O22   S    
C6    C31   S    
C15   C16   S    
C5    C30   S    
C27   O10   S    
C18   O5    A    
C16   H6    S    
Cu2   O2    S    
C20   C24   S    
O12   H25   S    
C23   C24   S    
C29   O13   D    
C1    O2    A    
C13   H9    S    
C12   N2    S    
C28   O11   D    
C13   C14   S    
C2    C17   S    
C24   H13   S    
C16   N2    S    
C22   H19   S    
C17   O4    A    
C15   H7    S    
Cu1   O3    S    
C30   O15   D    
C2    C20   S    
C7    H18   S    
O16   H27   S    
C4    C6    S    
C3    C8    S    
C13   N1    S    
C20   H11   S    
Cu2   O6    S    
C31   O17   D    
O14   H26   S    
C14   N2    S    
C4    H16   S    
C25   C26   S    
C19   C23   S    
C5    C9    S    
C27   O9    D    
C14   H10   S    
C2    C21   S    
C31   O18   S    
C2    C26   S    
O20   H29   S    
C20   C22   S    
C32   O20   S    
C3    C28   S    
C11   H22   S    
C9    C10   S    
C19   O7    A    
C21   C25   S    
C12   H2    S    
C33   O21   D    
C13   H3    S    
C14   H4    S    
O18   H28   S    
C3    C5    S    
C25   H14   S    
C11   C12   S    
Cu1   O5    S    
C6    C33   S    
O10   H24   S    
C10   H21   S    
C26   C27   S    
C16   H8    S    
C12   H23   S    
Cu2   O4    S    
C21   H12   S    
Cu1   O7    S    
C23   C25   S    
C18   O6    A    
C9    C18   S    
O22   H30   S    
C11   H1    S    
C32   O19   D    
Cu1   Cu2   S    
C22   C23   S    
C29   O14   S    
C21   C22   S    
C1    O1    A    
C15   H5    S    
Cu1   O1    S    
