data_mof_unit_426.cif
_audit_creation_date              2012-10-26T21:14:52-0400
_audit_creation_method            fapswitch 2.2
_symmetry_space_group_name_H-M    P1
_symmetry_Int_Tables_number       1
_space_group_crystal_system       triclinic
_cell_length_a                    15.118047
_cell_length_b                    10.861377
_cell_length_c                    13.748747
_cell_angle_alpha                 89.903677
_cell_angle_beta                  90.430061
_cell_angle_gamma                 88.203451
_cell_volume                      2256.40543737

loop_
_atom_site_label
_atom_site_type_symbol
_atom_type_description
_atom_site_fract_x
_atom_site_fract_y
_atom_site_fract_z
_atom_type_partial_charge
C1    C     C_R   0.497714 0.262330 0.499654 0.567563
C2    C     C_R   0.566181 0.878637 0.674972 0.053282
C3    C     C_R   0.485577 0.109822 0.240948 -0.122233
C4    C     C_R   0.514390 0.890217 0.759050 -0.122256
C5    C     C_R   0.457703 0.164143 0.153810 -0.127296
C6    C     C_R   0.542242 0.835925 0.846206 -0.127312
C7    C     C_R   0.378922 0.233693 0.149654 -0.098741
C8    C     C_R   0.621017 0.766364 0.850397 -0.098746
C9    C     C_R   0.475016 0.934567 0.417702 -0.101458
C10   C     C_R   0.524995 0.065432 0.582295 -0.101509
C11   C     C_R   0.503967 0.871514 0.501327 0.042954
C12   C     C_R   0.502287 0.737670 0.500346 0.567631
C13   C     C_R   0.496040 0.128485 0.498672 0.042889
C14   C     C_R   0.530879 0.937790 0.584472 0.021885
C15   C     C_R   0.469130 0.062209 0.415527 0.021867
C16   C     C_R   0.328813 0.495865 0.500015 0.552790
C17   C     C_R   0.671186 0.504135 0.499986 0.552837
C18   C     C_R   0.558278 0.423884 0.794308 0.126548
C19   C     C_R   0.441721 0.576114 0.205692 0.126540
C20   C     C_R   0.440629 0.573620 0.791963 0.037250
C21   C     C_R   0.559373 0.426384 0.208037 0.037220
C22   C     C_R   0.437068 0.574423 0.895147 -0.044226
C23   C     C_R   0.045014 0.392703 0.657361 -0.109653
C24   C     C_R   0.562934 0.425583 0.104852 -0.044245
C25   C     C_R   0.499315 0.499645 0.948183 0.025816
C26   C     C_R   0.500686 0.500359 0.051816 0.025815
C27   C     C_R   0.560261 0.423799 0.897504 -0.050883
C28   C     C_R   0.439739 0.576202 0.102496 -0.050894
C29   C     C_R   0.375103 0.649457 0.946905 -0.010249
C30   C     C_R   0.624900 0.350549 0.053095 -0.010255
C31   C     C_R   0.378025 0.649987 0.049176 -0.109078
C32   C     C_R   0.621976 0.350015 0.950824 -0.109065
C33   C     C_R   0.813468 0.563791 0.420981 -0.030265
C34   C     C_R   0.954982 0.607259 0.342632 -0.109657
C35   C     C_R   0.186530 0.436220 0.579033 -0.030274
C36   C     C_R   0.767956 0.509919 0.499265 -0.036590
C37   C     C_R   0.232042 0.490073 0.500738 -0.036627
C38   C     C_R   0.815231 0.458827 0.577973 -0.132433
C39   C     C_R   0.184766 0.541139 0.422021 -0.132409
C40   C     C_R   0.907081 0.454190 0.578574 0.019519
C41   C     C_R   0.092916 0.545762 0.421415 0.019545
C42   C     C_R   0.953409 0.503159 0.499679 0.054016
C43   C     C_R   0.046588 0.496792 0.500309 0.054015
C44   C     C_R   0.906805 0.558824 0.420476 0.003395
C45   C     C_R   0.325427 0.246138 0.231931 -0.012283
C46   C     C_R   0.093192 0.441147 0.579521 0.003402
C47   C     C_R   0.953075 0.399557 0.656819 -0.096182
C48   C     C_R   0.046921 0.600394 0.343170 -0.096151
C49   C     C_1   0.764893 0.628010 0.343635 0.237256
C50   C     C_1   0.235105 0.372104 0.656430 0.237200
C51   C     C_1   0.616952 0.340767 0.741916 0.238406
C52   C     C_1   0.383043 0.659226 0.258085 0.238396
C53   C     C_2   0.305384 0.726879 0.897072 0.221130
C54   C     C_2   0.694620 0.273133 0.102929 0.221130
C55   C     C_1   0.243875 0.318186 0.222272 0.172593
C56   C     C_R   0.674526 0.753876 0.768134 -0.012299
C57   C     C_1   0.756060 0.681794 0.777821 0.172578
C58   C     C_2   0.289090 0.192944 0.404955 0.229817
C59   C     C_2   0.710908 0.806991 0.595109 0.229815
C60   C     C_R   0.350732 0.187150 0.320554 0.053705
C61   C     C_R   0.649246 0.812836 0.679492 0.053711
C62   C     C_R   0.433803 0.121366 0.325040 0.053284
Cu1   Cu    Cu3+1 0.500010 0.499980 0.597420 0.991973
Cu2   Cu    Cu3+1 0.499990 0.500020 0.402580 0.991962
H1    H     H_    0.454825 0.884452 0.353749 0.155823
H2    H     H_    0.082186 0.638353 0.282241 0.145278
H3    H     H_    0.077789 0.349780 0.719532 0.143642
H4    H     H_    0.922207 0.650186 0.280464 0.143629
H5    H     H_    0.359356 0.277596 0.081629 0.137663
H6    H     H_    0.640565 0.722481 0.918436 0.137665
H7    H     H_    0.548308 0.058776 0.243133 0.137499
H8    H     H_    0.451665 0.941275 0.756840 0.137503
H9    H     H_    0.498139 0.154019 0.089524 0.143283
H10   H     H_    0.501794 0.846081 0.910481 0.143295
H11   H     H_    0.285105 0.708606 0.822998 0.109207
H12   H     H_    0.545180 0.115548 0.646249 0.155830
H13   H     H_    0.714913 0.291429 0.176994 0.109201
H14   H     H_    0.232250 0.256254 0.403993 0.120092
H15   H     H_    0.767777 0.743734 0.596133 0.120112
H16   H     H_    0.397471 0.632501 0.748401 0.120526
H17   H     H_    0.602532 0.367503 0.251597 0.120525
H18   H     H_    0.329930 0.707456 0.087293 0.176594
H19   H     H_    0.670070 0.292545 0.912708 0.176591
H20   H     H_    0.780429 0.420547 0.638779 0.167236
H21   H     H_    0.219568 0.579420 0.361215 0.167235
H22   H     H_    0.917811 0.361599 0.717748 0.145277
N1    N     N_R   0.499960 0.499900 0.743810 -0.247508
N2    N     N_R   0.500040 0.500100 0.256190 -0.247507
N3    N     N_1   0.726159 0.679272 0.282060 -0.261343
N4    N     N_1   0.273841 0.320931 0.718048 -0.261419
N5    N     N_1   0.664280 0.272869 0.701452 -0.323540
N6    N     N_1   0.335713 0.727119 0.298550 -0.323509
N7    N     N_1   0.178573 0.375896 0.214226 -0.292814
N8    N     N_1   0.821348 0.624055 0.785885 -0.292813
O1    O     O_R   0.500000 0.319630 0.582270 -0.491811
O2    O     O_2   0.731844 0.187600 0.060626 -0.484000
O3    O     O_2   0.298866 0.125128 0.475322 -0.501625
O4    O     O_2   0.701114 0.874702 0.524682 -0.501651
O5    O     O_R   0.500000 0.680370 0.417730 -0.491803
O6    O     O_R   0.499990 0.319660 0.417730 -0.516461
O7    O     O_R   0.500010 0.680340 0.582270 -0.516461
O8    O     O_R   0.370260 0.499960 0.582280 -0.496870
O9    O     O_R   0.629740 0.500040 0.417720 -0.496885
O10   O     O_R   0.370250 0.499990 0.417740 -0.509073
O11   O     O_R   0.629750 0.500010 0.582260 -0.509070
O12   O     O_2   0.268147 0.812393 0.939384 -0.484007

loop_
_geom_bond_atom_site_label_1
_geom_bond_atom_site_label_2
_ccdc_geom_bond_type
Cu2   O9    S    
C38   C40   A    
C45   C60   A    
C22   C29   A    
C40   C47   A    
C3    H7    S    
C55   N7    T    
C8    C56   A    
C39   C41   A    
C30   C54   S    
C31   H18   S    
C7    C45   A    
C35   C37   A    
C24   C26   A    
C11   C14   A    
C33   C49   S    
C20   N1    A    
Cu1   O1    S    
C33   C36   A    
C56   C57   S    
C60   C62   A    
C23   H3    S    
C12   O5    A    
C51   N5    T    
C10   H12   S    
C19   C52   S    
C16   O10   A    
Cu2   O5    S    
C22   C25   A    
C17   C36   S    
Cu1   O11   S    
C54   O2    D    
C2    C61   A    
Cu1   O7    S    
C16   C37   S    
C54   H13   S    
Cu1   N1    S    
C40   C42   A    
C21   N2    A    
C23   C46   A    
C5    H9    S    
C41   C43   A    
C53   H11   S    
C58   O3    D    
C42   C44   A    
Cu1   O8    S    
C53   O12   D    
C1    O6    A    
C50   N4    T    
C18   C51   S    
C6    H10   S    
C9    H1    S    
C59   C61   S    
C23   C47   A    
C20   H16   S    
C47   H22   S    
C34   C44   A    
C4    C6    A    
C19   N2    A    
C10   C14   A    
C34   H4    S    
C5    C7    A    
C6    C8    A    
C25   C26   A    
C2    C4    A    
C17   O11   A    
C1    O1    A    
C35   C50   S    
C21   H17   S    
C19   C28   A    
C9    C11   A    
C15   C62   S    
C16   O8    A    
C20   C22   A    
C57   N8    T    
C13   C15   A    
C52   N6    T    
C1    C13   S    
C42   C43   A    
C39   H21   S    
C59   H15   S    
C4    H8    S    
C3    C62   A    
Cu2   O10   S    
C32   H19   S    
C38   H20   S    
C27   C32   A    
C33   C44   A    
C26   C28   A    
C28   C31   A    
C18   C27   A    
C49   N3    T    
C3    C5    A    
C10   C13   A    
C7    H5    S    
C11   C12   S    
C25   C27   A    
C8    H6    S    
C18   N1    A    
C36   C38   A    
C9    C15   A    
C12   O7    A    
C37   C39   A    
C30   C32   A    
C29   C53   S    
C41   C48   A    
C17   O9    A    
C2    C14   S    
C43   C46   A    
C24   C30   A    
C58   H14   S    
Cu1   Cu2   S    
Cu2   O6    S    
C34   C48   A    
C45   C55   S    
C29   C31   A    
C21   C24   A    
C59   O4    D    
C56   C61   A    
C48   H2    S    
C35   C46   A    
C58   C60   S    
Cu2   N2    S    
