data_mof_unit_233.cif
_audit_creation_date              2012-10-26T19:58:20-0400
_audit_creation_method            fapswitch 2.2
_symmetry_space_group_name_H-M    P1
_symmetry_Int_Tables_number       1
_space_group_crystal_system       triclinic
_cell_length_a                    7.46629
_cell_length_b                    8.69151
_cell_length_c                    13.374651
_cell_angle_alpha                 94.600159
_cell_angle_beta                  77.444543
_cell_angle_gamma                 103.341078
_cell_volume                      823.895718286

loop_
_atom_site_label
_atom_site_type_symbol
_atom_type_description
_atom_site_fract_x
_atom_site_fract_y
_atom_site_fract_z
_atom_type_partial_charge
C1    C     C_R   0.545455 0.800172 0.503047 0.542171
C2    C     C_R   0.337840 0.497657 0.806952 -0.006215
C3    C     C_2   0.570775 0.968308 0.504509 -0.143782
C4    C     C_R   0.399812 0.498058 0.694470 0.527742
C5    C     C_2   0.429404 0.031697 0.495194 -0.143157
C6    C     C_R   0.454602 0.199834 0.496848 0.561573
C7    C     C_R   0.601239 0.509687 0.305993 0.561563
C8    C     C_R   0.866218 0.699396 0.060318 -0.127564
C9    C     C_R   0.662933 0.535786 0.195823 -0.008570
C10   C     C_R   0.151596 0.424446 0.849657 -0.136433
C11   C     C_R   0.095362 0.403674 0.954641 -0.133942
C12   C     C_R   0.417857 0.510819 0.975891 0.029993
C13   C     C_R   0.226673 0.444948 0.017262 -0.105696
C14   C     C_1   0.983083 0.358055 0.396215 0.464836
C15   C     C_1   0.411527 0.319780 0.154725 0.194451
C16   C     C_R   0.466460 0.556354 0.872434 0.027172
C17   C     C_R   0.559638 0.543318 0.035729 0.015653
C18   C     C_R   0.731947 0.651406 0.998876 0.037354
C19   C     C_R   0.767871 0.712197 0.901473 -0.136399
C20   C     C_R   0.638717 0.663801 0.838546 -0.121477
C21   C     C_R   0.538837 0.471646 0.130170 -0.033174
C22   C     C_R   0.828797 0.646317 0.159605 -0.144480
Cu1   Cu    Cu3+1 0.321300 0.483160 0.488710 0.976132
Cu2   Cu    Cu3+1 0.678700 0.516840 0.511290 0.966072
H1    H     H_    0.926621 0.695241 0.209070 0.145365
H2    H     H_    0.706741 0.040219 0.513345 0.137667
H3    H     H_    0.293428 0.959767 0.486373 0.134922
H4    H     H_    0.008739 0.615388 0.581671 0.225165
H5    H     H_    0.897563 0.796556 0.873262 0.110535
H6    H     H_    0.996633 0.783503 0.033120 0.131298
H7    H     H_    0.049350 0.382120 0.801779 0.138997
H8    H     H_    0.174225 0.431392 0.098628 0.141491
H9    H     H_    0.949871 0.352290 0.987512 0.137744
H10   H     H_    0.671999 0.718498 0.765077 0.137709
N1    N     N_2   0.947230 0.542220 0.528320 -0.271065
N2    N     N_2   0.052770 0.457780 0.471680 -0.191998
N3    N     N_1   0.927380 0.273982 0.332765 -0.318309
N4    N     N_1   0.310985 0.198322 0.174392 -0.286808
O1    O     O_R   0.383920 0.714220 0.492660 -0.513175
O2    O     O_R   0.685730 0.742660 0.511730 -0.506453
O3    O     O_R   0.275440 0.478800 0.636790 -0.517048
O4    O     O_R   0.577250 0.507240 0.655860 -0.508475
O5    O     O_R   0.314270 0.257340 0.488270 -0.498709
O6    O     O_R   0.616080 0.285780 0.507340 -0.497706
O7    O     O_R   0.422750 0.492760 0.344140 -0.495789
O8    O     O_R   0.724560 0.521200 0.363210 -0.499179

loop_
_geom_bond_atom_site_label_1
_geom_bond_atom_site_label_2
_ccdc_geom_bond_type
C12   C17   A    
C8    C22   A    
Cu1   Cu2   S    
C15   N4    T    
Cu1   O7    S    
Cu2   O4    S    
C13   H8    S    
C2    C4    S    
N1    N2    D    
Cu1   O3    S    
C15   C21   S    
C16   C20   A    
C20   H10   S    
C8    H6    S    
C17   C18   A    
Cu2   O8    S    
C6    O6    A    
C14   N3    T    
C11   C13   A    
C9    C21   A    
C4    O4    A    
Cu1   O1    S    
C7    O7    A    
Cu2   O2    S    
Cu1   N2    S    
C6    O5    A    
C14   N2    S    
C5    C6    S    
Cu2   O6    S    
C17   C21   A    
C9    C22   A    
Cu2   N1    S    
C10   C11   A    
C1    O1    A    
C2    C10   A    
C7    O8    A    
C12   C16   A    
C11   H9    S    
C2    C16   A    
C12   C13   A    
C18   C19   A    
C4    O3    A    
C7    C9    S    
C1    O2    A    
C3    C5    D    
C5    H3    S    
Cu1   O5    S    
C10   H7    S    
C3    H2    S    
C8    C18   A    
C19   C20   A    
H4    N1    S    
C1    C3    S    
C22   H1    S    
C19   H5    S    
