data_mof_unit_4482.cif
_audit_creation_date              2012-12-11T14:32:50-0500
_audit_creation_method            fapswitch 2.2
_symmetry_space_group_name_H-M    P1
_symmetry_Int_Tables_number       1
_space_group_crystal_system       triclinic
_cell_length_a                    6.951341
_cell_length_b                    14.047913
_cell_length_c                    17.809029
_cell_angle_alpha                 112.805968
_cell_angle_beta                  95.987061
_cell_angle_gamma                 90.066995
_cell_volume                      1592.74115728

loop_
_atom_site_label
_atom_site_type_symbol
_atom_type_description
_atom_site_fract_x
_atom_site_fract_y
_atom_site_fract_z
_atom_type_partial_charge
O1    O     O_R   0.484560 0.544530 0.414330 -0.542593
O2    O     O_R   0.197040 0.638810 0.585080 -0.515732
O3    O     O_R   0.026800 0.455470 0.585670 -0.512158
C1    C     C_R   0.373630 0.680808 0.607512 0.725971
O4    O     O_R   0.155000 0.556150 0.414940 -0.535292
O5    O     O_R   0.984450 0.372220 0.414320 -0.541169
C2    C     C_R   0.317180 0.563873 0.386020 0.752205
O6    O     O_R   0.526900 0.627780 0.585680 -0.531695
O7    O     O_3   0.339170 0.439750 0.499990 -0.382180
V1    V     V_3+5 0.064350 0.511180 0.500000 1.470226
O8    O     O_R   0.654880 0.361190 0.414920 -0.547402
C3    C     C_R   0.817097 0.324786 0.386998 0.743144
O9    O     O_R   0.696930 0.443850 0.585060 -0.552995
C4    C     C_R   0.874608 0.431286 0.612006 0.717285
V2    V     V_3+5 0.564340 0.488820 0.500000 1.413627
O10   O     O_3   0.839390 0.560250 0.500010 -0.367974
C5    C     C_R   0.039280 0.870372 0.826435 -0.129476
C6    C     C_R   0.912243 0.393704 0.680542 -0.070084
C7    C     C_R   0.923657 0.832877 0.683637 -0.191256
C8    C     C_R   0.966587 0.801346 0.747908 0.023040
C9    C     C_R   0.061859 0.975536 0.840005 -0.227686
C10   C     C_R   0.016476 0.010385 0.774678 0.102142
C11   C     C_R   0.948237 0.935939 0.696017 0.108729
C12   C     C_R   0.032516 0.115996 0.784431 0.050244
C13   C     C_R   0.973849 0.144757 0.716343 0.063120
C14   C     C_R   0.912794 0.066299 0.639486 -0.175980
C15   C     C_R   0.901205 0.964022 0.629715 -0.198673
C16   C     C_R   0.105549 0.193684 0.859906 -0.193263
C17   C     C_R   0.110313 0.296329 0.870524 -0.226363
C18   C     C_R   0.040515 0.325636 0.806921 0.121304
C19   C     C_R   0.975827 0.251239 0.727805 0.102165
C20   C     C_R   0.035680 0.430082 0.822806 -0.148571
C21   C     C_R   0.971162 0.463136 0.761462 -0.128317
C22   C     C_R   0.915306 0.287318 0.664307 -0.216604
H1    H     H_    0.850538 0.906206 0.569607 0.138797
H2    H     H_    0.871751 0.235504 0.601896 0.094077
H3    H     H_    0.970097 0.544494 0.781493 0.162988
H4    H     H_    0.165324 0.353879 0.930151 0.134642
H5    H     H_    0.868257 0.776304 0.623544 0.131571
H6    H     H_    0.110987 0.027473 0.901822 0.110508
H7    H     H_    0.870385 0.081216 0.585361 0.131905
H8    H     H_    0.160619 0.177963 0.912486 0.151051
H9    H     H_    0.082149 0.487366 0.883641 0.131320
H10   H     H_    0.106679 0.225972 0.302907 0.154698
C23   C     C_2   0.130749 0.036087 0.185174 -0.376819
C24   C     C_2   0.978108 0.068803 0.229855 0.031440
H11   H     H_    0.677669 0.174544 0.307671 0.154414
C25   C     C_2   0.813670 0.219386 0.323535 -0.316094
C26   C     C_2   0.973903 0.178258 0.288180 -0.190720
H12   H     H_    0.253013 0.089502 0.195101 0.153110
C27   C     C_R   0.407168 0.787899 0.674651 -0.069248
C28   C     C_R   0.538489 0.470696 0.828047 -0.069074
C29   C     C_R   0.507657 0.888220 0.818624 -0.136750
C30   C     C_R   0.444214 0.795117 0.755073 -0.064265
C31   C     C_R   0.419948 0.881228 0.660517 -0.225018
C32   C     C_R   0.470683 0.980780 0.727114 0.104334
C33   C     C_R   0.518740 0.980264 0.805781 0.069975
C34   C     C_R   0.474950 0.080202 0.719520 0.064627
C35   C     C_R   0.530249 0.176718 0.790158 -0.020168
C36   C     C_R   0.590466 0.167261 0.866363 -0.004653
C37   C     C_R   0.578158 0.071168 0.872578 -0.205519
C38   C     C_R   0.421253 0.085521 0.643108 -0.161380
C39   C     C_R   0.413050 0.178874 0.633957 -0.215360
C40   C     C_R   0.455644 0.272770 0.700356 0.132409
C41   C     C_R   0.516957 0.275998 0.780108 0.098016
C42   C     C_R   0.428908 0.363962 0.686467 -0.128880
C43   C     C_R   0.467280 0.460840 0.749256 -0.143757
C44   C     C_R   0.551544 0.378913 0.844221 -0.219286
H13   H     H_    0.621628 0.066496 0.931385 0.157925
H14   H     H_    0.574436 0.393186 0.907955 0.097801
H15   H     H_    0.437261 0.528823 0.736290 0.131496
H16   H     H_    0.367116 0.177530 0.573443 0.122137
H17   H     H_    0.545602 0.888642 0.879246 0.146943
H18   H     H_    0.428442 0.727130 0.768834 0.152129
H19   H     H_    0.391422 0.873513 0.597754 0.101679
H20   H     H_    0.380272 0.017740 0.588426 0.130783
H21   H     H_    0.374933 0.360318 0.626057 0.137297
H22   H     H_    0.336226 0.645129 0.182927 0.133039
H23   H     H_    0.609150 0.577316 0.303528 0.189261
C45   C     C_2   0.314331 0.599651 0.317735 -0.346988
C46   C     C_2   0.475483 0.603738 0.282612 -0.074421
C47   C     C_2   0.640758 0.663722 0.188404 -0.182818
C48   C     C_2   0.476099 0.640469 0.214509 -0.129804
H24   H     H_    0.179565 0.623038 0.296093 0.171853
O11   O     O_R   0.421600 0.630430 0.917010 -0.539354
O12   O     O_R   0.793840 0.702190 0.087630 -0.547416
O13   O     O_R   0.964010 0.886170 0.088190 -0.533402
C49   C     C_R   0.632025 0.693671 0.116427 0.677435
O14   O     O_R   0.751460 0.619510 0.917500 -0.538971
O15   O     O_R   0.921330 0.802900 0.916840 -0.531982
C50   C     C_R   0.574144 0.578321 0.893866 0.686654
O16   O     O_R   0.464290 0.713700 0.088350 -0.536210
O17   O     O_3   0.609200 0.818520 0.002630 -0.358849
V3    V     V_3+5 0.884140 0.747190 0.002530 1.440970
O18   O     O_R   0.251150 0.814630 0.917340 -0.548407
C51   C     C_R   0.074403 0.832294 0.894212 0.691538
O19   O     O_R   0.293530 0.897310 0.087470 -0.515168
C52   C     C_R   0.131594 0.932352 0.117655 0.779817
V4    V     V_3+5 0.384070 0.769710 0.002370 1.460591
O20   O     O_3   0.109180 0.698190 0.002460 -0.387350
C53   C     C_2   0.820763 0.995756 0.227231 0.796457
O21   O     O_2   0.659426 0.998000 0.193479 -0.563221
O22   O     O_R   0.858230 0.925351 0.264191 -0.661291
H25   H     H_    0.737545 0.883671 0.262357 0.291892
C54   C     C_2   0.680238 0.251755 0.941534 0.333614
H26   H     H_    0.791692 0.303248 0.938456 0.060598
O23   O     O_2   0.633875 0.262943 0.008667 -0.532244
C55   C     C_2   0.834544 0.669828 0.233918 0.369418
H27   H     H_    0.960811 0.651690 0.200762 0.041503
O24   O     O_2   0.856548 0.702414 0.308706 -0.534667
C56   C     C_2   0.930971 0.694369 0.731351 0.701303
O25   O     O_2   0.061986 0.635559 0.712060 -0.585239
O26   O     O_R   0.748630 0.662365 0.740182 -0.681773
H28   H     H_    0.725590 0.585703 0.718930 0.264813

loop_
_geom_bond_atom_site_label_1
_geom_bond_atom_site_label_2
_ccdc_geom_bond_type
H10   C26   S    
C34   C38   A    
C31   C32   A    
C13   C19   A    
C53   O21   D    
C4    C6    S    
O2    C1    A    
O18   C51   A    
C3    C25   S    
O19   C52   A    
O11   C50   A    
C29   C30   A    
C32   C33   A    
C54   O23   D    
C24   C26   S    
C14   C15   A    
C38   C39   A    
C16   C17   A    
C23   C52   S    
O5    C3    A    
C18   C19   A    
O12   C49   A    
C14   H7    S    
O18   V4    S    
V2    O10   S    
O13   V3    S    
C5    C8    A    
C55   H27   S    
O14   V3    S    
O12   V3    S    
O19   V4    S    
C30   H18   S    
O8    V2    S    
H22   C48   S    
V4    O20   S    
C55   O24   D    
C17   H4    S    
O1    V2    S    
C11   C15   A    
O14   C50   A    
O7    V1    S    
O17   V4    S    
C43   H15   S    
C28   C44   A    
C1    O6    A    
O13   C52   A    
C31   H19   S    
C42   C43   A    
C35   C36   A    
C53   O22   S    
O9    C4    A    
C38   H20   S    
C46   C48   S    
O15   V3    S    
C24   C53   S    
C1    C27   S    
C45   H24   S    
C49   O16   A    
C12   C13   A    
O4    C2    A    
C29   C33   A    
C15   H1    S    
C13   C14   A    
C23   C24   D    
C21   H3    S    
C36   C37   A    
C40   C42   A    
C7    C11   A    
C17   C18   A    
O11   V4    S    
C8    C56   S    
H11   C25   S    
V3    O20   S    
C41   C44   A    
C19   C22   A    
C56   O26   S    
C5    C51   S    
C33   C37   A    
C6    C22   A    
O3    C4    A    
C7    H5    S    
C25   C26   D    
O6    V2    S    
C47   C55   S    
O9    V2    S    
C10   C12   A    
O2    V1    S    
H23   C46   S    
O26   H28   S    
C54   H26   S    
C37   H13   S    
C42   H21   S    
C56   O25   D    
O1    C2    A    
C29   H17   S    
C12   C16   A    
C28   C43   A    
C45   C46   D    
O5    V1    S    
O8    C3    A    
O15   C51   A    
O17   V3    S    
C27   C30   A    
C20   C21   A    
C7    C8    A    
C34   C35   A    
O4    V1    S    
O3    V1    S    
V1    O10   S    
C35   C41   A    
C18   C20   A    
C9    H6    S    
C23   H12   S    
C47   C49   S    
C40   C41   A    
C16   H8    S    
C20   H9    S    
C32   C34   A    
C27   C31   A    
O7    V2    S    
C6    C21   A    
C5    C9    A    
C39   C40   A    
C39   H16   S    
C22   H2    S    
C44   H14   S    
C47   C48   D    
O22   H25   S    
C10   C11   A    
C28   C50   S    
C9    C10   A    
C36   C54   S    
O16   V4    S    
C2    C45   S    
