data_mof_unit_4743.cif
_audit_creation_date              2012-12-10T20:25:44-0500
_audit_creation_method            fapswitch 2.2
_symmetry_space_group_name_H-M    P1
_symmetry_Int_Tables_number       1
_space_group_crystal_system       triclinic
_cell_length_a                    8.579811
_cell_length_b                    10.679231
_cell_length_c                    9.877135
_cell_angle_alpha                 90.123486
_cell_angle_beta                  98.690459
_cell_angle_gamma                 90.110995
_cell_volume                      894.605560227

loop_
_atom_site_label
_atom_site_type_symbol
_atom_type_description
_atom_site_fract_x
_atom_site_fract_y
_atom_site_fract_z
_atom_type_partial_charge
C1    C     C_R   0.495930 0.260053 0.499447 0.866330
C2    C     C_R   0.441501 0.399864 0.920705 0.102528
C3    C     C_3   0.278869 0.348055 0.890140 0.250566
C4    C     C_R   0.201189 0.500458 0.464115 0.960252
C5    C     C_3   0.273433 0.351731 0.044008 0.263997
C6    C     C_R   0.495774 0.739981 0.499617 0.876367
C7    C     C_R   0.798742 0.501058 0.535860 0.965337
C8    C     C_2   0.035933 0.500667 0.444916 -0.379675
C9    C     C_2   0.963851 0.504193 0.554957 -0.415536
C10   C     C_R   0.487743 0.064231 0.621262 0.199877
C11   C     C_R   0.473775 0.128537 0.497731 -0.120872
C12   C     C_R   0.431730 0.934879 0.373661 -0.223783
C13   C     C_R   0.432009 0.064428 0.373501 -0.238582
C14   C     C_3   0.148804 0.200294 0.742780 -0.316846
C15   C     C_3   0.015979 0.390408 0.071073 -0.317070
C16   C     C_R   0.473053 0.871472 0.498094 -0.108175
C17   C     C_R   0.486746 0.936581 0.621562 0.129953
C18   C     C_3   0.612016 0.929908 0.744315 -0.509272
C19   C     C_3   0.613698 0.071782 0.743424 -0.455006
C20   C     C_R   0.438974 0.400808 0.062605 0.055396
C21   C     C_R   0.573595 0.592124 0.081846 -0.112976
C22   C     C_R   0.573446 0.592189 0.937916 -0.129925
H1    H     H_    0.973871 0.496901 0.340640 0.188704
H2    H     H_    0.630758 0.667544 0.891478 0.146541
H3    H     H_    0.150311 0.259184 0.650258 0.179127
H4    H     H_    0.038132 0.215404 0.786368 0.144679
H5    H     H_    0.150975 0.100891 0.710319 0.192587
H6    H     H_    0.013899 0.317085 0.150619 0.160549
H7    H     H_    0.973618 0.351516 0.967516 0.151144
H8    H     H_    0.932263 0.465049 0.090322 0.191673
H9    H     H_    0.025408 0.509731 0.659182 0.176105
H10   H     H_    0.723395 0.887470 0.721267 0.200548
H11   H     H_    0.196803 0.414444 0.828703 0.113770
H12   H     H_    0.266226 0.258790 0.094014 0.093122
H13   H     H_    0.409599 0.113336 0.276593 0.168372
H14   H     H_    0.409164 0.885380 0.276790 0.178262
H15   H     H_    0.566596 0.890450 0.834838 0.208413
H16   H     H_    0.570435 0.113794 0.833796 0.240977
H17   H     H_    0.725759 0.112181 0.718997 0.179822
H18   H     H_    0.630701 0.667686 0.143647 0.142860
N1    N     N_R   0.498950 0.499140 0.142680 -0.077548
N2    N     N_R   0.498950 0.499180 0.857030 -0.119682
O1    O     O_R   0.500020 0.316790 0.614690 -0.596806
O2    O     O_3   0.167696 0.443437 0.078895 -0.581623
O3    O     O_R   0.500000 0.316760 0.385350 -0.633250
O4    O     O_R   0.271760 0.500010 0.587850 -0.630331
O5    O     O_R   0.271740 0.499970 0.358500 -0.562878
O6    O     O_R   0.500000 0.683240 0.614650 -0.620904
O7    O     O_R   0.499980 0.683210 0.385310 -0.627562
O8    O     O_R   0.728260 0.500030 0.641500 -0.627799
O9    O     O_R   0.728240 0.499990 0.412150 -0.619153
O10   O     O_3   0.282843 0.223872 0.840773 -0.622050
Zn1   Zn    Zn3+2 0.500010 0.500020 0.653130 0.948385
Zn2   Zn    Zn3+2 0.499990 0.499980 0.346870 0.971060

loop_
_geom_bond_atom_site_label_1
_geom_bond_atom_site_label_2
_ccdc_geom_bond_type
O3    Zn2   S    
C3    O10   S    
C13   H13   S    
C19   H16   S    
C14   H5    S    
C12   H14   S    
C1    C11   S    
C10   C19   S    
C4    C8    S    
O9    Zn2   S    
C5    H12   S    
O1    Zn1   S    
C17   C18   S    
C7    O9    A    
C14   H3    S    
C5    C20   S    
C4    O4    A    
C21   C22   A    
C14   H4    S    
C11   C13   A    
C1    O3    A    
C15   H6    S    
C22   N2    A    
C21   H18   S    
C6    O6    A    
C2    N2    A    
O5    Zn2   S    
C21   N1    A    
C19   H17   S    
O4    Zn1   S    
C5    O2    S    
C1    O1    A    
C15   O2    S    
C15   H7    S    
C2    C3    S    
C6    O7    A    
O6    Zn1   S    
N1    Zn2   S    
C22   H2    S    
N2    Zn1   S    
O8    Zn1   S    
C18   H10   S    
C10   C11   A    
C9    H9    S    
C10   C17   A    
C2    C20   A    
O7    Zn2   S    
C8    H1    S    
C12   C13   A    
C15   H8    S    
C18   C19   S    
C7    C9    S    
C3    H11   S    
C8    C9    D    
C6    C16   S    
C18   H15   S    
C14   O10   S    
C12   C16   A    
C7    O8    A    
C20   N1    A    
C16   C17   A    
C3    C5    S    
C4    O5    A    
