data_mof_unit_1591.cif
_audit_creation_date              2012-10-26T21:23:14-0400
_audit_creation_method            fapswitch 2.2
_symmetry_space_group_name_H-M    P1
_symmetry_Int_Tables_number       1
_space_group_crystal_system       triclinic
_cell_length_a                    27.817818
_cell_length_b                    10.909029
_cell_length_c                    9.695442
_cell_angle_alpha                 90.844095
_cell_angle_beta                  90.41853
_cell_angle_gamma                 90.295819
_cell_volume                      2941.79237848

loop_
_atom_site_label
_atom_site_type_symbol
_atom_type_description
_atom_site_fract_x
_atom_site_fract_y
_atom_site_fract_z
_atom_type_partial_charge
C1    C     C_R   0.499667 0.265114 0.498811 0.577242
C2    C     C_R   0.974211 0.385418 0.475001 -0.027445
C3    C     C_R   0.974709 0.607717 0.525549 0.027506
C4    C     C_R   0.407481 0.499578 0.499518 0.548030
C5    C     C_R   0.949137 0.496252 0.500364 0.020276
C6    C     C_R   0.947335 0.275797 0.460295 -0.133291
C7    C     C_R   0.897148 0.275015 0.459080 0.266876
C8    C     C_R   0.871891 0.385230 0.480679 0.025351
C9    C     C_R   0.897971 0.495687 0.501444 -0.071549
C10   C     C_R   0.872788 0.606003 0.523670 0.025125
C11   C     C_R   0.822410 0.604835 0.523982 0.392223
C12   C     C_R   0.278914 0.507217 0.621664 -0.058142
C13   C     C_R   0.821142 0.388846 0.482669 0.409771
C14   C     C_R   0.720994 0.486507 0.378171 -0.064201
C15   C     C_R   0.670882 0.487506 0.377197 -0.141849
C16   C     C_R   0.498761 0.734752 0.500986 0.554962
C17   C     C_R   0.671141 0.512674 0.626336 -0.145895
C18   C     C_R   0.721277 0.512244 0.626901 -0.053952
C19   C     C_R   0.746302 0.498847 0.502918 0.242414
C20   C     C_R   0.025228 0.386983 0.467012 0.020832
C21   C     C_R   0.050773 0.497095 0.498202 0.038157
C22   C     C_R   0.025814 0.606947 0.530600 0.018807
C23   C     C_R   0.253647 0.497401 0.496528 0.242619
C24   C     C_R   0.051812 0.282170 0.426863 -0.143528
C25   C     C_R   0.103021 0.711017 0.568445 -0.113124
C26   C     C_R   0.948061 0.716689 0.544343 -0.141549
C27   C     C_R   0.898217 0.715468 0.543994 -0.116784
C28   C     C_R   0.592519 0.500215 0.500456 0.542027
C29   C     C_R   0.053100 0.712410 0.567949 -0.144555
C30   C     C_2   0.492094 0.930859 0.388032 -0.166691
C31   C     C_2   0.493280 0.866546 0.504516 -0.161127
C32   C     C_2   0.484882 0.064776 0.388633 0.235804
C33   C     C_2   0.501510 0.132454 0.496313 -0.070014
C34   C     C_R   0.101893 0.497340 0.496958 -0.028232
C35   C     C_2   0.472043 0.429959 0.921349 0.082980
C36   C     C_2   0.466855 0.446369 0.075859 0.036776
C37   C     C_R   0.177672 0.392418 0.460427 0.397324
C38   C     C_R   0.178295 0.602707 0.531045 0.397903
C39   C     C_R   0.278821 0.487777 0.372323 -0.058283
C40   C     C_R   0.328958 0.488476 0.373093 -0.146957
C41   C     C_R   0.329029 0.507638 0.622782 -0.143942
C42   C     C_3   0.424397 0.060004 0.223323 -0.002682
C43   C     C_3   0.395347 0.145855 0.133343 -0.366115
C44   C     C_3   0.558645 0.635165 0.885483 0.040656
C45   C     C_R   0.127196 0.390335 0.460477 0.024434
C46   C     C_3   0.574410 0.736407 0.986050 -0.407794
C47   C     C_3   0.873846 0.124275 0.307827 0.005946
C48   C     C_3   0.843676 0.008191 0.291811 -0.325690
C49   C     C_R   0.101722 0.283942 0.424308 -0.112167
C50   C     C_R   0.127838 0.604585 0.532204 0.023941
C51   C     C_R   0.354533 0.498598 0.498421 0.005092
C52   C     C_R   0.645468 0.500227 0.501386 0.008017
Cu1   Cu    Cu3+1 0.500010 0.500020 0.638630 0.978908
Cu2   Cu    Cu3+1 0.499990 0.499980 0.361370 0.966339
H1    H     H_    0.259475 0.480298 0.275214 0.129775
H2    H     H_    0.451578 0.356989 0.870966 0.076394
H3    H     H_    0.532481 0.512421 0.109386 0.238668
H4    H     H_    0.120297 0.201037 0.393371 0.166944
H5    H     H_    0.652103 0.477704 0.279385 0.126848
H6    H     H_    0.740237 0.476315 0.282029 0.119623
H7    H     H_    0.964161 0.187309 0.452893 0.115936
H8    H     H_    0.035164 0.197392 0.393427 0.104312
H9    H     H_    0.347623 0.480928 0.275717 0.121669
H10   H     H_    0.347735 0.515430 0.720898 0.132238
H11   H     H_    0.652561 0.522987 0.723525 0.111678
H12   H     H_    0.122131 0.794310 0.597725 0.167796
H13   H     H_    0.495446 0.884684 0.288574 0.156491
H14   H     H_    0.400723 0.029030 0.308599 0.138523
H15   H     H_    0.435155 0.979732 0.158882 0.139223
H16   H     H_    0.417523 0.177540 0.045859 0.142201
H17   H     H_    0.363119 0.097125 0.091672 0.115622
H18   H     H_    0.383496 0.226515 0.195306 0.153599
H19   H     H_    0.565130 0.669631 0.780624 0.187991
H20   H     H_    0.581406 0.553059 0.903774 0.108997
H21   H     H_    0.569681 0.706956 0.094213 0.157204
H22   H     H_    0.612941 0.758653 0.969839 0.104488
H23   H     H_    0.964515 0.805649 0.557400 0.109683
H24   H     H_    0.552766 0.820165 0.968815 0.165390
H25   H     H_    0.435118 0.408790 0.124049 0.118099
H26   H     H_    0.911128 0.102914 0.274470 0.109408
H27   H     H_    0.858324 0.195170 0.239031 0.144106
H28   H     H_    0.806077 0.026453 0.323590 0.201843
H29   H     H_    0.843660 0.976676 0.182384 0.098436
H30   H     H_    0.858808 0.934665 0.356823 0.163067
H31   H     H_    0.879632 0.801488 0.559926 0.167363
H32   H     H_    0.740737 0.521773 0.723633 0.125414
H33   H     H_    0.037102 0.797643 0.600214 0.109467
H34   H     H_    0.487618 0.909537 0.604639 0.104922
H35   H     H_    0.259636 0.514312 0.718061 0.129997
H36   H     H_    0.517959 0.090767 0.585715 0.051262
N1    N     N_R   0.202087 0.497550 0.495711 -0.398028
N2    N     N_R   0.797818 0.497455 0.503560 -0.408707
N3    N     N_2   0.499480 0.498660 0.846910 -0.056603
N4    N     N_2   0.499460 0.498630 0.153040 -0.323879
O1    O     O_R   0.500010 0.321960 0.617040 -0.527409
O2    O     O_R   0.569740 0.500000 0.617090 -0.530201
O3    O     O_R   0.569730 0.499960 0.382940 -0.514327
O4    O     O_2   0.202186 0.289952 0.426706 -0.497079
O5    O     O_3   0.465608 0.122841 0.273841 -0.532711
O6    O     O_3   0.509403 0.609496 0.904961 -0.472438
O7    O     O_3   0.873160 0.163826 0.447202 -0.509529
O8    O     O_2   0.795075 0.285174 0.464436 -0.446910
O9    O     O_2   0.203413 0.705332 0.564011 -0.494189
O10   O     O_2   0.798080 0.710342 0.543642 -0.500719
O11   O     O_R   0.499990 0.321920 0.382900 -0.433818
O12   O     O_R   0.430270 0.500040 0.617060 -0.502118
O13   O     O_R   0.430260 0.500000 0.382910 -0.505071
O14   O     O_R   0.500010 0.678080 0.617100 -0.479069
O15   O     O_R   0.499990 0.678040 0.382960 -0.492652

loop_
_geom_bond_atom_site_label_1
_geom_bond_atom_site_label_2
_ccdc_geom_bond_type
C28   O3    A    
C10   C27   A    
C8    C13   A    
C47   O7    S    
C22   C29   A    
Cu1   O1    S    
C44   O6    S    
C35   C36   S    
C46   H22   S    
C1    C33   S    
C7    C8    A    
Cu1   Cu2   S    
C16   C31   S    
C12   C23   A    
C26   C27   A    
C18   H32   S    
C40   H9    S    
Cu2   O13   S    
C6    H7    S    
C30   C31   D    
C18   C19   A    
C27   H31   S    
C25   C50   A    
C46   H21   S    
C19   N2    S    
Cu1   O12   S    
C39   H1    S    
C20   C24   A    
C8    C9    A    
C24   H8    S    
Cu2   O3    S    
C11   O10   S    
C9    C10   A    
C30   H13   S    
C21   C22   A    
Cu1   O2    S    
C42   H14   S    
C2    C6    A    
C47   H26   S    
C11   N2    A    
C17   C52   A    
C37   O4    S    
C44   C46   S    
C16   O15   A    
C35   N3    D    
C25   C29   A    
C4    O13   A    
C34   C50   A    
C26   H23   S    
C29   H33   S    
C37   N1    A    
C4    C51   S    
C2    C20   A    
C12   H35   S    
C39   C40   A    
C46   H24   S    
C21   C34   A    
C4    O12   A    
C38   N1    A    
C42   H15   S    
C49   H4    S    
C48   H30   S    
Cu2   O15   S    
C5    C9    A    
C38   O9    S    
C47   C48   S    
C45   C49   A    
C1    O1    A    
C17   C18   A    
C34   C45   A    
C15   C52   A    
C44   H20   S    
N3    O6    S    
C43   H16   S    
H3    N4    S    
C13   N2    A    
C23   N1    S    
C2    C5    A    
C42   C43   S    
C37   C45   A    
C12   C41   A    
C24   C49   A    
C43   H18   S    
C43   H17   S    
C31   H34   S    
Cu2   O11   S    
C35   H2    S    
C15   H5    S    
C14   C19   A    
C3    C26   A    
C25   H12   S    
C3    C5    A    
C36   H25   S    
C32   O5    S    
C6    C7    A    
C38   C50   A    
C40   C51   A    
C14   H6    S    
C17   H11   S    
C48   H29   S    
C28   O2    A    
C32   C33   D    
C42   O5    S    
C30   C32   S    
C28   C52   S    
Cu1   O14   S    
C23   C39   A    
C48   H28   S    
C47   H27   S    
C44   H19   S    
Cu2   N4    S    
C10   C11   A    
C16   O14   A    
C36   N4    D    
C20   C21   A    
C7    O7    S    
C14   C15   A    
C3    C22   A    
C41   H10   S    
C13   O8    S    
C33   H36   S    
C41   C51   A    
Cu1   N3    S    
C1    O11   A    
