data_mof_unit_2526.cif
_audit_creation_date              2012-12-11T17:39:27-0500
_audit_creation_method            fapswitch 2.2
_symmetry_space_group_name_H-M    P1
_symmetry_Int_Tables_number       1
_space_group_crystal_system       triclinic
_cell_length_a                    24.794468
_cell_length_b                    7.198184
_cell_length_c                    22.661606
_cell_angle_alpha                 90.058497
_cell_angle_beta                  96.40242
_cell_angle_gamma                 89.926161
_cell_volume                      4019.30355961

loop_
_atom_site_label
_atom_site_type_symbol
_atom_type_description
_atom_site_fract_x
_atom_site_fract_y
_atom_site_fract_z
_atom_type_partial_charge
O1    O     O_R   0.801910 0.607900 0.699140 -0.536386
O2    O     O_R   0.198090 0.392100 0.300860 -0.535934
O3    O     O_R   0.698090 0.107900 0.800860 -0.536395
O4    O     O_R   0.301910 0.892100 0.199140 -0.536556
O5    O     O_R   0.692320 0.276320 0.686350 -0.532805
O6    O     O_R   0.307680 0.723680 0.313650 -0.534143
O7    O     O_R   0.807680 0.776320 0.813650 -0.532817
O8    O     O_R   0.192320 0.223680 0.186350 -0.534150
C1    C     C_R   0.673802 0.446716 0.671263 0.712970
C2    C     C_R   0.326180 0.553283 0.328759 0.712047
C3    C     C_R   0.826196 0.946676 0.828738 0.712984
C4    C     C_R   0.173816 0.053324 0.171246 0.711954
O9    O     O_R   0.801140 0.278070 0.692060 -0.540233
O10   O     O_R   0.198860 0.721930 0.307940 -0.540818
O11   O     O_R   0.698860 0.778070 0.807940 -0.540206
O12   O     O_R   0.301140 0.221930 0.192060 -0.540584
O13   O     O_R   0.807690 0.109570 0.806600 -0.531166
O14   O     O_R   0.192310 0.890430 0.193400 -0.529878
O15   O     O_R   0.692310 0.609570 0.693400 -0.531293
O16   O     O_R   0.307690 0.390430 0.306600 -0.529918
C5    C     C_R   0.818349 0.446633 0.678636 0.689482
C6    C     C_R   0.181657 0.553342 0.321394 0.689003
C7    C     C_R   0.681613 0.946875 0.821283 0.689360
C8    C     C_R   0.318262 0.053061 0.178510 0.689399
O17   O     O_3   0.752020 0.441970 0.787570 -0.373026
O18   O     O_3   0.247980 0.558030 0.212430 -0.372448
O19   O     O_3   0.747980 0.941970 0.712430 -0.373144
O20   O     O_3   0.252020 0.058030 0.287570 -0.372239
V1    V     V_3+5 0.749620 0.166420 0.743030 1.405803
V2    V     V_3+5 0.250380 0.833580 0.256970 1.405625
V3    V     V_3+5 0.750380 0.666420 0.756970 1.405675
V4    V     V_3+5 0.249620 0.333580 0.243030 1.405975
C9    C     C_R   0.407954 0.187975 0.058496 0.165987
C10   C     C_R   0.563904 0.811617 0.907890 0.166224
C11   C     C_R   0.091470 0.687511 0.441289 0.168218
C12   C     C_R   0.934692 0.310065 0.589667 0.170064
C13   C     C_R   0.369335 0.196507 0.099698 -0.203788
C14   C     C_R   0.605685 0.802427 0.870511 -0.200550
C15   C     C_R   0.131008 0.695121 0.401082 -0.193717
C16   C     C_R   0.893487 0.301058 0.627835 -0.202264
H1    H     H_    0.345956 0.322673 0.102912 0.128352
H2    H     H_    0.611040 0.675919 0.845851 0.123779
H3    H     H_    0.155384 0.819483 0.399443 0.131729
H4    H     H_    0.888065 0.173840 0.651996 0.123264
C17   C     C_R   0.359692 0.043028 0.135497 -0.075257
C18   C     C_R   0.639151 0.956374 0.862990 -0.073933
C19   C     C_R   0.139762 0.543925 0.363852 -0.079804
C20   C     C_R   0.860463 0.455796 0.636468 -0.073968
C21   C     C_R   0.389959 0.879789 0.129703 -0.171975
C22   C     C_R   0.630695 0.120384 0.894497 -0.175684
C23   C     C_R   0.107778 0.383834 0.367242 -0.170276
C24   C     C_R   0.868737 0.620233 0.605248 -0.174801
H5    H     H_    0.383929 0.758991 0.156637 0.129057
H6    H     H_    0.655788 0.241463 0.889988 0.131658
H7    H     H_    0.113024 0.265076 0.339054 0.128380
H8    H     H_    0.843913 0.741783 0.610459 0.131922
C25   C     C_R   0.429072 0.870837 0.089710 -0.184744
C26   C     C_R   0.590134 0.129757 0.932785 -0.183565
C27   C     C_R   0.067875 0.375715 0.406290 -0.176343
C28   C     C_R   0.908683 0.629476 0.566258 -0.186016
H9    H     H_    0.452299 0.744165 0.086914 0.114098
H10   H     H_    0.585113 0.256965 0.957169 0.114268
H11   H     H_    0.043335 0.251597 0.407195 0.112911
H12   H     H_    0.913459 0.756899 0.542021 0.113421
C29   C     C_R   0.438418 0.023185 0.053763 0.112028
C30   C     C_R   0.556245 0.977335 0.939628 0.111656
C31   C     C_R   0.059396 0.525561 0.443715 0.099964
C32   C     C_R   0.942183 0.476535 0.558372 0.112911
C33   C     C_1   0.479715 0.007601 0.013117 -0.058312
C34   C     C_1   0.514394 0.993830 0.979575 -0.057804
C35   C     C_1   0.018081 0.508457 0.484245 -0.066024
C36   C     C_1   0.983567 0.493644 0.517919 -0.054569
C37   C     C_3   0.954643 0.049817 0.023119 -0.136447
C38   C     C_3   0.045455 0.950215 0.976757 -0.135839
C39   C     C_3   0.545612 0.541488 0.476194 -0.136301
C40   C     C_3   0.454257 0.458541 0.523970 -0.135904
C41   C     C_3   0.004519 0.176871 0.018782 -0.139010
C42   C     C_3   0.995578 0.823162 0.981094 -0.138614
C43   C     C_3   0.496835 0.674880 0.479340 -0.138866
C44   C     C_3   0.503037 0.325149 0.520825 -0.138516
H13   H     H_    0.008375 0.322968 0.034420 0.108698
H14   H     H_    0.991722 0.677065 0.965455 0.108836
H15   H     H_    0.494105 0.819371 0.462146 0.108787
H16   H     H_    0.505767 0.180660 0.538021 0.108914
H17   H     H_    0.916985 0.090733 0.042088 0.110162
H18   H     H_    0.083114 0.909302 0.957789 0.110609
H19   H     H_    0.583496 0.575524 0.456639 0.110158
H20   H     H_    0.416373 0.424508 0.543525 0.110496
H21   H     H_    0.012710 0.203193 0.915806 0.109410
H22   H     H_    0.987385 0.796833 0.084066 0.109154
H23   H     H_    0.489280 0.714906 0.582040 0.108970
H24   H     H_    0.510594 0.285114 0.418130 0.108875
C45   C     C_1   0.128058 0.043285 0.125257 -0.181221
C46   C     C_1   0.871988 0.956721 0.874685 -0.180889
C47   C     C_1   0.371930 0.543170 0.374753 -0.181328
C48   C     C_1   0.628008 0.456834 0.625325 -0.180970
C49   C     C_3   0.993006 0.888715 0.045929 -0.139346
C50   C     C_3   0.007090 0.111318 0.953945 -0.138918
C51   C     C_3   0.505877 0.382315 0.455281 -0.139065
C52   C     C_3   0.493996 0.617715 0.544886 -0.138817
C53   C     C_3   0.042272 0.015575 0.040995 0.167928
C54   C     C_3   0.957824 0.984457 0.958882 0.167987
C55   C     C_3   0.457709 0.515516 0.459024 0.167851
C56   C     C_3   0.542164 0.484513 0.541139 0.167911
C57   C     C_1   0.089519 0.031894 0.087171 -0.062829
C58   C     C_1   0.910556 0.968126 0.912735 -0.062626
C59   C     C_1   0.410464 0.531781 0.412845 -0.062895
C60   C     C_1   0.589436 0.468236 0.587281 -0.062700
C61   C     C_3   0.414703 0.354568 0.019440 -0.374556
C62   C     C_3   0.383781 0.327006 0.958011 -0.738629
H25   H     H_    0.402771 0.215191 0.933554 0.228340
H26   H     H_    0.340803 0.290322 0.961888 0.225936
H27   H     H_    0.384268 0.458025 0.932389 0.216917
H28   H     H_    0.398709 0.481543 0.039380 0.177166
H29   H     H_    0.458345 0.380299 0.015549 0.177673
C63   C     C_3   0.527390 0.644986 0.911549 -0.374486
C64   C     C_3   0.473984 0.671541 0.872038 -0.740226
H30   H     H_    0.449477 0.783467 0.889797 0.228899
H31   H     H_    0.481841 0.707465 0.826096 0.225110
H32   H     H_    0.450489 0.540312 0.870246 0.217437
H33   H     H_    0.547392 0.517906 0.896525 0.176556
H34   H     H_    0.519462 0.620022 0.958188 0.177480
C65   C     C_3   0.085173 0.853555 0.480928 -0.377968
C66   C     C_3   0.129985 0.856554 0.532821 -0.743436
H35   H     H_    0.126807 0.732407 0.561308 0.228068
H36   H     H_    0.170567 0.858376 0.516432 0.224759
H37   H     H_    0.125996 0.983329 0.559904 0.217950
H38   H     H_    0.087212 0.983103 0.454746 0.176689
H39   H     H_    0.045169 0.854292 0.498584 0.185352
C67   C     C_3   0.970000 0.141150 0.583521 -0.378891
C68   C     C_3   0.025634 0.164085 0.618947 -0.741363
H40   H     H_    0.048801 0.277608 0.600326 0.231344
H41   H     H_    0.021107 0.195307 0.666165 0.225649
H42   H     H_    0.048918 0.032843 0.617117 0.219459
H43   H     H_    0.950700 0.015632 0.600370 0.176752
H44   H     H_    0.974629 0.115085 0.536002 0.175739

loop_
_geom_bond_atom_site_label_1
_geom_bond_atom_site_label_2
_ccdc_geom_bond_type
C26   H10   S    
C51   C55   S    
O1    C5    A    
O19   V1    S    
O13   V1    S    
C41   C53   S    
C67   H43   S    
C52   C56   S    
C44   H16   S    
C68   H42   S    
O15   V3    S    
C10   C30   A    
C9    C29   A    
C65   C66   S    
C38   C50   S    
O7    C3    A    
C22   H6    S    
C63   H34   S    
C44   C56   S    
C8    C17   S    
C66   H36   S    
C14   H2    S    
C64   H31   S    
O4    C8    A    
C21   H5    S    
C42   C54   S    
C10   C63   S    
O1    V3    S    
C21   C25   A    
C63   C64   S    
O2    V4    S    
O3    V1    S    
C62   H25   S    
C24   C28   A    
C45   C57   T    
O3    C7    A    
C1    O15   A    
C46   C58   T    
C2    O16   A    
O2    C6    A    
O14   V2    S    
C17   C21   A    
H23   C52   S    
C40   H20   S    
H22   C49   S    
C31   C35   S    
C32   C36   S    
C5    C20   S    
C27   C31   A    
C40   C55   S    
O11   C7    A    
C6    C19   S    
C48   C60   T    
O12   C8    A    
C7    C18   S    
C65   H39   S    
C43   C55   S    
O10   V2    S    
C26   C30   A    
O5    V1    S    
C53   C57   S    
O4    V2    S    
O7    V3    S    
C63   H33   S    
C22   C26   A    
C43   C52   S    
C12   C16   A    
C40   C52   S    
C64   H32   S    
O18   V4    S    
C19   C23   A    
C50   C54   S    
C9    C13   A    
O8    V4    S    
C11   C15   A    
O5    C1    A    
C12   C67   S    
C42   H14   S    
C1    C48   S    
C41   H13   S    
O8    C4    A    
C42   C49   S    
C39   C51   S    
O9    C5    A    
C41   C50   S    
C38   H18   S    
O11   V3    S    
C62   H27   S    
C37   H17   S    
C47   C59   T    
C61   H28   S    
C38   C53   S    
C3    C46   S    
C39   H19   S    
C37   C54   S    
O6    V2    S    
C16   H4    S    
C37   C49   S    
C66   H37   S    
C44   C51   S    
C39   C56   S    
C4    C45   S    
C9    C61   S    
C13   C17   A    
C68   H40   S    
C56   C60   S    
C15   C19   A    
O16   V4    S    
O9    V1    S    
C16   C20   A    
C3    O13   A    
C10   C14   A    
O17   V3    S    
C67   H44   S    
C40   C44   S    
C25   C29   A    
C68   H41   S    
O6    C2    A    
C15   H3    S    
C12   C32   A    
C25   H9    S    
O12   V4    S    
C18   C22   A    
C27   H11   S    
H21   C50   S    
C28   H12   S    
O10   C6    A    
C11   C65   S    
C67   C68   S    
C35   C36   T    
C61   C62   S    
C43   H15   S    
C65   H38   S    
C30   C34   S    
C2    C47   S    
C29   C33   S    
O20   V2    S    
C54   C58   S    
C23   H7    S    
C13   H1    S    
C33   C34   T    
C62   H26   S    
C14   C18   A    
C11   C31   A    
C61   H29   S    
C20   C24   A    
C23   C27   A    
C28   C32   A    
C38   C42   S    
C4    O14   A    
C37   C41   S    
C55   C59   S    
C64   H30   S    
C39   C43   S    
C49   C53   S    
C24   H8    S    
H24   C51   S    
C66   H35   S    
