data_mof_unit_33.cif
_audit_creation_date              2012-12-10T18:33:32-0500
_audit_creation_method            fapswitch 2.2
_symmetry_space_group_name_H-M    P1
_symmetry_Int_Tables_number       1
_space_group_crystal_system       triclinic
_cell_length_a                    8.73158
_cell_length_b                    15.157685
_cell_length_c                    13.818655
_cell_angle_alpha                 89.885735
_cell_angle_beta                  97.967842
_cell_angle_gamma                 90.037257
_cell_volume                      1811.24649306

loop_
_atom_site_label
_atom_site_type_symbol
_atom_type_description
_atom_site_fract_x
_atom_site_fract_y
_atom_site_fract_z
_atom_type_partial_charge
C1    C     C_R   0.503385 0.329813 0.500412 0.829958
C2    C     C_R   0.496223 0.670170 0.499533 0.831061
C3    C     C_R   0.409906 0.563510 0.099920 0.370626
C4    C     C_R   0.405476 0.438784 0.883987 0.374922
C5    C     C_R   0.413456 0.560969 0.202517 0.008287
C6    C     C_R   0.409416 0.440994 0.782041 0.002172
C7    C     C_R   0.585940 0.440170 0.215991 0.066915
C8    C     C_R   0.589733 0.558090 0.799304 0.087354
C9    C     C_R   0.586048 0.439738 0.114175 -0.236880
C10   C     C_R   0.589969 0.558611 0.901148 -0.226267
C11   C     C_R   0.497334 0.501295 0.054269 0.037454
C12   C     C_R   0.497152 0.499084 0.945239 0.031912
C13   C     C_R   0.203557 0.499949 0.475048 0.894959
C14   C     C_R   0.796448 0.499959 0.524957 0.892946
C15   C     C_2   0.037820 0.499913 0.461227 -0.349412
C16   C     C_2   0.962194 0.499850 0.538797 -0.337169
C17   C     C_R   0.546692 0.096079 0.593035 0.402299
C18   C     C_R   0.450037 0.903538 0.406141 0.399173
C19   C     C_R   0.529471 0.187723 0.590606 -0.186093
C20   C     C_R   0.468430 0.811976 0.408897 -0.200287
C21   C     C_R   0.515108 0.233546 0.501902 -0.117620
C22   C     C_R   0.483162 0.766373 0.497771 -0.116746
C23   C     C_R   0.529767 0.187430 0.416409 -0.167546
C24   C     C_R   0.466977 0.812536 0.582999 -0.158960
C25   C     C_R   0.537572 0.096056 0.418145 -0.082164
C26   C     C_R   0.457527 0.903864 0.580871 -0.086836
C27   C     C_R   0.519253 0.048208 0.503130 0.001859
C28   C     C_R   0.476202 0.951615 0.495893 0.003542
Cu1   Cu    Cu3+1 0.500000 0.499990 0.596430 0.983241
Cu2   Cu    Cu3+1 0.500000 0.500010 0.403570 0.976379
H1    H     H_    0.977799 0.499977 0.386823 0.186258
H2    H     H_    0.022216 0.499739 0.613205 0.194238
H3    H     H_    0.539802 0.223838 0.658816 0.205113
H4    H     H_    0.458603 0.775717 0.340788 0.201660
H5    H     H_    0.535082 0.221661 0.348057 0.173369
H6    H     H_    0.461655 0.778384 0.651396 0.179148
H7    H     H_    0.557345 0.063877 0.351984 0.209863
H8    H     H_    0.436589 0.936202 0.646737 0.218135
H9    H     H_    0.346658 0.607992 0.237942 0.172256
H10   H     H_    0.339637 0.395335 0.734694 0.171162
H11   H     H_    0.655022 0.392338 0.260927 0.139637
H12   H     H_    0.661761 0.604449 0.766634 0.151972
H13   H     H_    0.655169 0.391384 0.082179 0.199604
H14   H     H_    0.662342 0.605476 0.945463 0.203725
N1    N     N_R   0.500000 0.500020 0.258690 -0.207422
N2    N     N_R   0.500000 0.499980 0.741310 -0.211195
O1    O     O_R   0.500010 0.371450 0.581430 -0.587785
O2    O     O_R   0.499990 0.628550 0.418570 -0.591313
O3    O     O_R   0.500010 0.371460 0.418560 -0.590324
O4    O     O_R   0.499990 0.628540 0.581440 -0.590667
O5    O     O_R   0.274840 0.499990 0.562640 -0.580117
O6    O     O_R   0.725160 0.500010 0.437360 -0.582342
O7    O     O_R   0.274840 0.500000 0.399770 -0.577913
O8    O     O_R   0.725160 0.500000 0.600230 -0.575330
S1    S     S_3+6 0.650380 0.053671 0.703299 0.015790
O9    O     O_2   0.736698 0.971052 0.684496 -0.277477
O10   O     O_2   0.765211 0.121639 0.746765 -0.227772
O11   O     O_3   0.526995 0.033194 0.783949 -0.521791
H15   H     H_    0.591975 0.008243 0.841992 0.399414
S2    S     S_3+6 0.345349 0.945289 0.295929 0.017333
O12   O     O_2   0.454746 0.962594 0.223049 -0.277263
O13   O     O_2   0.229417 0.877328 0.253883 -0.218613
O14   O     O_3   0.249423 0.038149 0.316338 -0.530505
H16   H     H_    0.207512 0.060395 0.250539 0.388789
S3    S     S_3+6 0.296426 0.644739 0.031370 0.034637
O15   O     O_2   0.196367 0.602161 0.946986 -0.265855
O16   O     O_2   0.195563 0.691952 0.094325 -0.241610
O17   O     O_3   0.414757 0.718059 0.988156 -0.518977
H17   H     H_    0.345539 0.757240 0.944412 0.392558
S4    S     S_3+6 0.286095 0.360397 0.932268 0.033203
O18   O     O_2   0.189742 0.405334 0.999655 -0.259933
O19   O     O_2   0.181347 0.315796 0.851434 -0.255216
O20   O     O_3   0.398918 0.284190 0.995458 -0.518687
H18   H     H_    0.327016 0.246973 0.027300 0.391167

loop_
_geom_bond_atom_site_label_1
_geom_bond_atom_site_label_2
_ccdc_geom_bond_type
C2    C22   S    
C8    H12   S    
C11   C12   S    
C14   O6    A    
C1    C21   S    
Cu1   Cu2   S    
C14   C16   S    
C4    C12   A    
C2    O4    A    
O20   H18   S    
C17   S1    S    
Cu2   N1    S    
C26   C28   A    
C13   C15   S    
Cu1   N2    S    
S1    O9    D    
S3    O17   S    
C20   H4    S    
S4    O20   S    
S1    O10   D    
C18   C28   A    
C14   O8    A    
C3    S3    S    
Cu2   O7    S    
C15   H1    S    
C9    C11   A    
C6    H10   S    
C24   H6    S    
C10   C12   A    
Cu1   O1    S    
S2    O14   S    
C10   H14   S    
C7    N1    A    
Cu2   O2    S    
C19   C21   A    
Cu2   O3    S    
C24   C26   A    
S3    O15   D    
C13   O7    A    
Cu1   O4    S    
C5    H9    S    
C21   C23   A    
Cu1   O5    S    
C25   C27   A    
C23   H5    S    
C22   C24   A    
C4    S4    S    
C9    H13   S    
S4    O18   D    
C16   H2    S    
Cu1   O8    S    
C17   C19   A    
O14   H16   S    
C17   C27   A    
C3    C5    A    
C23   C25   A    
C3    C11   A    
C18   C20   A    
S2    O13   D    
C4    C6    A    
C19   H3    S    
S1    O11   S    
C18   S2    S    
C27   C28   S    
C7    C9    A    
Cu2   O6    S    
C26   H8    S    
S4    O19   D    
C5    N1    A    
C6    N2    A    
C8    N2    A    
C2    O2    A    
O11   H15   S    
C13   O5    A    
C1    O3    A    
O17   H17   S    
C8    C10   A    
C1    O1    A    
C15   C16   D    
C7    H11   S    
C20   C22   A    
S2    O12   D    
S3    O16   D    
C25   H7    S    
