data_mof_unit_712.cif
_audit_creation_date              2012-12-11T15:20:40-0500
_audit_creation_method            fapswitch 2.2
_symmetry_space_group_name_H-M    P1
_symmetry_Int_Tables_number       1
_space_group_crystal_system       triclinic
_cell_length_a                    13.09113
_cell_length_b                    13.019287
_cell_length_c                    15.478742
_cell_angle_alpha                 116.931832
_cell_angle_beta                  63.526197
_cell_angle_gamma                 97.637638
_cell_volume                      2097.51166606

loop_
_atom_site_label
_atom_site_type_symbol
_atom_type_description
_atom_site_fract_x
_atom_site_fract_y
_atom_site_fract_z
_atom_type_partial_charge
C1    C     C_R   0.002025 0.833366 0.054991 -0.144805
C2    C     C_R   0.308716 0.575157 0.782035 0.546277
C3    C     C_R   0.245482 0.474124 0.102219 -0.189531
C4    C     C_R   0.680131 0.471118 0.217656 -0.175693
C5    C     C_R   0.052355 0.279775 0.685181 -0.133437
C6    C     C_R   0.336391 0.536860 0.072159 -0.245477
C7    C     C_R   0.037757 0.170737 0.678656 -0.007192
C8    C     C_R   0.302859 0.543246 0.686086 -0.028613
C9    C     C_R   0.028084 0.146275 0.026192 -0.065172
C10   C     C_R   0.148284 0.893661 0.434018 -0.157679
C11   C     C_R   0.138415 0.986680 0.529323 -0.182500
C12   C     C_R   0.670559 0.537861 0.320146 -0.050310
C13   C     C_R   0.049386 0.072825 0.583021 0.156970
C14   C     C_R   0.969243 0.067631 0.545332 -0.168589
C15   C     C_R   0.978658 0.975452 0.451455 -0.208283
C16   C     C_R   0.746510 0.533941 0.908964 -0.102601
C17   C     C_R   0.068912 0.890444 0.395817 0.145163
C18   C     C_R   0.525694 0.651737 0.503109 -0.413562
C19   C     C_R   0.432888 0.653996 0.595191 0.548657
C20   C     C_R   0.387564 0.548960 0.591512 -0.139812
C21   C     C_R   0.428939 0.444047 0.497923 0.469072
C22   C     C_R   0.518920 0.443801 0.407597 -0.322697
C23   C     C_R   0.648427 0.489064 0.958101 0.129410
C24   C     C_R   0.568922 0.546256 0.411758 0.084008
C25   C     C_2   0.446082 0.527813 0.068091 0.530922
C26   C     C_2   0.536576 0.507027 0.972991 -0.337023
C27   C     C_2   0.836998 0.962548 0.098839 -0.183619
C28   C     C_R   0.015882 0.701326 0.301812 -0.122703
C29   C     C_2   0.840190 0.051984 0.185787 -0.124549
C30   C     C_R   0.671036 0.433693 0.004000 -0.004921
C31   C     C_R   0.093538 0.802629 0.207487 0.512620
C32   C     C_R   0.780031 0.552290 0.314901 0.514543
C33   C     C_R   0.906767 0.752058 0.955188 0.537629
C34   C     C_R   0.073341 0.796532 0.300451 -0.168425
C35   C     C_R   0.916782 0.856453 0.034472 -0.078498
C36   C     C_3   0.494655 0.576737 0.754368 0.322834
C37   C     C_3   0.586070 0.653582 0.778759 -0.786028
C38   C     C_3   0.447009 0.277918 0.506813 0.289059
C39   C     C_3   0.384036 0.175273 0.520130 -0.898064
C40   C     C_3   0.170046 0.977429 0.222994 0.242470
C41   C     C_3   0.236721 0.038185 0.152906 -0.828597
C42   C     C_R   0.318650 0.582798 0.015695 0.531567
C43   C     C_R   0.967811 0.178753 0.779510 -0.120823
C44   C     C_R   0.201379 0.498041 0.692279 -0.131948
C45   C     C_R   0.066357 0.252304 0.074715 -0.198179
C46   C     C_R   0.961452 0.168634 0.985798 0.524328
H1    H     H_    0.029922 0.893764 0.113793 0.145392
H2    H     H_    0.611214 0.435897 0.195720 0.164067
H3    H     H_    0.916387 0.970272 0.421566 0.115958
H4    H     H_    0.565630 0.730156 0.502941 0.146722
H5    H     H_    0.552910 0.362384 0.335642 0.155722
H6    H     H_    0.528414 0.503170 0.904991 0.108748
H7    H     H_    0.769078 0.967478 0.078621 0.155109
H8    H     H_    0.903135 0.054652 0.214193 0.118326
H9    H     H_    0.760497 0.564741 0.850902 0.171484
H10   H     H_    0.997462 0.667322 0.358737 0.192791
H11   H     H_    0.619286 0.375007 0.034437 0.118089
H12   H     H_    0.927754 0.108615 0.796949 0.181283
H13   H     H_    0.911696 0.016807 0.934497 0.311382
H14   H     H_    0.523920 0.538794 0.666060 0.033508
H15   H     H_    0.489462 0.504848 0.775785 0.040158
H16   H     H_    0.565277 0.690491 0.865367 0.261174
H17   H     H_    0.670251 0.601952 0.731071 0.188320
H18   H     H_    0.592553 0.725236 0.756787 0.252998
H19   H     H_    0.429603 0.820219 0.676953 0.312778
H20   H     H_    0.462207 0.330957 0.579580 0.049060
H21   H     H_    0.530783 0.244702 0.434227 0.099240
H22   H     H_    0.366664 0.120478 0.449274 0.261636
H23   H     H_    0.165954 0.476575 0.635586 0.145850
H24   H     H_    0.437012 0.122439 0.527383 0.208750
H25   H     H_    0.301564 0.206239 0.594001 0.254260
H26   H     H_    0.379795 0.556184 0.217605 0.315686
H27   H     H_    0.207754 0.994834 0.279448 0.128037
H28   H     H_    0.079281 0.014983 0.268627 0.056949
H29   H     H_    0.200905 0.023699 0.095725 0.251042
H30   H     H_    0.230652 0.132573 0.204312 0.199803
H31   H     H_    0.328277 0.004195 0.106666 0.271415
H32   H     H_    0.740303 0.621053 0.466785 0.316713
H33   H     H_    0.813307 0.813416 0.919047 0.311055
H34   H     H_    0.113745 0.269875 0.121251 0.134740
H35   H     H_    0.414618 0.708859 0.040440 0.308720
H36   H     H_    0.228191 0.433720 0.154346 0.133533
H37   H     H_    0.092718 0.303172 0.619465 0.129895
H38   H     H_    0.216728 0.825534 0.390204 0.132230
H39   H     H_    0.199443 0.992297 0.560544 0.134615
H40   H     H_    0.900011 0.134962 0.588666 0.123577
N1    N     N_R   0.037310 0.720000 0.995790 -0.064068
N2    N     N_R   0.824890 0.517960 0.936420 -0.052944
N3    N     N_R   0.003210 0.648190 0.211380 -0.075682
N4    N     N_R   0.774330 0.457010 0.995840 -0.066318
N5    N     N_R   0.053760 0.709140 0.151960 -0.091831
N6    N     N_R   0.853860 0.498840 0.211410 -0.074353
N7    N     N_R   0.974240 0.667310 0.936390 -0.081152
N8    N     N_R   0.225670 0.542990 0.004160 -0.078864
N9    N     N_R   0.946240 0.290860 0.848040 -0.045763
N10   N     N_R   0.146140 0.501160 0.788590 -0.093647
N11   N     N_R   0.025760 0.332690 0.063610 -0.069222
N12   N     N_R   0.962690 0.280000 0.004210 -0.076856
N13   N     N_R   0.209210 0.553840 0.847990 -0.104922
N14   N     N_R   0.175110 0.482040 0.063580 -0.066585
N15   N     N_R   0.996790 0.351810 0.788620 -0.047340
N16   N     N_R   0.790790 0.446160 0.152010 -0.077143
Ni1   Ni    Ni4+2 0.130310 0.630310 0.999970 0.313784
Ni2   Ni    Ni4+2 0.869690 0.369690 0.000030 0.230623
Ni3   Ni    Ni4+2 0.985640 0.509470 0.863740 0.221032
Ni4   Ni    Ni4+2 0.014360 0.490530 0.136260 0.215957
O1    O     O_3   0.887603 0.095310 0.951532 -0.798628
O2    O     O_3   0.387607 0.642831 0.813974 -0.546548
O3    O     O_3   0.386531 0.755477 0.688811 -0.716784
O4    O     O_3   0.379756 0.342158 0.494748 -0.625529
O5    O     O_3   0.457183 0.538211 0.156504 -0.765545
O6    O     O_3   0.180533 0.857535 0.156455 -0.593453
O7    O     O_3   0.810747 0.592402 0.398117 -0.794023
O8    O     O_3   0.846478 0.736880 0.897562 -0.797597
O9    O     O_3   0.363077 0.680255 0.004551 -0.683618

loop_
_geom_bond_atom_site_label_1
_geom_bond_atom_site_label_2
_ccdc_geom_bond_type
C1    N1    A    
N13   Ni1   S    
N10   Ni3   S    
N10   N13   A    
C9    C45   A    
C36   O2    S    
C39   H22   S    
C19   C20   A    
C30   N4    A    
C3    C6    A    
N11   N12   A    
C28   H10   S    
C40   O6    S    
C18   H4    S    
C33   O8    S    
C8    C20   S    
C18   C24   A    
C36   C37   S    
C41   H31   S    
C38   C39   S    
C5    H37   S    
C6    C25   S    
C27   C29   D    
C29   H8    S    
C10   C17   A    
C30   H11   S    
C40   H27   S    
C18   C19   A    
C23   C26   S    
C2    O2    S    
C43   H12   S    
N7    Ni3   S    
C3    N14   A    
C38   H20   S    
C4    N16   A    
N3    Ni4   S    
C43   N9    A    
C31   O6    S    
C28   N3    A    
C7    C43   A    
C32   O7    S    
C38   O4    S    
N6    N16   A    
C46   N12   A    
H26   O5    S    
C28   C34   A    
C9    C46   A    
C13   C14   A    
C12   C32   A    
C37   H17   S    
C21   O4    S    
C19   O3    S    
N15   Ni3   S    
C5    N15   A    
C23   C30   A    
C14   H40   S    
C5    C7    A    
C1    H1    S    
C27   C35   S    
C25   C26   D    
H13   O1    S    
C44   N10   A    
C26   H6    S    
C41   H29   S    
N8    N14   A    
H19   O3    S    
C46   O1    S    
H35   O9    S    
C3    H36   S    
C31   C34   A    
C44   H23   S    
C38   H21   S    
N16   Ni2   S    
N4    Ni2   S    
N1    Ni1   S    
N11   Ni4   S    
N6    Ni4   S    
C40   C41   S    
N2    N4    A    
N8    Ni1   S    
C16   C23   A    
C31   N5    A    
C22   C24   A    
H32   O7    S    
C4    C12   A    
C17   C34   S    
C36   H15   S    
C37   H18   S    
N9    Ni2   S    
C1    C35   A    
C4    H2    S    
C15   C17   A    
C39   H25   S    
C42   N8    A    
C2    C8    A    
C8    C44   A    
N5    Ni1   S    
C36   H14   S    
C33   N7    A    
C2    N13   A    
C27   H7    S    
C12   C24   S    
N14   Ni4   S    
C16   H9    S    
C45   N11   A    
C41   H30   S    
N2    Ni3   S    
C11   C13   A    
C32   N6    A    
C11   H39   S    
N12   Ni2   S    
N1    N7    A    
C10   H38   S    
C33   C35   A    
C39   H24   S    
C40   H28   S    
C45   H34   S    
C15   H3    S    
C10   C11   A    
C25   O5    S    
C42   O9    S    
C7    C13   S    
C20   C21   A    
N3    N5    A    
C6    C42   A    
H33   O8    S    
C16   N2    A    
C37   H16   S    
C14   C15   A    
C21   C22   A    
N9    N15   A    
C22   H5    S    
