data_mof_unit_3013.cif
_audit_creation_date              2012-12-10T17:36:50-0500
_audit_creation_method            fapswitch 2.2
_symmetry_space_group_name_H-M    P1
_symmetry_Int_Tables_number       1
_space_group_crystal_system       triclinic
_cell_length_a                    10.607052
_cell_length_b                    12.350613
_cell_length_c                    13.187132
_cell_angle_alpha                 116.818148
_cell_angle_beta                  77.176576
_cell_angle_gamma                 101.580843
_cell_volume                      1493.21398315

loop_
_atom_site_label
_atom_site_type_symbol
_atom_type_description
_atom_site_fract_x
_atom_site_fract_y
_atom_site_fract_z
_atom_type_partial_charge
C1    C     C_R   0.510783 0.854808 0.286531 0.785843
C2    C     C_3   0.012793 0.908705 0.525302 -0.171956
C3    C     C_3   0.954856 0.892209 0.420620 -0.229903
C4    C     C_3   0.877401 0.000376 0.499880 -0.045218
C5    C     C_R   0.310609 0.275624 0.018901 0.479028
C6    C     C_R   0.448760 0.228115 0.834703 -0.107704
C7    C     C_R   0.592851 0.814237 0.083671 -0.156740
C8    C     C_R   0.615615 0.735194 0.968169 -0.140745
C9    C     C_R   0.567864 0.612317 0.930994 -0.189144
C10   C     C_R   0.491345 0.566405 0.009043 0.112178
C11   C     C_R   0.455094 0.650410 0.124116 0.087187
C12   C     C_R   0.740414 0.999925 0.499785 0.858692
C13   C     C_R   0.448165 0.440067 0.976040 0.017327
C14   C     C_R   0.356294 0.401047 0.052862 0.040613
C15   C     C_R   0.310223 0.487875 0.161314 -0.215857
C16   C     C_R   0.357708 0.610341 0.195941 -0.210567
C17   C     C_R   0.496058 0.351131 0.869242 -0.247796
C18   C     C_R   0.358980 0.189890 0.910566 -0.243346
C19   C     C_R   0.515907 0.772724 0.163276 -0.121776
C20   C     C_R   0.707529 0.349332 0.329240 -0.318927
C21   C     C_R   0.323677 0.759610 0.645710 0.085968
C22   C     C_R   0.285087 0.663452 0.677879 -0.248635
C23   C     C_R   0.479804 0.145147 0.713536 0.843300
C24   C     C_R   0.351171 0.560130 0.623234 -0.189319
C25   C     C_R   0.457399 0.551804 0.535219 0.014641
C26   C     C_R   0.493570 0.653201 0.505439 0.291219
C27   C     C_R   0.529269 0.447497 0.475836 -0.029801
C28   C     C_R   0.634943 0.448122 0.388899 0.115194
C29   C     C_R   0.668570 0.547433 0.361517 -0.254813
C30   C     C_R   0.599647 0.647554 0.418495 -0.164036
C31   C     C_R   0.501840 0.341990 0.498223 -0.046912
C32   C     C_R   0.676623 0.249053 0.354810 0.565319
C33   C     C_R   0.259549 0.000098 0.500305 0.784868
C34   C     C_3   0.987467 0.091092 0.475150 -0.147239
C35   C     C_3   0.066987 0.982806 0.395784 -0.124780
C36   C     C_3   0.122516 0.999634 0.500490 -0.044272
C37   C     C_3   0.045448 0.107985 0.579946 -0.228819
C38   C     C_3   0.934172 0.016951 0.603260 0.410662
Cu1   Cu    Cu3+1 0.529830 0.098270 0.475420 0.988113
Cu2   Cu    Cu3+1 0.470170 0.901730 0.524580 0.947086
H1    H     H_    0.124953 0.968767 0.310511 0.152828
H2    H     H_    0.571174 0.374982 0.810437 0.163372
H3    H     H_    0.637822 0.907728 0.110862 0.210274
H4    H     H_    0.589273 0.556517 0.840028 0.134268
H5    H     H_    0.673863 0.768674 0.907350 0.169227
H6    H     H_    0.313469 0.673211 0.278569 0.173728
H7    H     H_    0.749677 0.548016 0.295048 0.147471
H8    H     H_    0.788529 0.349974 0.262711 0.157038
H9    H     H_    0.423041 0.334072 0.562828 0.138308
H10   H     H_    0.271786 0.839376 0.688733 0.126090
H11   H     H_    0.974800 0.165562 0.454359 0.187400
H12   H     H_    0.317354 0.488445 0.651516 0.135935
H13   H     H_    0.203646 0.669061 0.745466 0.149927
H14   H     H_    0.633592 0.718789 0.391303 0.199440
H15   H     H_    0.085145 0.195769 0.645512 0.149041
H16   H     H_    0.025241 0.834523 0.546595 0.158640
H17   H     H_    0.914733 0.804240 0.355563 0.142334
H18   H     H_    0.322156 0.094244 0.884210 0.167493
H19   H     H_    0.237463 0.461623 0.220622 0.173612
N1    N     N_R   0.575030 0.246270 0.438190 -0.206466
N2    N     N_R   0.425760 0.754330 0.561190 -0.208513
O1    O     O_R   0.537510 0.972500 0.318130 -0.529160
O2    O     O_R   0.487140 0.806530 0.359650 -0.616074
O3    O     O_R   0.708330 0.082950 0.479220 -0.538270
O4    O     O_R   0.657960 0.916980 0.520740 -0.584141
O5    O     O_R   0.512860 0.193470 0.640350 -0.598359
O6    O     O_R   0.462490 0.027500 0.681870 -0.572155
O7    O     O_R   0.342040 0.083020 0.479260 -0.583217
O8    O     O_R   0.291670 0.917050 0.520780 -0.605062
Cl1   Cl    Cl    0.772679 0.128329 0.276438 -0.678425
Cl2   Cl    Cl    0.843585 0.039849 0.740984 -0.661798
O9    O     O_3   0.222057 0.235164 0.092453 -0.587917
C39   C     C_3   0.093555 0.241976 0.083223 0.023551
H20   H     H_    0.085826 0.313554 0.055893 0.124551
H21   H     H_    0.034486 0.266884 0.169798 0.195916
C40   C     C_3   0.033414 0.118213 0.001980 -0.697886
H22   H     H_    0.041884 0.046415 0.028056 0.258646
H23   H     H_    0.928790 0.121840 0.005083 0.251151
H24   H     H_    0.083066 0.094386 0.912405 0.228273

loop_
_geom_bond_atom_site_label_1
_geom_bond_atom_site_label_2
_ccdc_geom_bond_type
C24   H12   S    
C34   C37   S    
Cu1   O7    S    
C35   C36   S    
C40   H24   S    
C1    O1    A    
C7    C8    A    
Cu1   O3    S    
C30   H14   S    
C11   C19   A    
C34   H11   S    
C29   C30   A    
Cu2   O2    S    
C29   H7    S    
C23   O5    A    
C36   C37   S    
C26   N2    A    
C40   H23   S    
C5    O9    S    
C12   O3    A    
Cu1   N1    S    
C15   C16   A    
C33   C36   S    
C34   C35   S    
C39   H20   S    
C23   O6    A    
Cu1   O1    S    
C17   H2    S    
C8    H5    S    
C18   H18   S    
C8    C9    A    
Cu2   O6    S    
C7    H3    S    
C4    C12   S    
C9    C10   A    
C21   N2    A    
C33   O8    A    
C21   C22   A    
C39   H21   S    
C31   H9    S    
C1    O2    A    
C21   H10   S    
C22   H13   S    
C6    C18   A    
C4    C34   S    
C1    C19   S    
Cu2   O8    S    
C27   C31   A    
C40   H22   S    
C16   H6    S    
Cu1   Cu2   S    
C32   Cl1   S    
C5    C18   A    
C20   C28   A    
C25   C26   A    
Cu2   N2    S    
C31   N1    A    
C37   C38   S    
C11   C16   A    
C2    C38   S    
C3    C35   S    
C24   C25   A    
C5    C14   A    
C20   H8    S    
C3    H17   S    
C4    C38   S    
C26   C30   A    
C7    C19   A    
Cu2   O4    S    
Cu1   O5    S    
C22   C24   A    
C32   N1    A    
C3    C4    S    
C20   C32   A    
C2    C36   S    
C6    C17   A    
C38   Cl2   S    
C28   C29   A    
C9    H4    S    
C15   H19   S    
O9    C39   S    
C10   C13   A    
C25   C27   A    
C12   O4    A    
C13   C17   A    
C2    C3    S    
C2    H16   S    
C6    C23   S    
C39   C40   S    
C35   H1    S    
C10   C11   A    
C37   H15   S    
C27   C28   A    
C14   C15   A    
C13   C14   A    
C33   O7    A    
