data_mof_unit_4993.cif
_audit_creation_date              2012-12-10T19:02:43-0500
_audit_creation_method            fapswitch 2.2
_symmetry_space_group_name_H-M    P1
_symmetry_Int_Tables_number       1
_space_group_crystal_system       triclinic
_cell_length_a                    9.653292
_cell_length_b                    10.889324
_cell_length_c                    13.863824
_cell_angle_alpha                 92.734758
_cell_angle_beta                  85.197126
_cell_angle_gamma                 91.845166
_cell_volume                      1449.98146278

loop_
_atom_site_label
_atom_site_type_symbol
_atom_type_description
_atom_site_fract_x
_atom_site_fract_y
_atom_site_fract_z
_atom_type_partial_charge
C1    C     C_R   0.501857 0.737372 0.502781 0.807231
C2    C     C_1   0.464966 0.500722 0.785631 -0.186947
C3    C     C_R   0.421250 0.928391 0.442583 0.022791
C4    C     C_R   0.507871 0.870832 0.500826 -0.110905
C5    C     C_R   0.604066 0.945760 0.551273 0.157596
C6    C     C_R   0.598337 0.074270 0.548920 -0.206426
C7    C     C_R   0.499605 0.129576 0.497479 -0.146700
C8    C     C_R   0.420162 0.054238 0.437966 0.024727
C9    C     C_3   0.271343 0.051646 0.414687 -0.090315
C10   C     C_3   0.271510 0.910521 0.422434 0.296361
C11   C     C_R   0.934438 0.460740 0.419733 0.133906
C12   C     C_R   0.477722 0.500409 0.682598 0.804570
C13   C     C_R   0.919877 0.554222 0.574815 0.203443
C14   C     C_R   0.067619 0.559471 0.572951 0.266641
C15   C     C_R   0.081066 0.461874 0.419105 0.141323
C16   C     C_3   0.089071 0.340011 0.365116 -0.067653
C17   C     C_3   0.929860 0.336673 0.368975 -0.070659
C18   C     C_R   0.498597 0.262743 0.498042 0.819661
C19   C     C_R   0.522357 0.499985 0.317425 0.816168
C20   C     C_1   0.536061 0.499950 0.214410 -0.217466
C21   C     C_2   0.564208 0.499699 0.023805 0.197162
C22   C     C_2   0.448857 0.500932 0.976210 -0.173094
C23   C     C_1   0.455765 0.500887 0.872438 0.012340
C24   C     C_1   0.549177 0.499824 0.127619 -0.013628
Cu1   Cu    Cu3+1 0.359330 0.500020 0.500000 0.938412
Cu2   Cu    Cu3+1 0.640670 0.499980 0.500000 0.922888
H1    H     H_    0.346738 0.501925 0.015754 0.126107
H2    H     H_    0.129291 0.270084 0.409639 0.174286
H3    H     H_    0.880875 0.263781 0.415304 0.150321
H4    H     H_    0.667645 0.131647 0.590649 0.158455
H5    H     H_    0.202283 0.100030 0.471344 0.138711
N1    N     N_R   0.852140 0.499070 0.499400 -0.223485
N2    N     N_R   0.148050 0.499110 0.499400 -0.218538
O1    O     O_R   0.381190 0.680360 0.500000 -0.567718
O2    O     O_R   0.618770 0.680320 0.499990 -0.583858
O3    O     O_R   0.364410 0.500000 0.637850 -0.580306
O4    O     O_R   0.602000 0.499960 0.637840 -0.594776
O5    O     O_R   0.381230 0.319680 0.500010 -0.574017
O6    O     O_R   0.618810 0.319640 0.500000 -0.589170
O7    O     O_R   0.398000 0.500040 0.362160 -0.573959
O8    O     O_R   0.635590 0.500000 0.362150 -0.574070
C25   C     C_3   0.129782 0.631189 0.656002 -0.711223
H6    H     H_    0.230836 0.675254 0.635720 0.260495
H7    H     H_    0.065447 0.710721 0.681908 0.205560
H8    H     H_    0.136072 0.570884 0.717740 0.213818
C26   C     C_3   0.164865 0.347383 0.263385 -0.707047
H9    H     H_    0.278060 0.338103 0.267242 0.244854
H10   H     H_    0.129264 0.270208 0.215469 0.241427
H11   H     H_    0.146048 0.435620 0.230169 0.215001
N3    N     N_3   0.873697 0.337161 0.273821 -0.564220
H12   H     H_    0.767782 0.313539 0.282739 0.237960
H13   H     H_    0.882543 0.425211 0.246349 0.237952
C27   C     C_3   0.708230 0.498237 0.972431 -0.820832
H14   H     H_    0.788768 0.497291 0.025147 0.224284
H15   H     H_    0.719261 0.414826 0.923398 0.228789
H16   H     H_    0.726860 0.581438 0.929310 0.230427
C28   C     C_3   0.705757 0.893506 0.613433 -0.865543
H17   H     H_    0.784686 0.841371 0.566873 0.247734
H18   H     H_    0.762610 0.966503 0.654237 0.221248
H19   H     H_    0.648735 0.834412 0.667407 0.219644
N4    N     N_3   0.257866 0.093307 0.317089 -0.604165
H20   H     H_    0.334936 0.057210 0.267179 0.236076
H21   H     H_    0.160676 0.063567 0.295546 0.233344
N5    N     N_3   0.183066 0.868452 0.506459 -0.563092
H22   H     H_    0.079435 0.883351 0.494650 0.213132
H23   H     H_    0.204812 0.920864 0.568968 0.193827
C29   C     C_3   0.251187 0.828830 0.330706 -0.795454
H24   H     H_    0.332145 0.848453 0.271309 0.203594
H25   H     H_    0.257593 0.730464 0.346891 0.263337
H26   H     H_    0.146809 0.842684 0.305637 0.212220
N6    N     N_3   0.844971 0.605191 0.659760 -0.615030
H27   H     H_    0.765089 0.658183 0.640894 0.268714
H28   H     H_    0.811681 0.534673 0.705457 0.243759

loop_
_geom_bond_atom_site_label_1
_geom_bond_atom_site_label_2
_ccdc_geom_bond_type
C17   N3    S    
C16   H2    S    
Cu2   O8    S    
N3    H13   S    
C18   O6    A    
Cu2   O4    S    
Cu2   N1    S    
C6    C7    A    
Cu1   O5    S    
C12   O3    A    
C17   H3    S    
C9    C10   S    
C13   N1    A    
C10   N5    S    
C19   C20   S    
C5    C28   S    
Cu1   O1    S    
C14   C25   S    
C29   H26   S    
C2    C12   S    
N5    H22   S    
C7    C18   S    
C14   N2    A    
N3    H12   S    
C18   O5    A    
C21   C24   S    
C7    C8    A    
C3    C10   S    
C12   O4    A    
C13   C14   A    
C21   C27   S    
C26   H11   S    
C28   H17   S    
C5    C6    A    
C25   H7    S    
C9    N4    S    
C21   C22   D    
C6    H4    S    
C11   N1    A    
C22   H1    S    
C27   H15   S    
Cu1   O7    S    
N4    H20   S    
C26   H10   S    
Cu2   O6    S    
C28   H18   S    
C1    C4    S    
C16   C17   S    
C25   H6    S    
C9    H5    S    
Cu1   O3    S    
C15   C16   S    
C19   O8    A    
Cu2   O2    S    
N6    H27   S    
C1    O1    A    
C1    O2    A    
N6    H28   S    
C3    C8    A    
C19   O7    A    
C27   H16   S    
C16   C26   S    
C2    C23   T    
N4    H21   S    
C20   C24   T    
C26   H9    S    
C4    C5    A    
C28   H19   S    
C13   N6    S    
Cu1   Cu2   S    
C10   C29   S    
C11   C15   A    
C15   N2    A    
C22   C23   S    
C11   C17   S    
C3    C4    A    
C29   H24   S    
C27   H14   S    
Cu1   N2    S    
C8    C9    S    
C29   H25   S    
C25   H8    S    
N5    H23   S    
