data_mof_unit_231.cif
_audit_creation_date              2013-03-05T15:49:55-0500
_audit_creation_method            fapswitch 2.2
_symmetry_space_group_name_H-M    P1
_symmetry_Int_Tables_number       1
_space_group_crystal_system       triclinic
_cell_length_a                    27.760238
_cell_length_b                    12.947183
_cell_length_c                    11.750759
_cell_angle_alpha                 99.348946
_cell_angle_beta                  92.446071
_cell_angle_gamma                 91.698783
_cell_volume                      4160.65860649

loop_
_atom_site_label
_atom_site_type_symbol
_atom_site_description
_atom_site_fract_x
_atom_site_fract_y
_atom_site_fract_z
_atom_type_partial_charge
O1    O     O_R   0.502540 0.354460 0.582000 -0.549710
O2    O     O_R   0.497460 0.645540 0.418000 -0.590879
O3    O     O_R   0.496500 0.341410 0.386200 -0.598137
O4    O     O_R   0.503500 0.658590 0.613800 -0.594572
C1    C     C_R   0.498503 0.299435 0.479108 0.794525
C2    C     C_R   0.500271 0.700581 0.521234 0.779775
O5    O     O_R   0.433290 0.506540 0.597890 -0.565925
O6    O     O_R   0.566710 0.493460 0.402110 -0.508492
O7    O     O_R   0.427240 0.493490 0.402090 -0.550936
O8    O     O_R   0.572760 0.506510 0.597910 -0.607000
C3    C     C_R   0.407653 0.500856 0.501164 0.851113
C4    C     C_R   0.592292 0.500679 0.498786 0.857810
Cu1   Cu    Cu3+1 0.503580 0.507730 0.615930 0.964279
Cu2   Cu    Cu3+1 0.496420 0.492270 0.384070 0.992188
C5    C     C_R   0.177197 0.412849 0.518329 0.648555
C6    C     C_R   0.823038 0.589113 0.548877 0.651217
O9    O     O_2   0.201896 0.325859 0.526074 -0.491190
O10   O     O_2   0.798685 0.673326 0.594745 -0.495802
N1    N     N_R   0.202090 0.504859 0.514453 -0.455197
N2    N     N_R   0.797759 0.499527 0.500162 -0.452187
C7    C     C_R   0.178912 0.596670 0.514956 0.555087
C8    C     C_R   0.820479 0.410629 0.456412 0.558975
C9    C     C_R   0.282911 0.566020 0.596112 -0.183830
C10   C     C_R   0.720641 0.438238 0.564244 -0.179107
C11   C     C_R   0.332918 0.566398 0.591601 -0.313800
C12   C     C_R   0.670515 0.438861 0.563885 -0.299803
C13   C     C_R   0.325845 0.438692 0.414882 0.367573
C14   C     C_R   0.670223 0.564457 0.430792 0.371971
C15   C     C_R   0.275401 0.444002 0.415267 0.455503
C16   C     C_R   0.720663 0.559659 0.426688 0.436885
C17   C     C_R   0.253806 0.504745 0.508750 0.172171
C18   C     C_R   0.745947 0.498533 0.496250 0.185658
C19   C     C_R   0.101869 0.503488 0.519141 -0.189904
C20   C     C_R   0.898093 0.501324 0.509808 -0.187342
C21   C     C_R   0.126353 0.408913 0.515247 -0.183791
C22   C     C_R   0.873906 0.593232 0.552132 -0.180663
C23   C     C_R   0.099497 0.313577 0.509763 0.372941
C24   C     C_R   0.901102 0.685701 0.598376 0.370125
C25   C     C_R   0.128324 0.598952 0.520839 -0.083822
C26   C     C_R   0.871255 0.408711 0.461485 -0.084712
C27   C     C_R   0.354809 0.501681 0.502730 -0.201534
C28   C     C_R   0.644982 0.500747 0.496503 -0.196353
C29   C     C_R   0.973254 0.407470 0.484432 0.040744
C30   C     C_R   0.026672 0.598148 0.536335 0.040919
C31   C     C_R   0.976152 0.596931 0.551102 -0.088523
C32   C     C_R   0.024032 0.406310 0.504139 -0.089817
C33   C     C_R   0.949194 0.501951 0.515394 0.011058
C34   C     C_R   0.050841 0.502599 0.520294 0.010492
C35   C     C_R   0.946206 0.318555 0.429209 -0.257377
C36   C     C_R   0.053279 0.691320 0.531662 -0.260921
C37   C     C_R   0.895824 0.317474 0.418888 0.489356
C38   C     C_R   0.103538 0.693319 0.526346 0.491213
O11   O     O_2   0.793718 0.324616 0.408527 -0.493324
O12   O     O_2   0.204959 0.685091 0.508909 -0.491618
C39   C     C_R   0.048945 0.312937 0.509469 0.295931
C40   C     C_R   0.951699 0.686340 0.601945 0.294699
H1    H     H_    0.651565 0.390888 0.616280 0.182503
H2    H     H_    0.354515 0.617922 0.657336 0.172067
H3    H     H_    0.739977 0.391172 0.617920 0.172379
H4    H     H_    0.266665 0.614146 0.667390 0.177531
H5    H     H_    0.963865 0.250522 0.387126 0.202546
H6    H     H_    0.035257 0.763022 0.525176 0.201883
C41   C     C_R   0.500828 0.814031 0.534158 -0.054548
C42   C     C_R   0.495232 0.186197 0.468103 -0.044596
C43   C     C_R   0.469991 0.017100 0.359101 -0.214580
C44   C     C_R   0.524027 0.983490 0.645115 -0.209736
C45   C     C_R   0.474860 0.125162 0.366937 -0.206592
C46   C     C_R   0.521124 0.875179 0.635343 -0.196388
C47   C     C_R   0.511223 0.139008 0.560975 -0.245838
C48   C     C_R   0.482102 0.861571 0.444122 -0.296712
C49   C     C_R   0.507121 0.031033 0.553256 0.170088
C50   C     C_R   0.486068 0.969619 0.451802 0.183031
H7    H     H_    0.465181 0.814391 0.367365 0.138938
H8    H     H_    0.527253 0.186161 0.638920 0.157985
H9    H     H_    0.535583 0.839208 0.705904 0.154029
H10   H     H_    0.462012 0.161086 0.294832 0.151206
H11   H     H_    0.453968 0.970791 0.280757 0.136939
H12   H     H_    0.540171 0.029781 0.723333 0.140740
N3    N     N_R   0.508960 0.519350 0.790140 -0.213115
N4    N     N_R   0.491040 0.480650 0.209860 -0.227143
C51   C     C_R   0.454363 0.400104 0.027030 -0.323564
C52   C     C_R   0.553614 0.576704 0.969653 -0.300846
C53   C     C_R   0.458777 0.410191 0.147613 0.002578
C54   C     C_R   0.547250 0.573172 0.850283 -0.031243
C55   C     C_R   0.521725 0.540065 0.153883 0.620818
C56   C     C_R   0.476505 0.464421 0.846273 0.611863
C57   C     C_R   0.519404 0.528553 0.031032 -0.063608
C58   C     C_R   0.482703 0.464453 0.967781 -0.091605
H13   H     H_    0.573690 0.612090 0.805325 0.153324
H14   H     H_    0.436275 0.361230 0.191630 0.175257
H15   H     H_    0.428855 0.341531 0.981032 0.185537
H16   H     H_    0.586264 0.613884 0.012305 0.199776
O13   O     O_3   0.346509 0.375290 0.325177 -0.565963
C59   C     C_3   0.353588 0.276541 0.357830 -0.269442
H17   H     H_    0.318832 0.238693 0.375951 0.193305
H18   H     H_    0.379476 0.282541 0.433792 0.133188
H19   H     H_    0.369337 0.224961 0.285157 0.171412
O14   O     O_3   0.646056 0.632810 0.371733 -0.531421
C60   C     C_3   0.644236 0.729800 0.446043 -0.238646
H20   H     H_    0.680797 0.760590 0.480463 0.182014
H21   H     H_    0.620256 0.723434 0.518279 0.122629
H22   H     H_    0.629078 0.788219 0.396650 0.179812
O15   O     O_3   0.440324 0.402100 0.782244 -0.563233
C61   C     C_3   0.394804 0.445263 0.806587 0.045796
H23   H     H_    0.392279 0.522271 0.777902 0.156095
H24   H     H_    0.387488 0.459016 0.899730 0.122820
C62   C     C_3   0.355255 0.370075 0.745039 -0.732315
H25   H     H_    0.354995 0.296230 0.781689 0.236595
H26   H     H_    0.319571 0.405912 0.756518 0.210241
H27   H     H_    0.361577 0.351290 0.651495 0.246268
O16   O     O_3   0.556886 0.606872 0.216821 -0.540404
C63   C     C_3   0.543339 0.713069 0.226813 0.134996
H28   H     H_    0.547397 0.747386 0.319079 0.189728
H29   H     H_    0.505306 0.723691 0.197211 0.093179
C64   C     C_3   0.577750 0.779531 0.167889 -0.880711
H30   H     H_    0.565319 0.779413 0.076939 0.228736
H31   H     H_    0.578222 0.862270 0.212081 0.218180
H32   H     H_    0.615028 0.751025 0.172075 0.285426
O17   O     O_3   0.247209 0.384429 0.327413 -0.554079
C65   C     C_3   0.237253 0.446403 0.241732 -0.290557
H33   H     H_    0.270996 0.471475 0.204293 0.178745
H34   H     H_    0.216389 0.515857 0.275938 0.162946
H35   H     H_    0.214798 0.398695 0.170806 0.183002
O18   O     O_3   0.745594 0.621386 0.361830 -0.559793
C66   C     C_3   0.748617 0.564508 0.249631 -0.274937
H36   H     H_    0.712183 0.546215 0.206428 0.185350
H37   H     H_    0.768547 0.491279 0.250758 0.168194
H38   H     H_    0.768969 0.613396 0.197450 0.185887
O19   O     O_3   0.122289 0.220100 0.510861 -0.528844
C67   C     C_3   0.123207 0.166632 0.396202 0.116834
H39   H     H_    0.143241 0.214245 0.341374 0.154131
H40   H     H_    0.086003 0.147637 0.357625 0.150029
C68   C     C_3   0.148721 0.064313 0.396109 -0.696265
H41   H     H_    0.128832 0.014078 0.447886 0.254567
H42   H     H_    0.150136 0.022020 0.306270 0.190760
H43   H     H_    0.186131 0.080340 0.433642 0.264950
O20   O     O_3   0.878744 0.774194 0.649950 -0.525597
C69   C     C_3   0.875582 0.845538 0.571159 0.140465
H44   H     H_    0.855862 0.809054 0.489141 0.148636
H45   H     H_    0.912072 0.873943 0.551511 0.149319
C70   C     C_3   0.847939 0.939431 0.624699 -0.746027
H46   H     H_    0.867945 0.980693 0.703749 0.241873
H47   H     H_    0.843485 0.994402 0.562236 0.173002
H48   H     H_    0.811652 0.913372 0.647633 0.274691
O21   O     O_3   0.870898 0.229884 0.358421 -0.530802
C71   C     C_3   0.874773 0.146042 0.420992 -0.263536
H49   H     H_    0.866607 0.169876 0.513424 0.147894
H50   H     H_    0.911020 0.112140 0.413727 0.150856
H51   H     H_    0.847963 0.083376 0.382907 0.195775
O22   O     O_3   0.128045 0.786380 0.517651 -0.538394
C72   C     C_3   0.124486 0.858362 0.620681 -0.272618
H52   H     H_    0.131555 0.821832 0.699098 0.148189
H53   H     H_    0.088725 0.894730 0.623262 0.153619
H54   H     H_    0.152221 0.922149 0.622557 0.202176
O23   O     O_3   0.024714 0.219704 0.517948 -0.589023
C73   C     C_3   0.017146 0.216787 0.635450 0.095113
H55   H     H_    0.992752 0.279615 0.670977 0.136014
H56   H     H_    0.051950 0.225885 0.687667 0.161157
C74   C     C_3   0.993634 0.111409 0.646518 -0.775754
H57   H     H_    0.017154 0.046998 0.611584 0.258605
H58   H     H_    0.988041 0.107719 0.738801 0.198819
H59   H     H_    0.958125 0.100790 0.598168 0.232241
O24   O     O_3   0.976498 0.774610 0.660792 -0.592191
C75   C     C_3   0.986985 0.759538 0.775414 0.108107
H60   H     H_    0.012015 0.694125 0.777530 0.134631
H61   H     H_    0.953405 0.742665 0.818927 0.165322
C76   C     C_3   0.011238 0.859016 0.842869 -0.798021
H62   H     H_    0.987050 0.925772 0.842256 0.256147
H63   H     H_    0.019254 0.848600 0.933614 0.201606
H64   H     H_    0.045522 0.876821 0.803545 0.233092

loop_
_geom_bond_atom_site_label_1
_geom_bond_atom_site_label_2
_geom_bond_distance
_ccdc_geom_bond_type
C44   C46   1.387948 A    
C57   C58   1.401425 A    
Cu1   N3    2.026836 S    
O13   C59   1.410074 S    
C13   C15   1.404209 A    
O24   C75   1.411471 S    
C23   C39   1.402962 A    
N1    C17   1.440093 S    
C20   C33   1.416986 A    
C35   C37   1.398176 A    
C61   H24   1.108453 S    
O21   C71   1.410669 S    
C75   H61   1.114922 S    
C76   H63   1.110394 S    
C65   H33   1.113493 S    
C46   H9    1.083334 S    
C39   O23   1.384249 S    
C15   O17   1.381929 S    
C40   O24   1.383548 S    
C19   C25   1.415752 A    
C66   H36   1.113412 S    
C20   C26   1.415991 A    
C75   H60   1.113966 S    
N1    C7    1.367646 A    
C10   C12   1.391602 A    
O19   C67   1.412834 S    
C70   H47   1.108045 S    
N3    C54   1.358999 A    
C56   C58   1.430764 A    
C37   O21   1.385435 S    
C30   C36   1.405682 A    
C52   C57   1.407181 A    
C52   H16   1.077695 S    
C72   H54   1.109177 S    
C14   C28   1.409408 A    
O4    Cu1   1.957499 S    
C47   C49   1.387089 A    
C61   H23   1.106320 S    
C4    C28   1.464073 S    
C5    N1    1.367570 A    
O16   C63   1.423974 S    
C31   C40   1.419248 A    
C43   C45   1.389279 A    
C32   C39   1.419228 A    
C66   H38   1.109177 S    
C36   C38   1.398906 A    
C62   H25   1.110513 S    
C74   H58   1.110422 S    
Cu2   N4    2.026838 S    
C76   H64   1.109792 S    
C65   H35   1.109181 S    
C6    N2    1.366455 A    
C12   H1    1.083556 S    
C31   C33   1.413982 A    
C25   C38   1.413642 A    
C72   H52   1.114882 S    
Cu1   Cu2   2.697569 S    
C72   H53   1.110780 S    
C62   H26   1.110449 S    
O2    C2    1.301248 A    
N4    C53   1.359492 A    
C56   O15   1.384251 S    
C75   C76   1.520444 S    
C5    C21   1.409534 A    
C63   H28   1.102577 S    
C51   C53   1.401384 A    
C65   H34   1.113103 S    
O5    C3    1.305549 A    
C8    O11   1.349209 S    
C71   H50   1.110769 S    
C55   C57   1.425457 A    
C9    H4    1.082820 S    
C44   H12   1.083870 S    
C32   C34   1.414269 A    
C43   H11   1.083856 S    
C42   C45   1.403003 A    
C63   C64   1.527643 S    
C35   H5    1.079577 S    
O4    C2    1.293618 A    
C70   H48   1.110721 S    
C11   C27   1.400719 A    
C76   H62   1.110825 S    
C29   C35   1.405194 A    
C59   H19   1.109170 S    
C64   H31   1.111415 S    
C69   C70   1.520037 S    
C1    C42   1.450503 S    
C9    C17   1.400929 A    
C2    C41   1.451492 S    
C67   H40   1.114175 S    
O7    Cu2   1.941301 S    
C10   C18   1.399761 A    
C44   C49   1.397869 A    
N4    C55   1.386861 A    
C68   H43   1.111086 S    
C71   H51   1.109169 S    
C13   C27   1.412073 A    
C74   H57   1.110965 S    
C7    C25   1.409904 A    
C41   C48   1.397141 A    
O6    C4    1.302417 A    
C64   H32   1.110735 S    
C8    C26   1.409385 A    
C48   H7    1.084037 S    
C74   H59   1.110024 S    
C47   H8    1.084921 S    
C42   C47   1.397378 A    
C61   C62   1.521909 S    
C59   H18   1.112953 S    
O7    C3    1.296589 A    
O3    Cu2   1.957499 S    
O8    C4    1.297758 A    
C63   H29   1.116873 S    
C6    O10   1.349150 S    
C60   H21   1.112721 S    
C16   O18   1.381537 S    
C52   C54   1.399416 A    
C68   H41   1.110842 S    
C36   H6    1.079443 S    
C62   H27   1.109222 S    
O1    C1    1.298375 A    
C13   O13   1.382905 S    
C67   C68   1.520464 S    
O1    Cu1   1.958639 S    
C54   H13   1.081352 S    
C22   C24   1.413721 A    
C26   C37   1.412763 A    
O23   C73   1.411829 S    
C30   C31   1.420391 A    
C12   C28   1.401141 A    
C66   H37   1.113443 S    
C71   H49   1.114721 S    
N2    C18   1.436706 S    
C14   O14   1.381964 S    
C5    O9    1.349325 S    
C53   H14   1.081748 S    
C41   C46   1.403032 A    
C73   H55   1.114006 S    
O6    Cu2   1.953063 S    
C21   C23   1.413887 A    
C73   C74   1.522003 S    
N2    C8    1.365770 A    
O3    C1    1.296032 A    
O8    Cu1   1.941301 S    
O17   C65   1.409166 S    
C69   H45   1.113625 S    
C43   C50   1.398575 A    
O20   C69   1.412042 S    
C60   H20   1.114103 S    
C14   C16   1.405978 A    
C67   H39   1.115205 S    
C49   C50   1.414234 A    
C15   C17   1.409990 A    
C30   C34   1.414333 A    
C70   H46   1.110787 S    
C6    C22   1.410186 A    
C16   C18   1.407574 A    
C7    O12   1.349154 S    
C10   H3    1.082899 S    
C73   H56   1.114916 S    
C19   C21   1.413218 A    
C24   O20   1.383432 S    
C23   O19   1.383837 S    
C3    C27   1.468193 S    
C20   C22   1.413435 A    
C9    C11   1.391387 A    
C59   H17   1.113454 S    
O2    Cu2   1.958638 S    
C29   C32   1.419633 A    
C51   C58   1.412142 A    
C69   H44   1.115080 S    
C51   H15   1.082125 S    
C55   O16   1.388657 S    
O5    Cu1   1.953069 S    
C60   H22   1.107544 S    
C24   C40   1.403162 A    
C38   O22   1.386488 S    
O14   C60   1.411812 S    
C11   H2    1.081871 S    
O15   C61   1.418341 S    
C68   H42   1.110341 S    
C19   C34   1.416922 A    
O22   C72   1.411783 S    
C48   C50   1.387886 A    
C45   H10   1.083283 S    
C29   C33   1.414020 A    
N3    C56   1.384828 A    
C64   H30   1.108706 S    
O18   C66   1.408985 S    
