data_mof_unit_4541.cif
_audit_creation_date              2012-10-26T20:31:59-0400
_audit_creation_method            fapswitch 2.2
_symmetry_space_group_name_H-M    P1
_symmetry_Int_Tables_number       1
_space_group_crystal_system       triclinic
_cell_length_a                    10.628453
_cell_length_b                    10.78261
_cell_length_c                    9.591115
_cell_angle_alpha                 90.564935
_cell_angle_beta                  90.572985
_cell_angle_gamma                 91.624492
_cell_volume                      1098.61212732

loop_
_atom_site_label
_atom_site_type_symbol
_atom_type_description
_atom_site_fract_x
_atom_site_fract_y
_atom_site_fract_z
_atom_type_partial_charge
C1    C     C_R   0.502555 0.262532 0.499912 0.546421
C2    C     C_R   0.475698 0.936481 0.620796 0.015779
C3    C     C_3   0.353424 0.926685 0.695931 -0.270998
C4    C     C_R   0.259821 0.505567 0.499897 0.543257
C5    C     C_3   0.352641 0.067251 0.694784 -0.273453
C6    C     C_R   0.586051 0.571056 0.075277 0.148866
C7    C     C_R   0.423524 0.419751 0.069496 0.073341
C8    C     C_R   0.423585 0.421716 0.921615 -0.015620
C9    C     C_R   0.586681 0.570330 0.928339 0.153151
C10   C     C_3   0.605504 0.707630 0.923461 -0.274750
C11   C     C_3   0.603075 0.708654 0.081536 -0.284408
C12   C     C_3   0.958759 0.624894 0.508720 -0.126445
C13   C     C_R   0.503258 0.737528 0.500733 0.540145
C14   C     C_R   0.740438 0.501774 0.500595 0.545704
C15   C     C_3   0.038971 0.392449 0.495740 0.011658
C16   C     C_3   0.956110 0.451649 0.382775 -0.082297
C17   C     C_3   0.877081 0.505244 0.501483 0.027133
C18   C     C_3   0.958328 0.444942 0.613592 -0.113254
C19   C     C_3   0.043444 0.563755 0.619493 -0.146650
C20   C     C_R   0.341001 0.322366 0.129396 0.075266
C21   C     C_R   0.209853 0.335455 0.124841 -0.101989
C22   C     C_R   0.128765 0.233294 0.146787 -0.129930
C23   C     C_3   0.039897 0.571119 0.391417 0.020702
C24   C     C_R   0.177697 0.116851 0.173295 -0.124040
C25   C     C_R   0.307721 0.101816 0.173389 -0.128889
C26   C     C_R   0.388591 0.203288 0.147228 -0.077824
C27   C     C_3   0.087201 0.260840 0.502034 -0.275674
C28   C     C_3   0.981785 0.164180 0.475935 -0.444027
C29   C     C_3   0.087220 0.651722 0.271385 -0.269054
C30   C     C_3   0.979136 0.690131 0.176948 -0.453808
C31   C     C_3   0.122924 0.510117 0.501184 0.038861
C32   C     C_R   0.474949 0.063959 0.619919 0.024368
C33   C     C_R   0.514440 0.129582 0.502776 0.013599
C34   C     C_R   0.574293 0.065797 0.395054 -0.169029
C35   C     C_R   0.573855 0.936243 0.395079 -0.173770
C36   C     C_R   0.515560 0.871013 0.504153 0.006957
Cu1   Cu    Cu3+1 0.499990 0.499980 0.640670 0.923152
Cu2   Cu    Cu3+1 0.500010 0.500020 0.359330 0.928005
H1    H     H_    0.918195 0.405907 0.286444 0.104176
H2    H     H_    0.921953 0.392549 0.704516 0.115752
H3    H     H_    0.081508 0.609670 0.715713 0.113736
H4    H     H_    0.922244 0.720287 0.513955 0.100359
H5    H     H_    0.617735 0.115280 0.309723 0.116082
H6    H     H_    0.615632 0.887693 0.308814 0.116288
H7    H     H_    0.276865 0.882085 0.631428 0.128833
H8    H     H_    0.170248 0.422504 0.095195 0.091939
H9    H     H_    0.027961 0.244043 0.141122 0.100303
H10   H     H_    0.114845 0.037913 0.190823 0.107129
H11   H     H_    0.345647 0.010830 0.189061 0.112082
H12   H     H_    0.363773 0.888706 0.802500 0.127866
H13   H     H_    0.488224 0.188677 0.135812 0.101088
H14   H     H_    0.907869 0.172484 0.556293 0.153663
H15   H     H_    0.938652 0.176397 0.371304 0.145230
H16   H     H_    0.020654 0.069808 0.481147 0.132700
H17   H     H_    0.163428 0.249389 0.425582 0.172705
H18   H     H_    0.127349 0.247344 0.607778 0.133788
H19   H     H_    0.930108 0.606986 0.130564 0.151604
H20   H     H_    0.910830 0.744744 0.237183 0.146466
H21   H     H_    0.016603 0.748550 0.091295 0.129390
H22   H     H_    0.135735 0.736196 0.315366 0.137065
H23   H     H_    0.276160 0.103360 0.628729 0.125224
H24   H     H_    0.156469 0.601183 0.209104 0.159777
H25   H     H_    0.362664 0.110144 0.800362 0.137159
H26   H     H_    0.361287 0.359434 0.862163 0.119871
H27   H     H_    0.698829 0.735219 0.880535 0.123629
H28   H     H_    0.524255 0.754739 0.876341 0.152176
H29   H     H_    0.694652 0.738034 0.129829 0.114583
H30   H     H_    0.519428 0.755387 0.123605 0.146099
N1    N     N_R   0.500800 0.500930 0.147930 -0.236866
N2    N     N_R   0.500800 0.500890 0.852020 -0.241835
O1    O     O_R   0.500000 0.319640 0.618810 -0.503621
O2    O     O_R   0.500010 0.319680 0.381230 -0.501305
O3    O     O_R   0.316850 0.499950 0.618770 -0.510356
O4    O     O_R   0.316860 0.499990 0.381190 -0.502489
O5    O     O_R   0.499990 0.680320 0.618770 -0.502698
O6    O     O_R   0.500000 0.680360 0.381190 -0.512506
O7    O     O_R   0.683140 0.500010 0.618810 -0.500046
O8    O     O_R   0.683150 0.500050 0.381230 -0.505493

loop_
_geom_bond_atom_site_label_1
_geom_bond_atom_site_label_2
_ccdc_geom_bond_type
C15   C18   S    
C6    N1    A    
C35   C36   A    
C19   C31   S    
C6    C9    A    
C1    C33   S    
C7    C8    A    
Cu2   O6    S    
C12   C23   S    
Cu1   Cu2   S    
C23   C29   S    
C18   C19   S    
C27   H17   S    
C15   C16   S    
C30   H19   S    
C5    H25   S    
C2    C32   A    
C34   C35   A    
C14   O7    A    
C18   H2    S    
C12   H4    S    
C13   O5    A    
C16   C17   S    
C12   C17   S    
C13   O6    A    
C9    C10   S    
C4    O4    A    
C5    C32   S    
C22   H9    S    
Cu1   O5    S    
Cu2   N1    S    
C21   C22   A    
C14   C17   S    
C3    H12   S    
C11   H29   S    
C33   C34   A    
C10   H28   S    
Cu2   O2    S    
C1    O2    A    
C24   H10   S    
C9    N2    A    
C13   C36   S    
C6    C11   S    
C28   H16   S    
C27   H18   S    
Cu2   O8    S    
C25   C26   A    
Cu1   O7    S    
C3    H7    S    
C23   C31   S    
C29   C30   S    
C15   C27   S    
C29   H22   S    
C30   H21   S    
C17   C18   S    
C5    H23   S    
C1    O1    A    
C24   C25   A    
C35   H6    S    
C4    O3    A    
C8    H26   S    
C16   C23   S    
Cu1   O1    S    
C22   C24   A    
C11   H30   S    
C21   H8    S    
Cu2   O4    S    
C10   H27   S    
C2    C36   A    
Cu1   O3    S    
C29   H24   S    
C34   H5    S    
C3    C5    S    
C7    N1    A    
C28   H15   S    
C15   C31   S    
C8    N2    A    
C32   C33   A    
C2    C3    S    
C26   H13   S    
C28   H14   S    
C20   C26   A    
C30   H20   S    
C12   C19   S    
C14   O8    A    
C25   H11   S    
C4    C31   S    
C10   C11   S    
C16   H1    S    
C20   C21   A    
C7    C20   S    
C27   C28   S    
Cu1   N2    S    
C19   H3    S    
