data_mof_unit_2316.cif
_audit_creation_date              2012-10-26T21:20:13-0400
_audit_creation_method            fapswitch 2.2
_symmetry_space_group_name_H-M    P1
_symmetry_Int_Tables_number       1
_space_group_crystal_system       triclinic
_cell_length_a                    13.025359
_cell_length_b                    10.781655
_cell_length_c                    9.525448
_cell_angle_alpha                 90.069662
_cell_angle_beta                  95.620273
_cell_angle_gamma                 90.058692
_cell_volume                      1331.27312659

loop_
_atom_site_label
_atom_site_type_symbol
_atom_type_description
_atom_site_fract_x
_atom_site_fract_y
_atom_site_fract_z
_atom_type_partial_charge
C1    C     C_R   0.497109 0.262410 0.499530 0.516328
C2    C     C_R   0.698971 0.501923 0.525605 0.523038
C3    C     C_R   0.810955 0.496947 0.538882 -0.019047
C4    C     C_R   0.189046 0.503052 0.461118 -0.019043
C5    C     C_R   0.036808 0.610954 0.363808 -0.096654
C6    C     C_R   0.963192 0.389044 0.636191 -0.096666
C7    C     C_R   0.141354 0.588714 0.366837 -0.135645
C8    C     C_R   0.858647 0.411289 0.633166 -0.135679
C9    C     C_R   0.131534 0.434851 0.552530 0.010917
C10   C     C_R   0.868467 0.565141 0.447463 0.010887
C11   C     C_R   0.024019 0.455538 0.548041 0.042850
C12   C     C_R   0.502879 0.737590 0.500468 0.516351
C13   C     C_R   0.975982 0.544455 0.451958 0.042834
C14   C     C_R   0.425682 0.061182 0.405658 -0.003491
C15   C     C_R   0.574259 0.938817 0.594378 -0.003475
C16   C     C_R   0.432197 0.932240 0.406551 -0.091688
C17   C     C_R   0.567759 0.067757 0.593469 -0.091733
C18   C     C_2   0.814483 0.658077 0.351019 0.229003
C19   C     C_2   0.185521 0.341899 0.648948 0.229029
C20   C     C_2   0.342908 0.123031 0.312246 0.232030
C21   C     C_2   0.656978 0.876966 0.687870 0.232149
C22   C     C_R   0.504598 0.871503 0.500470 -0.037693
C23   C     C_R   0.495374 0.128496 0.499531 -0.037690
C24   C     C_R   0.436794 0.421877 0.065778 0.041011
C25   C     C_R   0.563206 0.578123 0.934222 0.041043
C26   C     C_R   0.436932 0.421810 0.917033 0.048003
C27   C     C_R   0.563067 0.578191 0.082967 0.048030
C28   C     C_R   0.301030 0.498078 0.474394 0.523032
Cu1   Cu    Cu3+1 0.500000 0.500020 0.640660 0.967701
Cu2   Cu    Cu3+1 0.500000 0.499980 0.359340 0.967644
H1    H     H_    0.813668 0.356637 0.700505 0.149220
H2    H     H_    0.613271 0.641179 0.145816 0.156677
H3    H     H_    0.758974 0.720819 0.390926 0.100365
H4    H     H_    0.241038 0.279181 0.609030 0.100448
H5    H     H_    0.325785 0.220488 0.325394 0.114503
H6    H     H_    0.674334 0.779610 0.674441 0.114355
H7    H     H_    0.186332 0.643372 0.299502 0.149248
H8    H     H_    0.005620 0.682799 0.293331 0.187892
H9    H     H_    0.994376 0.317198 0.706666 0.187899
H10   H     H_    0.378484 0.878050 0.337029 0.175122
H11   H     H_    0.621475 0.121939 0.662997 0.175061
H12   H     H_    0.386168 0.359238 0.114852 0.134860
H13   H     H_    0.613830 0.640764 0.885147 0.135010
H14   H     H_    0.386727 0.358824 0.854183 0.156655
N1    N     N_R   0.500030 0.500030 0.852080 -0.239657
N2    N     N_R   0.499970 0.499970 0.147920 -0.239644
O1    O     O_R   0.499990 0.319660 0.618740 -0.507622
O2    O     O_2   0.173856 0.340266 0.774551 -0.507859
O3    O     O_2   0.291589 0.065190 0.219914 -0.490120
O4    O     O_2   0.707939 0.934681 0.780637 -0.490108
O5    O     O_R   0.500010 0.680340 0.381260 -0.507653
O6    O     O_R   0.499990 0.319630 0.381170 -0.503668
O7    O     O_R   0.500010 0.680370 0.618830 -0.503575
O8    O     O_R   0.349000 0.499990 0.599490 -0.486153
O9    O     O_R   0.651000 0.500010 0.400510 -0.486134
O10   O     O_R   0.348990 0.499960 0.361920 -0.510357
O11   O     O_R   0.651010 0.500040 0.638080 -0.510346
O12   O     O_2   0.826137 0.659664 0.225406 -0.507799

loop_
_geom_bond_atom_site_label_1
_geom_bond_atom_site_label_2
_ccdc_geom_bond_type
C14   C23   A    
C6    C8    A    
Cu2   O5    S    
C4    C9    A    
C15   C17   A    
Cu1   Cu2   S    
C25   N1    A    
C25   C27   A    
C11   C13   A    
Cu2   O9    S    
C5    C13   A    
C12   O7    A    
C24   N2    A    
C25   H13   S    
C2    C3    S    
C7    H7    S    
C2    O11   A    
C26   H14   S    
C10   C13   A    
C8    H1    S    
C21   H6    S    
C17   C23   A    
C5    H8    S    
C9    C11   A    
C20   O3    D    
Cu1   O7    S    
C16   H10   S    
C4    C7    A    
C27   N2    A    
C21   O4    D    
C4    C28   S    
Cu1   O1    S    
C1    C23   S    
C17   H11   S    
C2    O9    A    
C28   O10   A    
C10   C18   S    
C18   H3    S    
C14   C16   A    
Cu1   O8    S    
C12   C22   S    
C15   C21   S    
C12   O5    A    
C24   H12   S    
C14   C20   S    
C5    C7    A    
C3    C8    A    
Cu1   N1    S    
C6    C11   A    
C3    C10   A    
C28   O8    A    
C6    H9    S    
C1    O1    A    
C20   H5    S    
C16   C22   A    
C26   N1    A    
C27   H2    S    
C19   O2    D    
C1    O6    A    
Cu2   O10   S    
Cu2   N2    S    
C15   C22   A    
C18   O12   D    
C24   C26   A    
C9    C19   S    
Cu1   O11   S    
Cu2   O6    S    
C19   H4    S    
