data_mof_unit_1643.cif
_audit_creation_date              2012-12-11T14:24:57-0500
_audit_creation_method            fapswitch 2.2
_symmetry_space_group_name_H-M    P1
_symmetry_Int_Tables_number       1
_space_group_crystal_system       triclinic
_cell_length_a                    19.070516
_cell_length_b                    11.00675
_cell_length_c                    18.58799
_cell_angle_alpha                 90.144994
_cell_angle_beta                  90.490066
_cell_angle_gamma                 89.910907
_cell_volume                      3901.54112523

loop_
_atom_site_label
_atom_site_type_symbol
_atom_type_description
_atom_site_fract_x
_atom_site_fract_y
_atom_site_fract_z
_atom_type_partial_charge
C1    C     C_R   0.714850 0.334819 0.138505 0.546824
C2    C     C_R   0.228564 0.855348 0.061823 -0.014783
C3    C     C_R   0.640708 0.534509 0.452992 -0.112303
C4    C     C_R   0.930659 0.050888 0.500762 -0.162252
C5    C     C_R   0.096801 0.102847 0.496756 -0.162867
C6    C     C_R   0.430659 0.550888 0.500762 -0.162252
C7    C     C_R   0.596801 0.602847 0.496756 -0.162867
C8    C     C_R   0.939378 0.007505 0.431240 -0.110813
C9    C     C_R   0.080489 0.064475 0.565829 -0.112648
C10   C     C_R   0.439378 0.507505 0.431240 -0.110813
C11   C     C_R   0.580489 0.564475 0.565829 -0.112648
C12   C     C_R   0.889896 0.928808 0.402778 -0.064103
C13   C     C_R   0.271614 0.355144 0.938140 -0.014842
C14   C     C_R   0.110879 0.960033 0.592312 -0.080362
C15   C     C_R   0.389896 0.428808 0.402778 -0.064103
C16   C     C_R   0.610879 0.460033 0.592312 -0.080362
C17   C     C_R   0.765552 0.879612 0.410323 -0.018388
C18   C     C_R   0.228792 0.875648 0.591506 -0.015897
C19   C     C_R   0.265552 0.379612 0.410323 -0.018388
C20   C     C_R   0.728792 0.375648 0.591506 -0.015896
C21   C     C_R   0.712500 0.335395 0.362963 0.542786
C22   C     C_R   0.286112 0.339329 0.636906 0.545240
C23   C     C_R   0.212500 0.835395 0.362963 0.542786
C24   C     C_R   0.728563 0.355348 0.061823 -0.014783
C25   C     C_R   0.786112 0.839329 0.636906 0.545240
C26   C     C_R   0.563225 0.152426 0.361339 0.537022
C27   C     C_R   0.439520 0.153840 0.638504 0.530884
C28   C     C_R   0.063225 0.652426 0.361339 0.537022
C29   C     C_R   0.939520 0.653840 0.638504 0.530884
C30   C     C_R   0.745502 0.960134 0.350489 0.518525
C31   C     C_R   0.253385 0.957836 0.650622 0.515687
C32   C     C_R   0.245502 0.460134 0.350489 0.518525
C33   C     C_R   0.753385 0.457836 0.650622 0.515687
C34   C     C_3   0.528508 0.261118 0.970739 -0.134598
C35   C     C_R   0.713004 0.807988 0.977370 -0.017722
C36   C     C_3   0.471581 0.260926 0.029616 -0.134489
C37   C     C_3   0.028508 0.761118 0.970739 -0.134598
C38   C     C_3   0.971581 0.760926 0.029616 -0.134488
C39   C     C_3   0.569382 0.160926 0.011647 -0.111092
C40   C     C_3   0.430925 0.160852 0.988281 -0.110864
C41   C     C_3   0.069382 0.660926 0.011647 -0.111092
C42   C     C_3   0.930925 0.660852 0.988281 -0.110863
C43   C     C_3   0.511656 0.160818 0.069106 0.052292
C44   C     C_3   0.488634 0.161136 0.930801 0.052329
C45   C     C_3   0.011656 0.660818 0.069106 0.052292
C46   C     C_R   0.287144 0.807927 0.022435 -0.018253
C47   C     C_3   0.988634 0.661136 0.930801 0.052328
C48   C     C_3   0.749585 0.665251 0.178629 0.016495
C49   C     C_3   0.762446 0.648009 0.259009 -0.247411
C50   C     C_3   0.830305 0.578524 0.274122 -0.444757
C51   C     C_3   0.249939 0.664639 0.821579 0.016211
C52   C     C_3   0.236085 0.647788 0.741304 -0.244972
C53   C     C_3   0.168526 0.577329 0.726837 -0.446724
C54   C     C_3   0.249585 0.165251 0.178629 0.016495
C55   C     C_3   0.262446 0.148009 0.259009 -0.247411
C56   C     C_3   0.330305 0.078525 0.274123 -0.444758
C57   C     C_R   0.213004 0.307988 0.977370 -0.017722
C58   C     C_3   0.749940 0.164641 0.821578 0.016209
C59   C     C_3   0.736088 0.147787 0.741303 -0.244972
C60   C     C_3   0.668531 0.077323 0.726835 -0.446723
C61   C     C_R   0.787144 0.307928 0.022435 -0.018253
C62   C     C_R   0.715204 0.816299 0.053338 0.010255
C63   C     C_R   0.285028 0.816656 0.946500 0.010402
C64   C     C_R   0.215204 0.316299 0.053338 0.010255
C65   C     C_R   0.285245 0.334824 0.861391 0.546674
C66   C     C_R   0.785028 0.316656 0.946501 0.010403
C67   C     C_R   0.820152 0.937670 0.047671 -0.174506
C68   C     C_R   0.180095 0.938563 0.952534 -0.174695
C69   C     C_R   0.320152 0.437669 0.047671 -0.174506
C70   C     C_R   0.680095 0.438562 0.952534 -0.174694
C71   C     C_R   0.826401 0.911578 0.975985 -0.165608
C72   C     C_R   0.173832 0.912334 0.024141 -0.165566
C73   C     C_R   0.326401 0.411578 0.975985 -0.165608
C74   C     C_R   0.673832 0.412334 0.024141 -0.165566
C75   C     C_R   0.651991 0.755527 0.946223 -0.120129
C76   C     C_R   0.214850 0.834819 0.138505 0.546824
C77   C     C_R   0.347951 0.754426 0.053401 -0.120446
C78   C     C_R   0.151992 0.255528 0.946223 -0.120128
C79   C     C_R   0.847951 0.254426 0.053402 -0.120445
C80   C     C_R   0.100758 0.202584 0.989299 -0.201155
C81   C     C_R   0.899062 0.200949 0.010116 -0.201003
C82   C     C_R   0.600758 0.702584 0.989299 -0.201155
C83   C     C_R   0.399062 0.700949 0.010116 -0.201003
C84   C     C_R   0.611401 0.691576 0.063151 -0.078542
C85   C     C_R   0.388411 0.690365 0.936207 -0.078767
C86   C     C_R   0.111401 0.191576 0.063151 -0.078543
C87   C     C_R   0.785244 0.834824 0.861391 0.546674
C88   C     C_R   0.888412 0.190366 0.936207 -0.078768
C89   C     C_R   0.670838 0.742043 0.095366 0.301472
C90   C     C_R   0.329136 0.741831 0.904214 0.301413
C91   C     C_R   0.170838 0.242043 0.095366 0.301472
C92   C     C_R   0.829136 0.241832 0.904214 0.301413
C93   C     C_R   0.532043 0.155247 0.144723 0.537894
C94   C     C_R   0.468082 0.155351 0.855213 0.536135
C95   C     C_R   0.032043 0.655247 0.144723 0.537894
C96   C     C_R   0.968082 0.655351 0.855213 0.536134
C97   C     C_R   0.761276 0.900154 0.085080 -0.008205
C98   C     C_3   0.471658 0.060692 0.028878 -0.107489
C99   C     C_R   0.238950 0.900770 0.914985 -0.007503
C100  C     C_R   0.261276 0.400154 0.085080 -0.008205
C101  C     C_R   0.738950 0.400770 0.914985 -0.007503
C102  C     C_R   0.465580 0.160141 0.564957 -0.008766
C103  C     C_R   0.541443 0.153919 0.437016 -0.010845
C104  C     C_R   0.965580 0.660141 0.564957 -0.008766
C105  C     C_R   0.041443 0.653919 0.437016 -0.010845
C106  C     C_R   0.468635 0.053726 0.523765 0.029499
C107  C     C_R   0.518431 0.045020 0.469705 0.043244
C108  C     C_R   0.968635 0.553726 0.523765 0.029499
C109  C     C_3   0.528873 0.060885 0.970591 -0.107543
C110  C     C_R   0.018431 0.545020 0.469705 0.043244
C111  C     C_R   0.529809 0.264337 0.472243 -0.151660
C112  C     C_R   0.495693 0.266324 0.538157 -0.140590
C113  C     C_R   0.029809 0.764337 0.472243 -0.151660
C114  C     C_R   0.995693 0.766324 0.538157 -0.140590
C115  C     C_R   0.421681 0.957314 0.532788 -0.091709
C116  C     C_R   0.534185 0.928347 0.442895 -0.086313
C117  C     C_R   0.921681 0.457314 0.532788 -0.091709
C118  C     C_R   0.034185 0.428347 0.442895 -0.086313
C119  C     C_R   0.928552 0.352241 0.492137 -0.128091
C120  C     C_3   0.971658 0.560692 0.028878 -0.107489
C121  C     C_R   0.984589 0.337635 0.446826 -0.133928
C122  C     C_R   0.428552 0.852241 0.492137 -0.128091
C123  C     C_R   0.484589 0.837635 0.446826 -0.133928
C124  C     C_R   0.777008 0.862885 0.559505 -0.009366
C125  C     C_R   0.219281 0.851508 0.441966 -0.010805
C126  C     C_R   0.277008 0.362885 0.559505 -0.009365
C127  C     C_R   0.719281 0.351508 0.441966 -0.010806
C128  C     C_R   0.830292 0.919583 0.518118 0.027508
C129  C     C_R   0.174506 0.930678 0.481029 0.024602
C130  C     C_R   0.330292 0.419583 0.518118 0.027508
C131  C     C_3   0.028873 0.560885 0.970591 -0.107544
C132  C     C_R   0.674506 0.430678 0.481029 0.024602
C133  C     C_R   0.830336 0.899949 0.443501 0.034621
C134  C     C_R   0.167710 0.910343 0.555024 0.045595
C135  C     C_R   0.330336 0.399949 0.443501 0.034621
C136  C     C_R   0.667710 0.410343 0.555024 0.045595
C137  C     C_R   0.713557 0.820588 0.448966 -0.165654
C138  C     C_R   0.272061 0.792078 0.556727 -0.180551
C139  C     C_R   0.213557 0.320588 0.448966 -0.165654
C140  C     C_R   0.772061 0.292078 0.556727 -0.180550
C141  C     C_R   0.743694 0.965564 0.150918 0.561782
C142  C     C_R   0.771614 0.855144 0.938140 -0.014842
C143  C     C_R   0.256360 0.965706 0.849115 0.561522
C144  C     C_R   0.243694 0.465564 0.150918 0.561781
C145  C     C_R   0.756360 0.465706 0.849115 0.561522
C146  C     C_R   0.720452 0.808507 0.523228 -0.152606
C147  C     C_R   0.262250 0.771727 0.482254 -0.164606
C148  C     C_R   0.220452 0.308507 0.523228 -0.152606
C149  C     C_R   0.762250 0.271727 0.482254 -0.164606
C150  C     C_R   0.879015 0.004892 0.545062 -0.120735
C151  C     C_R   0.140708 0.034509 0.452992 -0.112303
C152  C     C_R   0.379015 0.504892 0.545062 -0.120736
Cr1   Cr    Cr6+3 0.772820 0.169820 0.252640 0.978133
Cr2   Cr    Cr6+3 0.383280 0.011130 0.749340 1.031555
Cr3   Cr    Cr6+3 0.116720 0.511130 0.250660 1.023198
Cr4   Cr    Cr6+3 0.883280 0.511130 0.749340 1.031555
Cr5   Cr    Cr6+3 0.227180 0.169820 0.747360 0.976289
Cr6   Cr    Cr6+3 0.272820 0.669820 0.252640 0.978133
Cr7   Cr    Cr6+3 0.727180 0.669820 0.747360 0.976290
Cr8   Cr    Cr6+3 0.615040 0.323610 0.249150 0.985771
Cr9   Cr    Cr6+3 0.384960 0.323610 0.750850 0.986329
Cr10  Cr    Cr6+3 0.115040 0.823610 0.249150 0.985771
Cr11  Cr    Cr6+3 0.884960 0.823610 0.750850 0.986328
Cr12  Cr    Cr6+3 0.616720 0.011130 0.250660 1.023198
H1    H     H_    0.626637 0.159491 0.022946 0.112986
H2    H     H_    0.579461 0.911645 0.410552 0.149826
H3    H     H_    0.877085 0.467158 0.566427 0.152798
H4    H     H_    0.079461 0.411645 0.410552 0.149826
H5    H     H_    0.892321 0.280046 0.496610 0.122315
H6    H     H_    0.989386 0.256589 0.414361 0.103833
H7    H     H_    0.392321 0.780046 0.496610 0.122315
H8    H     H_    0.489386 0.756589 0.414361 0.103833
H9    H     H_    0.666852 0.789833 0.421869 0.108074
H10   H     H_    0.314389 0.748440 0.585921 0.114369
H11   H     H_    0.166852 0.289833 0.421869 0.108074
H12   H     H_    0.373669 0.159371 0.977000 0.113191
H13   H     H_    0.814389 0.248440 0.585921 0.114368
H14   H     H_    0.875114 0.047516 0.596988 0.146530
H15   H     H_    0.152602 0.072428 0.401203 0.143591
H16   H     H_    0.375114 0.547516 0.596988 0.146531
H17   H     H_    0.652602 0.572428 0.401203 0.143591
H18   H     H_    0.679870 0.763463 0.553037 0.164423
H19   H     H_    0.292257 0.701749 0.455386 0.157112
H20   H     H_    0.179870 0.263463 0.553037 0.164423
H21   H     H_    0.792257 0.201749 0.455386 0.157112
H22   H     H_    0.962335 0.123304 0.520569 0.117263
H23   H     H_    0.126637 0.659492 0.022946 0.112985
H24   H     H_    0.077695 0.188019 0.478162 0.103503
H25   H     H_    0.462335 0.623304 0.520569 0.117263
H26   H     H_    0.577695 0.688019 0.478162 0.103503
H27   H     H_    0.981605 0.040248 0.398038 0.110922
H28   H     H_    0.047481 0.118736 0.600462 0.108562
H29   H     H_    0.481605 0.540248 0.398038 0.110922
H30   H     H_    0.547481 0.618736 0.600462 0.108563
H31   H     H_    0.893154 0.903459 0.346510 0.123329
H32   H     H_    0.100794 0.934408 0.647567 0.123654
H33   H     H_    0.393154 0.403459 0.346510 0.123329
H34   H     H_    0.873669 0.659372 0.977000 0.113191
H35   H     H_    0.600794 0.434408 0.647567 0.123654
H36   H     H_    0.549248 0.342622 0.943587 0.105099
H37   H     H_    0.450761 0.342250 0.057225 0.105224
H38   H     H_    0.049248 0.842622 0.943587 0.105099
H39   H     H_    0.950761 0.842250 0.057225 0.105224
H40   H     H_    0.447885 0.979325 0.053997 0.127389
H41   H     H_    0.552845 0.979696 0.945092 0.127007
H42   H     H_    0.947885 0.479325 0.053997 0.127389
H43   H     H_    0.052845 0.479696 0.945092 0.127007
H44   H     H_    0.860833 0.990929 0.073404 0.144625
H45   H     H_    0.546291 0.348443 0.448334 0.156600
H46   H     H_    0.139372 0.991903 0.926940 0.144932
H47   H     H_    0.360833 0.490929 0.073404 0.144625
H48   H     H_    0.639372 0.491902 0.926940 0.144931
H49   H     H_    0.640020 0.757304 0.889737 0.166582
H50   H     H_    0.359771 0.755554 0.109930 0.167153
H51   H     H_    0.140020 0.257304 0.889737 0.166582
H52   H     H_    0.859771 0.255554 0.109930 0.167153
H53   H     H_    0.874235 0.939376 0.949810 0.149557
H54   H     H_    0.125986 0.940361 0.050383 0.149627
H55   H     H_    0.374235 0.439375 0.949810 0.149557
H56   H     H_    0.490986 0.350639 0.567262 0.158520
H57   H     H_    0.625986 0.440361 0.050383 0.149627
H58   H     H_    0.054331 0.163889 0.964536 0.101790
H59   H     H_    0.945325 0.161371 0.034735 0.101299
H60   H     H_    0.554331 0.663888 0.964536 0.101790
H61   H     H_    0.445325 0.661370 0.034734 0.101299
H62   H     H_    0.074036 0.141915 0.095228 0.119436
H63   H     H_    0.925560 0.140089 0.903942 0.119723
H64   H     H_    0.574036 0.641914 0.095228 0.119436
H65   H     H_    0.425559 0.640088 0.903941 0.119723
H66   H     H_    0.793571 0.720844 0.158503 0.105924
H67   H     H_    0.046291 0.848443 0.448334 0.156600
H68   H     H_    0.751951 0.576683 0.150381 0.165612
H69   H     H_    0.765863 0.738404 0.285046 0.152040
H70   H     H_    0.717613 0.599181 0.282587 0.215229
H71   H     H_    0.875971 0.629616 0.253177 0.148633
H72   H     H_    0.828510 0.487455 0.248402 0.190835
H73   H     H_    0.837204 0.566732 0.333096 0.165715
H74   H     H_    0.206054 0.720005 0.842555 0.105531
H75   H     H_    0.248071 0.576016 0.849481 0.166248
H76   H     H_    0.231484 0.738416 0.716062 0.152317
H77   H     H_    0.280927 0.600112 0.716539 0.215973
H78   H     H_    0.990986 0.850638 0.567262 0.158520
H79   H     H_    0.171395 0.486023 0.751897 0.189714
H80   H     H_    0.160796 0.566099 0.667899 0.162234
H81   H     H_    0.122829 0.627389 0.748901 0.148800
H82   H     H_    0.293571 0.220844 0.158503 0.105924
H83   H     H_    0.251951 0.076683 0.150381 0.165612
H84   H     H_    0.265863 0.238404 0.285046 0.152040
H85   H     H_    0.217613 0.099181 0.282587 0.215229
H86   H     H_    0.375971 0.129615 0.253177 0.148633
H87   H     H_    0.328510 0.987455 0.248402 0.190835
H88   H     H_    0.337204 0.066733 0.333096 0.165715
H89   H     H_    0.377085 0.967157 0.566427 0.152798
H90   H     H_    0.706055 0.220007 0.842553 0.105532
H91   H     H_    0.748072 0.076018 0.849480 0.166247
H92   H     H_    0.731486 0.238414 0.716060 0.152315
H93   H     H_    0.780931 0.100114 0.716540 0.215975
H94   H     H_    0.671397 0.986024 0.751901 0.189712
H95   H     H_    0.660808 0.066079 0.667897 0.162235
H96   H     H_    0.622832 0.127387 0.748889 0.148802
O1    O     O_R   0.788190 0.043000 0.172520 -0.548150
O2    O     O_R   0.454170 0.051610 0.669840 -0.509652
O3    O     O_R   0.045830 0.551610 0.330160 -0.519182
O4    O     O_R   0.954170 0.551610 0.669840 -0.509652
O5    O     O_R   0.681920 0.959720 0.327070 -0.526508
O6    O     O_R   0.318080 0.959720 0.672930 -0.523292
O7    O     O_R   0.181920 0.459720 0.327070 -0.526508
O8    O     O_R   0.818080 0.459720 0.672930 -0.523292
O9    O     O_3   0.668190 0.168190 0.250820 -0.294278
O10   O     O_3   0.331810 0.168190 0.749180 -0.289667
O11   O     O_3   0.168190 0.668190 0.250820 -0.294278
O12   O     O_R   0.211810 0.043000 0.827480 -0.549139
O13   O     O_3   0.831810 0.668190 0.749180 -0.289667
O14   O     O_R   0.766240 0.292300 0.176860 -0.523589
O15   O     O_R   0.233760 0.292300 0.823140 -0.524535
O16   O     O_R   0.266240 0.792300 0.176860 -0.523589
O17   O     O_R   0.733760 0.792300 0.823140 -0.524536
O18   O     O_R   0.670310 0.409160 0.168720 -0.516248
O19   O     O_R   0.329690 0.409160 0.831280 -0.516025
O20   O     O_R   0.170310 0.909160 0.168720 -0.516248
O21   O     O_R   0.829690 0.909160 0.831280 -0.516025
O22   O     O_R   0.556160 0.251900 0.173380 -0.514961
O23   O     O_R   0.288190 0.543000 0.172520 -0.548150
O24   O     O_R   0.443840 0.251900 0.826620 -0.515236
O25   O     O_R   0.056160 0.751900 0.173380 -0.514961
O26   O     O_R   0.943840 0.751900 0.826620 -0.515236
O27   O     O_R   0.545410 0.050140 0.168240 -0.510230
O28   O     O_R   0.454590 0.050140 0.831760 -0.511256
O29   O     O_R   0.045410 0.550140 0.168240 -0.510230
O30   O     O_R   0.954590 0.550140 0.831760 -0.511256
O31   O     O_R   0.681530 0.958350 0.176970 -0.450289
O32   O     O_R   0.318470 0.958350 0.823030 -0.451058
O33   O     O_R   0.181530 0.458350 0.176970 -0.450289
O34   O     O_R   0.711810 0.543000 0.827480 -0.549139
O35   O     O_R   0.818470 0.458350 0.823030 -0.451057
O36   O     O_R   0.788610 0.044480 0.334450 -0.528044
O37   O     O_R   0.211390 0.044480 0.665550 -0.521266
O38   O     O_R   0.288610 0.544480 0.334450 -0.528044
O39   O     O_R   0.711390 0.544480 0.665550 -0.521265
O40   O     O_R   0.766630 0.293670 0.326970 -0.493679
O41   O     O_R   0.233370 0.293670 0.673030 -0.500812
O42   O     O_R   0.266630 0.793670 0.326970 -0.493679
O43   O     O_R   0.733370 0.793670 0.673030 -0.500811
O44   O     O_R   0.670730 0.410640 0.330640 -0.551082
O45   O     O_R   0.556550 0.253260 0.323480 -0.513510
O46   O     O_R   0.329270 0.410640 0.669360 -0.550239
O47   O     O_R   0.170730 0.910640 0.330640 -0.551082
O48   O     O_R   0.829270 0.910640 0.669360 -0.550239
O49   O     O_3   0.683036 0.720789 0.168060 -0.558765
O50   O     O_3   0.316479 0.720248 0.831587 -0.558459
O51   O     O_3   0.183036 0.220789 0.168060 -0.558765
O52   O     O_3   0.816480 0.220250 0.831587 -0.558460
O53   O     O_R   0.443450 0.253260 0.676520 -0.517164
O54   O     O_R   0.056550 0.753260 0.323480 -0.513510
O55   O     O_R   0.943450 0.753260 0.676520 -0.517163
O56   O     O_R   0.545830 0.051610 0.330160 -0.519182

loop_
_geom_bond_atom_site_label_1
_geom_bond_atom_site_label_2
_ccdc_geom_bond_type
C105  C110  A    
C24   C61   A    
C21   O40   A    
C53   H80   S    
C110  C118  A    
Cr8   O22   S    
C99   C143  S    
C96   O30   A    
C117  C119  A    
C40   C98   S    
C15   H33   S    
C88   H63   S    
C82   H60   S    
C106  C107  A    
C73   H55   S    
C4    H22   S    
C54   O51   S    
C38   C45   S    
C80   C86   A    
C31   O37   A    
C102  C112  A    
Cr11  O21   S    
C138  H10   S    
C55   H85   S    
C69   H47   S    
Cr3   O3    S    
C59   C60   S    
C98   C109  S    
Cr3   O29   S    
C31   O6    A    
C17   C30   S    
C116  H2    S    
C19   C32   S    
C77   H50   S    
C141  O31   A    
C139  C148  A    
C76   O20   A    
C51   C52   S    
Cr7   O13   S    
C137  C146  A    
C42   H34   S    
C85   H65   S    
C58   O52   S    
C100  C144  S    
C10   H29   S    
C41   C131  S    
Cr5   O12   S    
Cr6   O11   S    
C47   C131  S    
C39   H1    S    
C137  H9    S    
C37   C38   S    
C151  H15   S    
C115  H89   S    
C68   C72   A    
C54   H83   S    
C20   C33   S    
C45   C120  S    
C128  C150  A    
C13   C73   A    
C82   C84   A    
C17   C133  A    
C72   H54   S    
Cr12  O27   S    
Cr9   O46   S    
C141  O1    A    
C57   C78   A    
C46   C77   A    
C85   C90   A    
Cr9   O10   S    
C4    C150  A    
C5    C151  A    
C106  C115  A    
C22   O46   A    
C60   H96   S    
C52   H77   S    
C58   H90   S    
C81   C88   A    
C44   C94   S    
C33   O39   A    
C69   C100  A    
C125  C129  A    
C39   C109  S    
C19   C139  A    
C41   C45   S    
C17   C137  A    
C18   C31   S    
C5    H24   S    
Cr5   O37   S    
Cr2   O10   S    
Cr6   O42   S    
C90   O50   S    
Cr12  O9    S    
C116  C123  A    
C70   H48   S    
C111  C112  A    
C68   H46   S    
C111  H45   S    
C70   C101  A    
C5    C9    A    
C74   H57   S    
C101  C145  S    
C105  C113  A    
C78   C80   A    
C13   C57   A    
C60   H94   S    
C56   H87   S    
C118  H4    S    
Cr10  O54   S    
C63   C99   A    
C41   H23   S    
Cr4   O4    S    
C37   H38   S    
C7    H26   S    
Cr2   O28   S    
C37   C47   S    
Cr1   O1    S    
C123  H8    S    
C132  C136  A    
C51   O50   S    
C121  H6    S    
Cr11  O26   S    
C145  O35   A    
C66   C101  A    
Cr10  O47   S    
Cr7   O39   S    
C93   O22   A    
C119  C121  A    
Cr10  O11   S    
C33   O8    A    
C34   C39   S    
Cr11  O55   S    
C40   H12   S    
C32   O38   A    
C66   C92   A    
C27   O2    A    
C124  C146  A    
C75   H49   S    
C29   C104  S    
C109  H41   S    
C70   C74   A    
C49   H70   S    
C34   H36   S    
C62   C97   A    
Cr4   O8    S    
C8    C12   A    
C144  O23   A    
C112  H56   S    
Cr4   O30   S    
C30   O5    A    
C20   C136  A    
C50   H72   S    
C1    O14   A    
C119  H5    S    
C79   H52   S    
C114  H78   S    
C55   H84   S    
Cr7   O17   S    
C36   H37   S    
C45   C95   S    
C52   C53   S    
C54   C55   S    
Cr4   O35   S    
C108  C117  A    
C50   H73   S    
C53   H79   S    
C78   H51   S    
C103  C107  A    
C75   C82   A    
C28   O3    A    
C27   C102  S    
C64   C91   A    
C46   C63   A    
C127  C149  A    
C42   C120  S    
C61   C79   A    
C6    H25   S    
C108  C110  A    
C18   C134  A    
C51   H74   S    
C34   C36   S    
C95   O29   A    
C37   C41   S    
C107  C116  A    
C6    C10   A    
C52   H76   S    
C35   C142  A    
C80   H58   S    
C143  O32   A    
C40   C44   S    
C1    C24   S    
C122  H7    S    
C27   O53   A    
C140  C149  A    
C67   H44   S    
C16   C136  A    
C55   C56   S    
C149  H21   S    
C65   O15   A    
C120  C131  S    
C23   O47   A    
C130  C135  A    
C30   O36   A    
Cr8   O9    S    
C129  C151  A    
C3    C7    A    
C145  O34   A    
C92   O52   S    
Cr8   O45   S    
C126  C130  A    
C19   C135  A    
C62   C89   A    
C29   O4    A    
C32   O7    A    
C103  C111  A    
Cr11  O48   S    
C18   C138  A    
Cr6   O38   S    
C56   H86   S    
C96   O26   A    
C47   C96   S    
C43   C98   S    
C69   C73   A    
C28   O54   A    
C124  C128  A    
C6    C152  A    
C44   C109  S    
C131  H43   S    
C2    C72   A    
C113  H67   S    
Cr1   O36   S    
Cr9   O24   S    
C146  H18   S    
C3    C132  A    
C29   O55   A    
Cr9   O19   S    
C93   O27   A    
C126  C148  A    
C94   O28   A    
C58   C59   S    
C95   O25   A    
C9    C14   A    
Cr2   O2    S    
C26   C103  S    
C11   C16   A    
C144  O33   A    
C140  H13   S    
Cr8   O18   S    
C58   H91   S    
Cr7   O43   S    
Cr8   O44   S    
C97   C141  S    
Cr4   O13   S    
C48   C49   S    
C83   C85   A    
C38   H39   S    
C125  C147  A    
C12   H31   S    
C104  C108  A    
C2    C76   S    
C113  C114  A    
Cr11  O13   S    
Cr10  O20   S    
C59   H92   S    
Cr5   O15   S    
Cr3   O11   S    
Cr6   O16   S    
C71   H53   S    
C21   O44   A    
C20   C140  A    
C1    O18   A    
C23   O42   A    
C117  H3    S    
C56   H88   S    
Cr2   O32   S    
C43   C93   S    
C67   C71   A    
C54   H82   S    
C87   C142  S    
C67   C97   A    
C129  C134  A    
Cr10  O25   S    
C64   C100  A    
C86   C91   A    
C59   H93   S    
C36   C43   S    
C51   H75   S    
Cr12  O56   S    
C152  H16   S    
C139  H11   S    
C11   H30   S    
C4    C8    A    
C13   C65   S    
C2    C46   A    
C7    C11   A    
C35   C75   A    
Cr3   O33   S    
C60   H95   S    
C98   H40   S    
C38   C42   S    
C10   C15   A    
C22   C126  S    
C15   C135  A    
C77   C83   A    
C8    H27   S    
C76   O16   A    
C87   O17   A    
C127  C132  A    
C49   H69   S    
C61   C66   A    
C88   C92   A    
C65   O19   A    
Cr1   O14   S    
C21   C127  S    
C9    H28   S    
C28   C105  S    
C23   C125  S    
C48   H66   S    
C25   O48   A    
C115  C122  A    
C50   H71   S    
C25   C124  S    
C81   H59   S    
C143  O12   A    
C36   C40   S    
C22   O41   A    
C34   C44   S    
C79   C81   A    
C39   C43   S    
C14   C134  A    
C26   O56   A    
C118  C121  A    
C87   O21   A    
C3    H17   S    
C138  C147  A    
C148  H20   S    
C16   H35   S    
C71   C142  A    
C104  C114  A    
Cr1   O40   S    
C49   C50   S    
C12   C133  A    
C86   H62   S    
C84   C89   A    
C84   H64   S    
C57   C64   A    
C94   O24   A    
C83   H61   S    
C147  H19   S    
C14   H32   S    
Cr6   O23   S    
Cr1   O9    S    
Cr5   O41   S    
Cr2   O6    S    
C89   O49   S    
Cr12  O31   S    
C91   O51   S    
Cr12  O5    S    
C25   O43   A    
C150  H14   S    
C120  H42   S    
C68   C99   A    
C128  C133  A    
C130  C152  A    
C24   C74   A    
Cr5   O10   S    
C63   C90   A    
C102  C106  A    
C35   C62   A    
C42   C47   S    
C48   O49   S    
Cr7   O34   S    
C53   H81   S    
C48   H68   S    
C26   O45   A    
Cr9   O53   S    
C122  C123  A    
Cr3   O7    S    
