data_mof_unit_3909.cif
_audit_creation_date              2012-12-10T17:49:30-0500
_audit_creation_method            fapswitch 2.2
_symmetry_space_group_name_H-M    P1
_symmetry_Int_Tables_number       1
_space_group_crystal_system       triclinic
_cell_length_a                    14.798251
_cell_length_b                    14.95571
_cell_length_c                    15.882283
_cell_angle_alpha                 74.667034
_cell_angle_beta                  102.652482
_cell_angle_gamma                 115.722324
_cell_volume                      3031.93629542

loop_
_atom_site_label
_atom_site_type_symbol
_atom_type_description
_atom_site_fract_x
_atom_site_fract_y
_atom_site_fract_z
_atom_type_partial_charge
C1    C     C_R   0.880244 0.312653 0.515623 0.794712
C2    C     C_3   0.109978 0.533990 0.062618 -0.185397
C3    C     C_3   0.999223 0.498045 0.083153 0.173002
C4    C     C_3   0.956631 0.574954 0.020393 -0.179021
C5    C     C_3   0.954646 0.572336 0.922804 -0.403782
C6    C     C_1   0.999920 0.499232 0.175685 -0.088856
C7    C     C_1   0.000186 0.499039 0.824847 -0.086565
C8    C     C_1   0.000065 0.499496 0.749200 -0.196254
C9    C     C_R   0.812115 0.205228 0.526359 -0.054309
C10   C     C_R   0.186771 0.795264 0.472636 -0.071321
C11   C     C_R   0.780334 0.028231 0.577777 -0.190633
C12   C     C_R   0.999972 0.499765 0.659515 0.817808
C13   C     C_R   0.848290 0.129030 0.562025 -0.193216
C14   C     C_R   0.708410 0.179005 0.502540 -0.226308
C15   C     C_R   0.639996 0.077848 0.507938 0.082233
C16   C     C_R   0.676326 0.002663 0.553552 0.168365
C17   C     C_R   0.535392 0.050024 0.475559 0.008063
C18   C     C_R   0.465901 0.950245 0.507190 0.068180
C19   C     C_R   0.505175 0.879839 0.561050 -0.210639
C20   C     C_R   0.608234 0.904114 0.578894 -0.227128
C21   C     C_R   0.497876 0.116164 0.410680 -0.052186
C22   C     C_R   0.394534 0.090193 0.389689 -0.243997
C23   C     C_R   0.119577 0.687377 0.485909 0.792400
C24   C     C_R   0.324655 0.994935 0.423895 0.084686
C25   C     C_R   0.360043 0.922966 0.481193 0.080200
C26   C     C_R   0.219736 0.967685 0.397120 -0.005847
C27   C     C_R   0.152045 0.867863 0.420648 -0.232936
C28   C     C_R   0.288220 0.824343 0.507058 -0.242604
C29   C     C_R   0.687723 0.608498 0.322179 -0.280583
C30   C     C_R   0.782652 0.611229 0.360316 0.095828
C31   C     C_R   0.718632 0.514123 0.494659 0.025024
C32   C     C_R   0.620523 0.511800 0.460816 -0.022254
C33   C     C_R   0.604680 0.555014 0.370700 0.100112
C34   C     C_R   0.000135 0.500341 0.340499 0.826141
C35   C     C_R   0.537393 0.466171 0.511923 0.049748
C36   C     C_R   0.441695 0.468349 0.472735 0.052535
C37   C     C_R   0.425122 0.489011 0.380595 -0.245961
C38   C     C_R   0.505377 0.537922 0.330089 -0.023745
C39   C     C_R   0.545527 0.416396 0.599833 -0.255809
C40   C     C_R   0.463004 0.370818 0.647285 0.008812
C41   C     C_R   0.372920 0.385257 0.611594 0.039269
C42   C     C_R   0.363917 0.442604 0.526613 -0.022651
C43   C     C_R   0.292704 0.344684 0.660709 -0.306244
C44   C     C_R   0.209661 0.370576 0.634115 0.310358
C45   C     C_3   0.109170 0.531261 0.965077 -0.402311
C46   C     C_R   0.282621 0.477981 0.503238 0.205666
C47   C     C_3   0.934759 0.391067 0.963596 -0.413821
C48   C     C_3   0.936931 0.388914 0.062441 -0.159784
C49   C     C_1   0.000008 0.499957 0.251012 -0.148390
C50   C     C_3   0.999953 0.498549 0.917057 0.264755
Cu1   Cu    Cu3+1 0.081750 0.475690 0.522550 0.918176
Cu2   Cu    Cu3+1 0.918250 0.524310 0.477450 0.949544
H1    H     H_    0.157336 0.607793 0.931381 0.164540
H2    H     H_    0.153638 0.613470 0.072226 0.131746
H3    H     H_    0.634659 0.846481 0.617073 0.144687
H4    H     H_    0.308770 0.766563 0.551605 0.149587
H5    H     H_    0.072673 0.846104 0.395517 0.159580
H6    H     H_    0.368969 0.143404 0.341375 0.167211
H7    H     H_    0.808786 0.970537 0.610564 0.135701
H8    H     H_    0.928233 0.147495 0.581575 0.151875
H9    H     H_    0.681003 0.238353 0.484487 0.168042
H10   H     H_    0.141920 0.478485 0.960334 0.175500
H11   H     H_    0.458995 0.804142 0.589976 0.135648
H12   H     H_    0.679170 0.644628 0.253943 0.155450
H13   H     H_    0.844662 0.647027 0.320854 0.128338
H14   H     H_    0.734707 0.474693 0.559378 0.122328
H15   H     H_    0.856132 0.367117 0.929297 0.178373
H16   H     H_    0.349289 0.462792 0.347111 0.165764
H17   H     H_    0.614260 0.408414 0.632710 0.134237
H18   H     H_    0.294087 0.291036 0.721415 0.171158
H19   H     H_    0.964288 0.336144 0.958044 0.161178
H20   H     H_    0.974810 0.338648 0.102121 0.145690
H21   H     H_    0.999072 0.649803 0.887959 0.160021
H22   H     H_    0.876269 0.549057 0.887971 0.176778
H23   H     H_    0.008239 0.652449 0.031645 0.123270
N1    N     N_R   0.795410 0.560790 0.443550 -0.185518
N2    N     N_R   0.204590 0.439170 0.556520 -0.206035
O1    O     O_R   0.977910 0.338120 0.529720 -0.601144
O2    O     O_R   0.839850 0.379180 0.491640 -0.574033
O3    O     O_R   0.069060 0.479460 0.639610 -0.595713
O4    O     O_R   0.931000 0.520530 0.601530 -0.576878
O5    O     O_R   0.160150 0.620820 0.508360 -0.601309
O6    O     O_R   0.022090 0.661880 0.470280 -0.581952
O7    O     O_R   0.069000 0.479470 0.398470 -0.595516
O8    O     O_R   0.930940 0.520540 0.360390 -0.570487
C51   C     C_1   0.164227 0.474299 0.122738 0.249952
N3    N     N_1   0.206636 0.427629 0.169860 -0.274463
C52   C     C_1   0.856282 0.559279 0.038009 0.265213
N4    N     N_1   0.777794 0.547317 0.051811 -0.252230
C53   C     C_1   0.560903 0.204439 0.353842 0.240035
N5    N     N_1   0.610855 0.274961 0.308071 -0.239503
C54   C     C_1   0.179453 0.039164 0.342069 0.212603
N6    N     N_1   0.147183 0.096325 0.298063 -0.268775
C55   C     C_1   0.482599 0.565984 0.236056 0.253514
N7    N     N_1   0.464232 0.588416 0.160813 -0.270180
C56   C     C_3   0.291905 0.568870 0.427800 -0.353814
C57   C     C_3   0.387213 0.663827 0.443585 -0.385857
C58   C     C_3   0.393328 0.753305 0.368005 -0.815159
H24   H     H_    0.398728 0.735996 0.305895 0.256126
H25   H     H_    0.325602 0.770428 0.359372 0.254960
H26   H     H_    0.461551 0.821165 0.382256 0.257623
H27   H     H_    0.385285 0.682882 0.505654 0.218687
H28   H     H_    0.457203 0.651420 0.450739 0.234552
H29   H     H_    0.285183 0.552087 0.362934 0.170402
H30   H     H_    0.229472 0.590903 0.417107 0.257068
C59   C     C_3   0.130125 0.318490 0.697617 -0.356210
C60   C     C_3   0.159449 0.366384 0.780103 -0.345112
C61   C     C_3   0.228496 0.328780 0.852997 -0.819917
H31   H     H_    0.200104 0.245024 0.865503 0.253764
H32   H     H_    0.306890 0.363317 0.835895 0.260712
H33   H     H_    0.230618 0.351832 0.914633 0.246083
H34   H     H_    0.196663 0.450157 0.762406 0.241844
H35   H     H_    0.088958 0.347006 0.807769 0.206569
H36   H     H_    0.055511 0.315087 0.667008 0.212720
H37   H     H_    0.116572 0.236991 0.718184 0.154531
C62   C     C_1   0.476175 0.315462 0.735648 0.212969
N8    N     N_1   0.486779 0.271292 0.806247 -0.274536
C63   C     C_1   0.833527 0.341867 0.087674 0.268001
N9    N     N_1   0.752559 0.304739 0.107582 -0.233348

loop_
_geom_bond_atom_site_label_1
_geom_bond_atom_site_label_2
_ccdc_geom_bond_type
C10   C27   A    
C31   H14   S    
C56   H30   S    
C23   O5    A    
C41   C42   A    
C3    C48   S    
C36   C42   A    
C19   C20   A    
C9    C14   A    
C3    C6    S    
C57   C58   S    
C28   H4    S    
C7    C8    T    
C13   H8    S    
C61   H31   S    
C25   C28   A    
C26   C27   A    
C29   C30   A    
C23   O6    A    
C59   H36   S    
Cu2   O8    S    
C24   C26   A    
C42   C46   A    
C59   C60   S    
C26   C54   S    
C15   C16   A    
C37   H16   S    
C29   C33   A    
C45   H10   S    
C62   N8    T    
C18   C19   A    
C60   H34   S    
C5    H22   S    
C9    C13   A    
C63   N9    T    
C60   H35   S    
C4    H23   S    
Cu1   O3    S    
C35   C36   A    
C19   H11   S    
C47   C48   S    
C60   C61   S    
Cu2   O2    S    
C57   H27   S    
C16   C20   A    
C29   H12   S    
C45   H1    S    
C21   C22   A    
C1    O1    A    
C41   C43   A    
C55   N7    T    
C18   C25   A    
C34   O7    A    
C48   H20   S    
C20   H3    S    
C11   H7    S    
C47   H15   S    
C47   C50   S    
C21   C53   S    
C2    C45   S    
Cu1   Cu2   S    
C32   C35   A    
C1    C9    S    
C24   C25   A    
C27   H5    S    
C39   C40   A    
C51   N3    T    
C48   C63   S    
C14   H9    S    
C17   C21   A    
C34   O8    A    
Cu2   O6    S    
C35   C39   A    
C43   C44   A    
Cu1   N2    S    
C37   C38   A    
C30   N1    A    
C11   C16   A    
C31   C32   A    
C8    C12   S    
C56   C57   S    
C38   C55   S    
C17   C18   A    
C39   H17   S    
Cu1   O5    S    
C47   H19   S    
C57   H28   S    
C40   C41   A    
C43   H18   S    
C58   H25   S    
C56   H29   S    
C2    H2    S    
C1    O2    A    
C22   C24   A    
C5    C50   S    
C53   N5    T    
C3    C4    S    
C10   C28   A    
C15   C17   A    
C36   C37   A    
C34   C49   S    
C7    C50   S    
C4    C5    S    
Cu2   N1    S    
C22   H6    S    
C46   N2    A    
C4    C52   S    
C44   C59   S    
C10   C23   S    
C58   H26   S    
C44   N2    A    
C33   C38   A    
C61   H33   S    
C59   H37   S    
C32   C33   A    
C2    C3    S    
Cu1   O1    S    
C11   C13   A    
C31   N1    A    
C40   C62   S    
C45   C50   S    
C12   O3    A    
C54   N6    T    
C61   H32   S    
C12   O4    A    
C2    C51   S    
C6    C49   T    
C5    H21   S    
Cu2   O4    S    
C30   H13   S    
C46   C56   S    
C52   N4    T    
C58   H24   S    
C14   C15   A    
Cu1   O7    S    
