data_mof_unit_2154.cif
_audit_creation_date              2012-12-11T18:37:43-0500
_audit_creation_method            fapswitch 2.2
_symmetry_space_group_name_H-M    P1
_symmetry_Int_Tables_number       1
_space_group_crystal_system       triclinic
_cell_length_a                    8.232585
_cell_length_b                    14.379399
_cell_length_c                    27.029587
_cell_angle_alpha                 93.71889
_cell_angle_beta                  93.624299
_cell_angle_gamma                 87.681903
_cell_volume                      3184.50555863

loop_
_atom_site_label
_atom_site_type_symbol
_atom_type_description
_atom_site_fract_x
_atom_site_fract_y
_atom_site_fract_z
_atom_type_partial_charge
Ba1   Ba    Ba6+2 0.849670 0.455410 0.524690 1.692358
Ba2   Ba    Ba6+2 0.340150 0.544510 0.475310 1.708570
Br1   Br    Br    0.614479 0.441957 0.783242 -0.503902
Br2   Br    Br    0.062637 0.783591 0.867548 -0.455586
C1    C     C_3   0.625394 0.111319 0.653539 -0.186796
C2    C     C_R   0.954459 0.596434 0.180450 0.590712
C3    C     C_2   0.769048 0.569287 0.270982 -0.090027
C4    C     C_3   0.109259 0.251891 0.665004 0.267520
C5    C     C_3   0.750772 0.593949 0.325562 -0.055031
C6    C     C_1   0.973081 0.479740 0.342902 -0.008194
C7    C     C_2   0.011166 0.473796 0.295488 -0.101517
C8    C     C_2   0.902198 0.518841 0.256326 0.233176
C9    C     C_R   0.017016 0.508536 0.103185 -0.082049
C10   C     C_R   0.010780 0.425577 0.128003 -0.033422
C11   C     C_R   0.040379 0.340299 0.101460 -0.054674
C12   C     C_3   0.620742 0.211064 0.636938 0.318281
C13   C     C_R   0.988712 0.594403 0.129807 -0.029317
C14   C     C_2   0.844495 0.528186 0.358739 -0.258067
C15   C     C_2   0.324742 0.455997 0.646072 -0.308115
C16   C     C_3   0.065691 0.229761 0.716684 -0.251385
C17   C     C_R   0.128427 0.416964 0.975048 0.031295
C18   C     C_R   0.079672 0.586901 0.975114 -0.021851
C19   C     C_R   0.122304 0.500976 0.949651 0.057555
C20   C     C_R   0.177936 0.333568 0.948698 -0.088911
C21   C     C_R   0.216796 0.332331 0.899327 -0.026891
C22   C     C_R   0.208104 0.414026 0.873571 -0.017590
C23   C     C_3   0.655295 0.724325 0.627066 0.266680
C24   C     C_R   0.159674 0.498959 0.898390 -0.108095
C25   C     C_R   0.149289 0.581474 0.872088 -0.076981
C26   C     C_R   0.191923 0.576477 0.821564 0.669359
C27   C     C_R   0.248745 0.411958 0.823536 0.647992
C28   C     C_3   0.160284 0.257170 0.346425 0.198616
C29   C     C_2   0.439553 0.460722 0.733697 0.240144
C30   C     C_3   0.477883 0.462133 0.679585 0.044456
C31   C     C_1   0.201260 0.512277 0.657997 0.107605
C32   C     C_2   0.164359 0.519850 0.705645 -0.112338
C33   C     C_2   0.286678 0.489570 0.746491 0.181084
C34   C     C_3   0.694971 0.779052 0.676473 -0.315517
C35   C     C_R   0.086480 0.418950 0.025766 0.020992
C36   C     C_R   0.051989 0.505779 0.051783 0.055200
C37   C     C_R   0.052361 0.590006 0.026974 0.032931
C38   C     C_R   0.077420 0.336884 0.051685 -0.095120
C39   C     C_R   0.996430 0.676998 0.105445 -0.057851
C40   C     C_3   0.006757 0.227624 0.315756 -0.441640
C41   C     C_R   0.063384 0.667221 0.947551 -0.101305
C42   C     C_R   0.096695 0.665618 0.897495 0.322844
C43   C     C_R   0.027577 0.675041 0.055376 -0.093979
C44   C     C_R   0.684575 0.064195 0.469040 -0.014520
C45   C     C_3   0.011463 0.808364 0.333857 0.303609
C46   C     C_R   0.505904 0.198112 0.498391 0.039584
C47   C     C_R   0.366062 0.229218 0.522044 -0.252404
C48   C     C_R   0.268649 0.166607 0.542546 0.035293
C49   C     C_R   0.313028 0.072232 0.541261 -0.109482
C50   C     C_R   0.453211 0.039230 0.517809 -0.004852
C51   C     C_R   0.549470 0.101304 0.494752 -0.011343
C52   C     C_3   0.046330 0.739718 0.572289 0.335651
C53   C     C_R   0.629993 0.907279 0.491473 -0.022683
C54   C     C_R   0.726683 0.968281 0.467861 -0.001484
C55   C     C_R   0.672824 0.811006 0.490022 0.026785
C56   C     C_3   0.049534 0.832341 0.282015 -0.293033
C57   C     C_R   0.807789 0.776800 0.465110 -0.274573
C58   C     C_R   0.910524 0.837263 0.445304 -0.013681
C59   C     C_R   0.868813 0.932874 0.445581 -0.149223
C60   C     C_R   0.495567 0.944318 0.516773 -0.018057
C61   C     C_3   0.041409 0.845453 0.580649 -0.366995
C62   C     C_3   0.661907 0.340835 0.380329 0.302880
C63   C     C_3   0.617628 0.330520 0.324728 -0.337396
C64   C     C_2   0.488234 0.095794 0.685682 0.888124
C65   C     C_2   0.535433 0.652257 0.632444 0.779123
C66   C     C_2   0.266374 0.171179 0.355993 0.901603
C67   C     C_3   0.537219 0.793286 0.351290 0.402797
C68   C     C_3   0.506316 0.884358 0.326027 -0.308706
C69   C     C_R   0.973227 0.429561 0.178682 0.593695
H1    H     H_    0.710164 0.212868 0.607932 0.072808
H2    H     H_    0.795533 0.341324 0.386605 0.001520
H3    H     H_    0.606449 0.408234 0.394498 0.062141
H4    H     H_    0.615561 0.062425 0.620002 0.029924
H5    H     H_    0.651953 0.259436 0.309482 0.157252
H6    H     H_    0.680820 0.382333 0.305044 0.051212
H7    H     H_    0.485167 0.342965 0.317466 0.134933
H8    H     H_    0.496657 0.228628 0.620745 -0.110387
H9    H     H_    0.769095 0.691513 0.614758 0.047516
H10   H     H_    0.584622 0.817332 0.689899 0.173452
H11   H     H_    0.743516 0.730928 0.704866 0.105856
H12   H     H_    0.937568 0.289998 0.303083 0.119515
H13   H     H_    0.788709 0.830554 0.671763 0.119302
H14   H     H_    0.743608 0.095265 0.673882 0.081367
H15   H     H_    0.065495 0.294493 0.741245 0.129658
H16   H     H_    0.961443 0.737553 0.331655 0.012749
H17   H     H_    0.919463 0.861164 0.347288 -0.019755
H18   H     H_    0.140474 0.780955 0.266648 0.169096
H19   H     H_    0.936288 0.831462 0.257442 0.117624
H20   H     H_    0.098868 0.903251 0.283258 0.101298
H21   H     H_    0.671124 0.779095 0.353624 -0.142607
H22   H     H_    0.494090 0.802467 0.389494 0.077524
H23   H     H_    0.039174 0.183937 0.282129 0.126251
H24   H     H_    0.575572 0.940429 0.347030 0.093306
H25   H     H_    0.375061 0.904982 0.324955 0.163925
H26   H     H_    0.040169 0.316777 0.655849 0.085433
H27   H     H_    0.546923 0.876450 0.287524 0.105289
H28   H     H_    0.124811 0.439583 0.284984 0.098038
H29   H     H_    0.034989 0.275120 0.119181 0.124495
H30   H     H_    0.254684 0.266190 0.881294 0.139927
H31   H     H_    0.191481 0.267557 0.965418 0.079165
H32   H     H_    0.095512 0.268031 0.034362 0.078214
H33   H     H_    0.687536 0.603057 0.243923 0.099635
H34   H     H_    0.928458 0.187530 0.338031 0.118906
H35   H     H_    0.978110 0.744315 0.125135 0.121843
H36   H     H_    0.020232 0.733315 0.963684 0.111016
H37   H     H_    0.242045 0.263280 0.665354 0.001212
H38   H     H_    0.044190 0.545870 0.715318 0.129461
H39   H     H_    0.035240 0.742177 0.040383 0.079780
H40   H     H_    0.820641 0.534270 0.397859 0.065519
H41   H     H_    0.313342 0.403754 0.615405 0.041195
H42   H     H_    0.330519 0.302582 0.523444 0.075212
H43   H     H_    0.237205 0.024645 0.558064 0.094918
H44   H     H_    0.949055 0.979426 0.429837 0.083604
H45   H     H_    0.930118 0.716899 0.553771 -0.073843
H46   H     H_    0.841697 0.703294 0.465343 0.054556
H47   H     H_    0.759051 0.108748 0.449993 0.093557
H48   H     H_    0.942069 0.201532 0.715380 0.150089
H49   H     H_    0.420221 0.900032 0.535641 0.123075
H50   H     H_    0.154465 0.177731 0.732313 0.155309
H51   H     H_    0.227493 0.303425 0.324275 0.017147
H52   H     H_    0.282533 0.028028 0.693624 0.323852
H53   H     H_    0.446632 0.551085 0.585539 0.293027
H54   H     H_    0.119136 0.124622 0.405578 0.271753
H55   H     H_    0.143589 0.719385 0.547295 0.094975
H56   H     H_    0.935322 0.869214 0.602099 0.113791
H57   H     H_    0.030558 0.878143 0.544498 0.060365
H58   H     H_    0.155204 0.868535 0.601287 0.158487
N1    N     N_R   0.944128 0.514548 0.204374 -0.422916
N2    N     N_R   0.241444 0.492638 0.798084 -0.425331
O1    O     O_2   0.918080 0.549800 0.616640 -0.464846
O2    O     O_2   0.246922 0.833562 0.458004 -0.490759
O3    O     O_3   0.154941 0.810772 0.364725 -0.566258
O4    O     O_3   0.150070 0.549720 0.556460 -0.513160
O5    O     O_3   0.546340 0.387390 0.478340 -0.479607
O6    O     O_2   0.398940 0.728800 0.517420 -0.467735
O7    O     O_3   0.589915 0.784854 0.592146 -0.658736
O8    O     O_2   0.420323 0.539285 0.321852 -0.484818
O9    O     O_3   0.453026 0.721150 0.324157 -0.568487
O10   O     O_2   0.964497 0.357307 0.199645 -0.605049
O11   O     O_2   0.291969 0.338019 0.802636 -0.557910
O12   O     O_3   0.605178 0.264395 0.402904 -0.606468
O13   O     O_2   0.934794 0.671596 0.203407 -0.625262
O14   O     O_2   0.188211 0.646836 0.798578 -0.506057
O15   O     O_3   0.658250 0.379560 0.591530 -0.466725
O16   O     O_2   0.815998 0.429094 0.676468 -0.474849
O17   O     O_3   0.074862 0.699422 0.618109 -0.592310
O18   O     O_3   0.663179 0.274006 0.677297 -0.573032
O19   O     O_2   0.790750 0.271170 0.482550 -0.462772
O20   O     O_3   0.062300 0.331660 0.568480 -0.496435
O21   O     O_2   0.932870 0.167069 0.541686 -0.492256
O22   O     O_2   0.482780 0.136865 0.726626 -0.542036
O23   O     O_3   0.066618 0.177249 0.631267 -0.597715
O24   O     O_R   0.368210 0.033351 0.668729 -0.759709
O25   O     O_2   0.414698 0.670285 0.655797 -0.627221
O26   O     O_R   0.552330 0.569199 0.603834 -0.731923
O27   O     O_2   0.390462 0.156424 0.333881 -0.598678
O28   O     O_R   0.224107 0.106668 0.389155 -0.741627
O29   O     O_2   0.271610 0.450170 0.383330 -0.460104
O30   O     O_3   0.039630 0.450200 0.443530 -0.459510
O31   O     O_3   0.531440 0.620360 0.408460 -0.480775
O32   O     O_3   0.119549 0.300143 0.392646 -0.636976
O33   O     O_3   0.643350 0.612530 0.521650 -0.443024
O34   O     O_3   0.127390 0.668260 0.431510 -0.470109
P1    P     P_3+3 0.090020 0.577590 0.608380 1.042395
P2    P     P_3+3 0.614340 0.285150 0.467650 1.014949
P3    P     P_3+3 0.082108 0.210415 0.570552 0.961337
P4    P     P_3+3 0.099670 0.422330 0.391610 1.002359
P5    P     P_3+3 0.107888 0.788801 0.424924 0.970727
P6    P     P_3+3 0.652760 0.387215 0.656427 1.048605
P7    P     P_3+3 0.585916 0.732399 0.531166 0.947561
P8    P     P_3+3 0.536971 0.615120 0.343899 0.976846

loop_
_geom_bond_atom_site_label_1
_geom_bond_atom_site_label_2
_ccdc_geom_bond_type
O32   P4    S    
C44   C51   A    
O18   P6    S    
C34   H10   S    
C57   H46   S    
C28   H51   S    
C31   C32   D    
C45   H17   S    
C27   N2    Am   
C55   P7    S    
O31   P8    S    
Ba2   O29   S    
C61   H57   S    
C26   O14   D    
C44   H47   S    
C67   H21   S    
C68   H25   S    
H53   O26   S    
C58   C59   A    
C45   C56   S    
C34   H13   S    
C12   H1    S    
Ba2   O6    S    
C32   C33   S    
C4    H26   S    
C69   O10   D    
C59   H44   S    
C41   H36   S    
C56   H18   S    
C18   C37   A    
C67   H22   S    
Br1   C29   S    
C23   C34   S    
C52   C61   S    
O21   P3    D    
Ba1   O19   S    
Ba1   Ba2   S    
C46   C51   A    
O23   P3    S    
C27   O11   D    
C62   O12   S    
O29   P4    D    
O3    P5    S    
C49   C50   A    
C16   H50   S    
O20   P3    S    
C12   O18   S    
O30   P4    S    
Ba2   O33   S    
O16   P6    D    
C23   C65   S    
C49   H43   S    
Ba2   P4    S    
C56   H20   S    
C64   O22   D    
C28   C66   S    
C62   C63   S    
C69   N1    Am   
O17   P1    S    
C22   C27   A    
H54   O28   S    
C9    C10   A    
O5    P2    S    
Ba2   O4    S    
C63   H5    S    
C1    C64   S    
C14   H40   S    
C61   H58   S    
C29   C30   S    
C35   C38   A    
C68   H24   S    
C56   H19   S    
C28   C40   S    
C3    C8    D    
O12   P2    S    
O33   P7    S    
C55   C57   A    
C47   C48   A    
Ba2   O5    S    
C10   C69   A    
C63   H6    S    
C20   C21   A    
C2    N1    Am   
C48   P3    S    
C35   C36   A    
Ba2   O31   S    
C21   H30   S    
Br2   C42   S    
C15   H41   S    
C6    P4    S    
C41   C42   A    
C2    O13   D    
C47   H42   S    
C20   H31   S    
C13   C39   A    
C25   C26   A    
C40   H23   S    
C4    H37   S    
C17   C35   A    
C26   N2    Am   
C62   H3    S    
C32   H38   S    
C46   C47   A    
C37   C43   A    
C3    H33   S    
C7    H28   S    
C4    C16   S    
O2    P5    D    
Ba1   O20   S    
C16   H48   S    
O34   P5    S    
C67   O9    S    
C36   C37   A    
C45   O3    S    
C17   C19   A    
C33   N2    S    
C19   C24   A    
C52   O17   S    
C40   H12   S    
C9    C36   A    
C66   O28   S    
Ba1   O1    S    
Ba1   O4    S    
C48   C49   A    
C53   C60   A    
C31   P1    S    
C68   H27   S    
C40   H34   S    
C54   C59   A    
C3    C5    S    
C2    C13   A    
C50   C51   A    
C24   C25   A    
C8    N1    S    
C34   H11   S    
C18   C19   A    
H52   O24   S    
C52   H45   S    
C23   H9    S    
C63   H7    S    
O15   P6    S    
C11   C38   A    
C45   H16   S    
C39   C43   A    
Ba1   O15   S    
C15   C30   S    
Ba2   O30   S    
C61   H56   S    
C7    C8    S    
C44   C54   A    
O9    P8    S    
C58   P5    S    
C43   H39   S    
C22   C24   A    
C23   O7    S    
Ba1   P1    S    
C9    C13   A    
C25   C42   A    
C21   C22   A    
C67   C68   S    
C1    C12   S    
C30   P6    S    
C15   C31   D    
O1    P1    D    
O19   P2    D    
C53   C54   A    
C50   C60   A    
Ba1   O33   S    
C6    C14   D    
C60   H49   S    
C62   H2    S    
C16   H15   S    
Ba1   P2    S    
C12   H8    S    
C65   O26   S    
C65   O25   D    
C5    P8    S    
C46   P2    S    
C66   O27   D    
C39   H35   S    
C52   H55   S    
C11   H29   S    
C57   C58   A    
C4    O23   S    
C38   H32   S    
C29   C33   D    
C53   C55   A    
C6    C7    D    
C1    H14   S    
C5    C14   S    
C18   C41   A    
Ba1   O30   S    
O7    P7    S    
C17   C20   A    
O8    P8    D    
C10   C11   A    
O6    P7    D    
C28   O32   S    
C1    H4    S    
Ba2   O34   S    
O4    P1    S    
Ba1   O5    S    
C64   O24   S    
