data_mof_unit_1939.cif
_audit_creation_date              2012-12-10T20:28:43-0500
_audit_creation_method            fapswitch 2.2
_symmetry_space_group_name_H-M    P1
_symmetry_Int_Tables_number       1
_space_group_crystal_system       triclinic
_cell_length_a                    10.772903
_cell_length_b                    10.706857
_cell_length_c                    9.895427
_cell_angle_alpha                 89.274538
_cell_angle_beta                  88.619865
_cell_angle_gamma                 91.06078
_cell_volume                      1140.75269727

loop_
_atom_site_label
_atom_site_type_symbol
_atom_type_description
_atom_site_fract_x
_atom_site_fract_y
_atom_site_fract_z
_atom_type_partial_charge
C1    C     C_R   0.501571 0.260091 0.500760 0.847471
C2    C     C_R   0.055403 0.489022 0.631234 0.029586
C3    C     C_R   0.125009 0.506879 0.508209 -0.075677
C4    C     C_R   0.064932 0.509423 0.384500 -0.222085
C5    C     C_R   0.938489 0.494122 0.380748 -0.238998
C6    C     C_R   0.871035 0.467779 0.499676 -0.080903
C7    C     C_R   0.420098 0.060080 0.586950 0.083496
C8    C     C_R   0.500967 0.127613 0.500316 -0.073112
C9    C     C_R   0.570681 0.066628 0.400623 -0.259642
C10   C     C_R   0.566681 0.937666 0.395724 -0.205420
C11   C     C_R   0.496345 0.870911 0.493817 -0.100753
C12   C     C_R   0.259423 0.505932 0.502429 0.850579
C13   C     C_R   0.418635 0.931860 0.583908 0.037340
C14   C     C_3   0.411511 0.918128 0.733857 -0.021839
C15   C     C_3   0.411793 0.059131 0.738002 -0.528328
C16   C     C_R   0.404506 0.444256 0.072989 0.204210
C17   C     C_R   0.587719 0.565140 0.069372 -0.243578
C18   C     C_R   0.587237 0.567556 0.924088 0.609125
C19   C     C_R   0.400931 0.452713 0.931358 0.058827
C20   C     C_3   0.347201 0.327335 0.915309 -0.559439
C21   C     C_3   0.358756 0.307917 0.068354 0.291561
C22   C     C_R   0.501075 0.739482 0.498730 0.877329
C23   C     C_R   0.738810 0.486496 0.499279 0.870117
C24   C     C_R   0.100034 0.516180 0.761317 -0.357781
C25   C     C_R   0.029046 0.486920 0.878105 0.455741
C26   C     C_R   0.918785 0.415316 0.867456 0.508745
C27   C     C_R   0.871201 0.396633 0.739615 -0.286338
C28   C     C_R   0.931943 0.448036 0.622843 0.029229
H1    H     H_    0.115392 0.526937 0.290249 0.197560
H2    H     H_    0.496878 0.877402 0.774685 0.181957
H3    H     H_    0.322455 0.097679 0.775426 0.203504
H4    H     H_    0.497438 0.097313 0.783987 0.194014
H5    H     H_    0.660199 0.613204 0.123008 0.157427
H6    H     H_    0.251201 0.331548 0.877226 0.192313
H7    H     H_    0.409726 0.272847 0.851327 0.224438
H8    H     H_    0.184103 0.569608 0.775550 0.210013
H9    H     H_    0.784342 0.344790 0.733170 0.182479
H10   H     H_    0.893162 0.506287 0.285296 0.185647
H11   H     H_    0.631074 0.118446 0.330061 0.161308
H12   H     H_    0.624021 0.890351 0.321632 0.151717
N1    N     N_R   0.499160 0.499140 0.142800 -0.141617
N2    N     N_R   0.499160 0.499180 0.857150 -0.155641
O1    O     O_R   0.500020 0.316790 0.614690 -0.631297
O2    O     O_R   0.500000 0.316760 0.385350 -0.629165
O3    O     O_R   0.316770 0.500020 0.614690 -0.629910
O4    O     O_R   0.316760 0.499980 0.385350 -0.617116
O5    O     O_R   0.500000 0.683240 0.614650 -0.602241
O6    O     O_R   0.499980 0.683210 0.385310 -0.619213
O7    O     O_R   0.683240 0.500020 0.614650 -0.564044
O8    O     O_R   0.683230 0.499980 0.385310 -0.630841
Zn1   Zn    Zn3+2 0.500010 0.500020 0.653130 0.972375
Zn2   Zn    Zn3+2 0.499990 0.499980 0.346870 0.942320
O9    O     O_3   0.677779 0.632151 0.847906 -0.557262
C29   C     C_3   0.698671 0.753498 0.898269 -0.381542
H13   H     H_    0.733846 0.814613 0.813906 0.197685
H14   H     H_    0.770557 0.752242 0.976262 0.150150
H15   H     H_    0.613157 0.796284 0.941095 0.136242
C30   C     C_3   0.227337 0.284304 0.133365 -0.404484
C31   C     C_3   0.220887 0.222413 0.273548 -0.893807
H16   H     H_    0.250150 0.123655 0.268516 0.249000
H17   H     H_    0.278499 0.273624 0.345501 0.294177
H18   H     H_    0.123393 0.222489 0.312692 0.247025
H19   H     H_    0.179546 0.374408 0.140071 0.246915
H20   H     H_    0.172934 0.222510 0.066503 0.192330
C32   C     C_3   0.452397 0.202106 0.096931 -0.366870
C33   C     C_3   0.587893 0.229880 0.055429 -0.849946
H21   H     H_    0.641327 0.142601 0.064355 0.226684
H22   H     H_    0.597945 0.264136 0.949534 0.267343
H23   H     H_    0.628858 0.299431 0.124183 0.295463
H24   H     H_    0.450177 0.177059 0.204796 0.249842
H25   H     H_    0.421270 0.116754 0.043753 0.196144
O10   O     O_3   0.069326 0.529119 0.000996 -0.644429
C34   C     C_3   0.997783 0.632629 0.038226 -0.356292
H26   H     H_    0.901821 0.602529 0.068283 0.204696
H27   H     H_    0.995849 0.704525 0.955899 0.166369
H28   H     H_    0.040033 0.677438 0.126877 0.177437
O11   O     O_3   0.846470 0.378557 0.979020 -0.614968
C35   C     C_3   0.910860 0.291412 0.057461 -0.354921
H29   H     H_    0.973040 0.340553 0.127161 0.214574
H30   H     H_    0.962060 0.222582 0.994749 0.139718
H31   H     H_    0.843251 0.237510 0.122064 0.183616
C36   C     C_3   0.291034 0.853563 0.785637 -0.356840
C37   C     C_3   0.287218 0.846067 0.939733 -0.879649
H32   H     H_    0.201751 0.795484 0.974983 0.259991
H33   H     H_    0.368634 0.794832 0.977024 0.254628
H34   H     H_    0.286717 0.941200 0.982953 0.254456
H35   H     H_    0.208055 0.903284 0.749642 0.205053
H36   H     H_    0.287631 0.757421 0.745524 0.216024

loop_
_geom_bond_atom_site_label_1
_geom_bond_atom_site_label_2
_ccdc_geom_bond_type
C33   H22   S    
C16   C21   S    
C1    C8    S    
C34   H26   S    
C22   O6    A    
C19   C20   S    
C7    C8    A    
O9    C29   S    
C26   C27   A    
C24   H8    S    
C18   N2    A    
C5    C6    A    
C35   H30   S    
C23   O7    A    
C33   H23   S    
O3    Zn1   S    
C32   H24   S    
O4    Zn2   S    
C9    H11   S    
C10   H12   S    
C3    C12   S    
C18   O9    S    
C20   H7    S    
C1    O1    A    
C6    C28   A    
C8    C9    A    
O7    Zn1   S    
O8    Zn2   S    
C9    C10   A    
N1    Zn2   S    
C4    H1    S    
C19   N2    A    
O11   C35   S    
N2    Zn1   S    
C20   H6    S    
O2    Zn2   S    
C7    C15   S    
C22   O5    A    
C31   H16   S    
C13   C14   S    
C34   H27   S    
C17   H5    S    
C14   H2    S    
C30   H20   S    
C29   H14   S    
C31   H17   S    
C26   O11   S    
C15   H4    S    
C24   C25   A    
C12   O4    A    
C35   H29   S    
C4    C5    A    
C23   O8    A    
O5    Zn1   S    
C25   C26   A    
C32   H25   S    
C1    O2    A    
C37   H32   S    
C7    C13   A    
C17   C18   A    
C25   O10   S    
C37   H33   S    
C32   C33   S    
C2    C24   A    
C34   H28   S    
C14   C36   S    
C3    C4    A    
C30   H19   S    
C29   H13   S    
C31   H18   S    
C21   C32   S    
O10   C34   S    
C15   H3    S    
C12   O3    A    
C11   C22   S    
C2    C3    A    
C30   C31   S    
C21   C30   S    
C11   C13   A    
C35   H31   S    
O1    Zn1   S    
C27   H9    S    
C16   C19   A    
C36   H36   S    
C6    C23   S    
C33   H21   S    
C17   N1    A    
C10   C11   A    
O6    Zn2   S    
C37   H34   S    
C20   C21   S    
C36   C37   S    
C27   C28   A    
C14   C15   S    
C2    C28   A    
C5    H10   S    
C16   N1    A    
C36   H35   S    
C29   H15   S    
