data_mof_unit_4682.cif
_audit_creation_date              2012-12-10T20:34:54-0500
_audit_creation_method            fapswitch 2.2
_symmetry_space_group_name_H-M    P1
_symmetry_Int_Tables_number       1
_space_group_crystal_system       triclinic
_cell_length_a                    10.733656
_cell_length_b                    10.727063
_cell_length_c                    9.888093
_cell_angle_alpha                 91.356266
_cell_angle_beta                  89.576365
_cell_angle_gamma                 92.645747
_cell_volume                      1136.96612233

loop_
_atom_site_label
_atom_site_type_symbol
_atom_type_description
_atom_site_fract_x
_atom_site_fract_y
_atom_site_fract_z
_atom_type_partial_charge
C1    C     C_R   0.493219 0.259513 0.497998 0.937232
C2    C     C_3   0.878572 0.496586 0.503686 -0.060043
C3    C     C_3   0.935126 0.632182 0.475918 -0.220202
C4    C     C_3   0.926575 0.404677 0.392526 -0.430880
C5    C     C_R   0.456540 0.065013 0.615153 0.015379
C6    C     C_R   0.465663 0.127155 0.493679 -0.187348
C7    C     C_R   0.438032 0.058719 0.372178 0.314235
C8    C     C_R   0.431191 0.927958 0.375008 -0.134302
C9    C     C_R   0.456983 0.868390 0.497991 -0.267934
C10   C     C_R   0.451295 0.938219 0.617297 0.098356
C11   C     C_3   0.521155 0.936848 0.746225 0.299676
C12   C     C_R   0.257864 0.501867 0.500643 0.909488
C13   C     C_3   0.528478 0.078436 0.743645 -0.435140
C14   C     C_R   0.430458 0.412220 0.069879 0.262895
C15   C     C_R   0.575943 0.580307 0.074163 -0.108461
C16   C     C_R   0.575918 0.580982 0.930904 0.520215
C17   C     C_R   0.433267 0.408868 0.927068 0.057231
C18   C     C_3   0.295124 0.384677 0.922659 -0.272874
C19   C     C_3   0.292465 0.394981 0.076346 -0.480411
C20   C     C_R   0.489751 0.739378 0.500437 0.946720
C21   C     C_R   0.742032 0.495503 0.500613 0.875533
C22   C     C_3   0.070315 0.485912 0.652031 -0.270904
C23   C     C_3   0.930978 0.446907 0.642054 0.190309
C24   C     C_3   0.075776 0.624723 0.443099 -0.403318
C25   C     C_3   0.068437 0.392872 0.409888 -0.433481
C26   C     C_3   0.121677 0.502499 0.502790 0.001350
H1    H     H_    0.907302 0.438272 0.289687 0.271806
H2    H     H_    0.092687 0.622279 0.331798 0.240115
H3    H     H_    0.613553 0.895962 0.734899 0.165308
H4    H     H_    0.475594 0.124066 0.826491 0.261757
H5    H     H_    0.624905 0.118160 0.727795 0.184033
H6    H     H_    0.634926 0.646886 0.130484 0.201956
H7    H     H_    0.114594 0.405496 0.696484 0.149247
H8    H     H_    0.249573 0.461473 0.874653 0.176947
H9    H     H_    0.247815 0.480688 0.114223 0.204429
H10   H     H_    0.261134 0.309646 0.130134 0.266608
H11   H     H_    0.925180 0.342972 0.632789 0.136627
H12   H     H_    0.128188 0.710254 0.479664 0.220465
H13   H     H_    0.925413 0.687980 0.571571 0.187202
H14   H     H_    0.112922 0.393571 0.308065 0.216774
H15   H     H_    0.087362 0.301814 0.455507 0.196881
H16   H     H_    0.878553 0.310862 0.400539 0.181539
N1    N     N_R   0.499150 0.499140 0.142800 -0.151397
N2    N     N_R   0.499150 0.499180 0.857150 -0.152228
O1    O     O_R   0.500020 0.316790 0.614690 -0.595171
O2    O     O_R   0.500000 0.316760 0.385350 -0.574196
O3    O     O_R   0.314800 0.500000 0.614670 -0.614370
O4    O     O_R   0.314790 0.499960 0.385330 -0.631361
O5    O     O_R   0.500000 0.683240 0.614650 -0.562336
O6    O     O_R   0.499980 0.683210 0.385310 -0.624490
O7    O     O_R   0.685210 0.500040 0.614670 -0.535142
O8    O     O_R   0.685200 0.500000 0.385330 -0.614417
Zn1   Zn    Zn3+2 0.500010 0.500020 0.653130 1.067333
Zn2   Zn    Zn3+2 0.499990 0.499980 0.346870 1.014409
C27   C     C_2   0.099190 0.598401 0.749250 1.000504
O9    O     O_2   0.156611 0.692157 0.710908 -0.615324
O10   O     O_R   0.068544 0.590526 0.886730 -0.731777
H17   H     H_    0.095578 0.668399 0.940987 0.367093
C28   C     C_2   0.871720 0.702032 0.365942 0.951063
O11   O     O_2   0.812827 0.793682 0.396150 -0.619353
O12   O     O_R   0.882502 0.663786 0.230323 -0.775381
H18   H     H_    0.842545 0.722550 0.166534 0.371950
Cl1   Cl    Cl    0.416985 0.129969 0.214547 -0.552250
C29   C     C_2   0.407026 0.856844 0.247386 1.105948
O13   O     O_2   0.486969 0.857695 0.158892 -0.536750
O14   O     O_R   0.296245 0.784476 0.231667 -0.806902
H19   H     H_    0.292290 0.737392 0.141532 0.348965
Cl2   Cl    Cl    0.420198 0.876207 0.874887 -0.462154
Cl3   Cl    Cl    0.676109 0.689816 0.851496 -0.518514
C30   C     C_2   0.256623 0.257651 0.863153 0.986474
O15   O     O_2   0.217731 0.173131 0.935254 -0.540391
O16   O     O_R   0.261484 0.238412 0.723214 -0.828066
H20   H     H_    0.226015 0.152890 0.693872 0.348307
Cl4   Cl    Cl    0.851694 0.462564 0.802283 -0.505090

loop_
_geom_bond_atom_site_label_1
_geom_bond_atom_site_label_2
_ccdc_geom_bond_type
C18   C30   S    
C24   H12   S    
C27   O9    D    
C15   H6    S    
C6    C7    A    
C20   O5    A    
C11   C13   S    
C9    C10   A    
C16   N2    A    
N1    Zn2   S    
C2    C4    S    
C3    C28   S    
O3    Zn1   S    
C12   O4    A    
C1    O1    A    
C29   O13   D    
O2    Zn2   S    
C2    C21   S    
C17   C18   S    
C3    C24   S    
C17   N2    A    
C15   N1    A    
C28   O11   D    
O6    Zn2   S    
O4    Zn2   S    
C18   H8    S    
C14   C17   A    
C7    Cl1   S    
O10   H17   S    
C22   C27   S    
C4    H16   S    
C8    C29   S    
C12   O3    A    
O5    Zn1   S    
C5    C6    A    
N2    Zn1   S    
O8    Zn2   S    
C4    C25   S    
C2    C3    S    
C19   H10   S    
C27   O10   S    
C25   H14   S    
C12   C26   S    
O12   H18   S    
C1    O2    A    
C28   O12   S    
C21   O7    A    
C7    C8    A    
C10   C11   S    
C23   Cl4   S    
O1    Zn1   S    
C1    C6    S    
C24   H2    S    
C13   H4    S    
C5    C10   A    
C30   O15   D    
O14   H19   S    
C11   Cl2   S    
C11   H3    S    
O16   H20   S    
C20   O6    A    
C18   C19   S    
C22   C26   S    
C25   H15   S    
C2    C23   S    
C3    H13   S    
C22   H7    S    
C13   H5    S    
C22   C23   S    
C8    C9    A    
C19   H9    S    
C4    H1    S    
C9    C20   S    
C25   C26   S    
C23   H11   S    
C5    C13   S    
C14   C19   S    
C30   O16   S    
C21   O8    A    
C16   Cl3   S    
C15   C16   A    
C24   C26   S    
C14   N1    A    
O7    Zn1   S    
C29   O14   S    
