data_mof_unit_4866.cif
_audit_creation_date              2013-03-05T15:40:28-0500
_audit_creation_method            fapswitch 2.2
_symmetry_space_group_name_H-M    P1
_symmetry_Int_Tables_number       1
_space_group_crystal_system       triclinic
_cell_length_a                    7.469711
_cell_length_b                    8.719133
_cell_length_c                    13.471643
_cell_angle_alpha                 94.513376
_cell_angle_beta                  77.73097
_cell_angle_gamma                 103.153632
_cell_volume                      834.442170801

loop_
_atom_site_label
_atom_site_type_symbol
_atom_site_description
_atom_site_fract_x
_atom_site_fract_y
_atom_site_fract_z
_atom_type_partial_charge
O1    O     O_R   0.383920 0.714220 0.492660 -0.582046
O2    O     O_R   0.685730 0.742660 0.511730 -0.534867
C1    C     C_R   0.543447 0.799685 0.506135 0.752308
O3    O     O_R   0.275440 0.478800 0.636790 -0.503628
O4    O     O_R   0.577250 0.507240 0.655860 -0.558097
C2    C     C_R   0.398625 0.490515 0.694336 0.855415
Cu1   Cu    Cu3+1 0.321300 0.483160 0.488710 1.103945
Cu2   Cu    Cu3+1 0.678700 0.516840 0.511290 1.107431
O5    O     O_R   0.314270 0.257340 0.488270 -0.532843
O6    O     O_R   0.616080 0.285780 0.507340 -0.566986
O7    O     O_R   0.422750 0.492760 0.344140 -0.597149
O8    O     O_R   0.724560 0.521200 0.363210 -0.606885
C3    C     C_R   0.455113 0.200218 0.497680 0.907706
C4    C     C_R   0.600901 0.512932 0.306428 0.775327
C5    C     C_R   0.884151 0.632632 0.047318 -0.179186
H1    H     H_    0.955260 0.618996 0.192121 0.162841
H2    H     H_    0.906090 0.742090 0.866183 0.166780
H3    H     H_    0.025588 0.691724 0.013340 0.130629
C6    C     C_R   0.658434 0.531854 0.196331 -0.052267
C7    C     C_R   0.152506 0.380438 0.844649 0.181439
C8    C     C_R   0.104305 0.335051 0.945823 0.310674
C9    C     C_R   0.239278 0.366509 0.007200 0.198374
C10   C     C_R   0.418119 0.469236 0.973117 -0.087032
C11   C     C_R   0.460686 0.525850 0.872731 -0.012006
C12   C     C_R   0.557636 0.518593 0.034276 0.137903
C13   C     C_R   0.740744 0.601019 0.990957 0.148147
C14   C     C_R   0.773328 0.663939 0.895774 -0.159538
C15   C     C_R   0.631003 0.636300 0.840989 -0.038199
C16   C     C_R   0.517468 0.501630 0.139185 -0.167690
C17   C     C_R   0.844288 0.592379 0.149075 -0.100098
C18   C     C_R   0.334192 0.470249 0.805755 -0.254767
H4    H     H_    0.374128 0.477009 0.179076 0.200570
H5    H     H_    0.657711 0.702534 0.772951 0.182659
C19   C     C_2   0.559794 0.966066 0.522194 0.133907
C20   C     C_2   0.437318 0.033057 0.491263 -0.378070
H6    H     H_    0.329795 0.964728 0.452838 0.195301
N1    N     N_2   0.947230 0.542220 0.528320 0.035578
N2    N     N_2   0.052770 0.457780 0.471680 -0.173198
H7    H     H_    0.985333 0.373470 0.426325 0.227344
N3    N     N_R   0.029953 0.664368 0.586900 0.279596
O9    O     O_R   0.044572 0.807732 0.561133 -0.317917
O10   O     O_R   0.020119 0.641005 0.682054 -0.353447
N4    N     N_R   0.021511 0.319095 0.779783 0.171169
O11   O     O_R   0.054902 0.207527 0.713117 -0.295488
O12   O     O_R   0.853375 0.346701 0.802626 -0.264044
N5    N     N_R   0.197718 0.277930 0.097770 0.102120
O13   O     O_R   0.299993 0.179391 0.106931 -0.394450
O14   O     O_R   0.047295 0.283292 0.166374 -0.361194
O15   O     O_3   0.919772 0.266445 0.987081 -0.517167
C21   C     C_3   0.888226 0.100959 0.974210 0.121320
H8    H     H_    0.977019 0.051369 0.014253 0.168183
H9    H     H_    0.916192 0.063963 0.892487 0.171846
C22   C     C_3   0.683266 0.032906 0.019522 -0.652663
H10   H     H_    0.591717 0.072083 0.976094 0.277480
H11   H     H_    0.654606 0.902625 0.016590 0.169356
H12   H     H_    0.649385 0.073632 0.100203 0.273329
N6    N     N_R   0.697077 0.051577 0.578092 0.156966
O16   O     O_R   0.874982 0.063630 0.540776 -0.269245
O17   O     O_R   0.643508 0.110827 0.668315 -0.295476

loop_
_geom_bond_atom_site_label_1
_geom_bond_atom_site_label_2
_geom_bond_distance
_ccdc_geom_bond_type
C5    H3    1.083986 S    
C21   H9    1.112109 S    
C10   C11   1.422862 A    
N1    N2    1.290685 D    
C19   N6    1.437496 S    
C20   H6    1.085523 S    
Cu2   O8    1.952925 S    
N4    O11   1.301085 A    
C8    O15   1.384995 S    
O2    C1    1.289541 A    
N6    O16   1.300215 A    
C11   C18   1.423697 A    
Cu1   Cu2   2.698185 S    
O1    Cu1   1.960924 S    
C22   H10   1.111043 S    
Cu1   O7    1.934922 S    
N4    O12   1.300639 A    
C13   C14   1.386265 A    
N2    H7    1.029109 S    
C10   C12   1.433571 A    
O3    Cu1   1.952925 S    
Cu2   O6    1.960924 S    
N3    O9    1.298075 A    
C9    N5    1.435199 S    
Cu1   N2    2.027455 S    
O8    C4    1.305704 A    
C15   H5    1.080095 S    
C3    C20   1.430493 S    
C16   H4    1.072517 S    
C2    C18   1.487231 S    
C22   H11   1.106164 S    
C12   C16   1.393479 A    
O4    C2    1.303700 A    
C19   C20   1.339894 D    
O7    C4    1.296193 A    
N5    O14   1.301777 A    
N6    O17   1.301110 A    
C21   C22   1.521509 S    
Cu2   N1    2.027456 S    
H1    C17   1.082968 S    
N1    N3    1.383597 S    
H2    C14   1.083454 S    
C7    N4    1.434846 S    
C7    C8    1.398369 A    
C5    C17   1.394882 A    
O3    C2    1.306161 A    
O15   C21   1.410957 S    
C22   H12   1.111198 S    
C14   C15   1.386318 A    
Cu1   O5    1.957246 S    
O4    Cu2   1.934923 S    
N5    O13   1.300982 A    
C5    C13   1.406530 A    
O5    C3    1.294624 A    
C1    C19   1.430888 S    
C21   H8    1.112274 S    
C12   C13   1.416772 A    
C8    C9    1.402904 A    
C6    C17   1.398180 A    
C4    C6    1.465294 S    
O6    C3    1.289252 A    
C9    C10   1.434273 A    
O2    Cu2   1.957246 S    
C11   C15   1.415915 A    
N3    O10   1.297830 A    
O1    C1    1.294112 A    
C7    C18   1.417128 A    
C6    C16   1.398987 A    
