data_mof_unit_4412.cif
_audit_creation_date              2012-12-11T14:56:34-0500
_audit_creation_method            fapswitch 2.2
_symmetry_space_group_name_H-M    P1
_symmetry_Int_Tables_number       1
_space_group_crystal_system       triclinic
_cell_length_a                    10.531806
_cell_length_b                    10.665811
_cell_length_c                    17.128895
_cell_angle_alpha                 80.353245
_cell_angle_beta                  89.731142
_cell_angle_gamma                 119.098135
_cell_volume                      1649.15987077

loop_
_atom_site_label
_atom_site_type_symbol
_atom_type_description
_atom_site_fract_x
_atom_site_fract_y
_atom_site_fract_z
_atom_type_partial_charge
C1    C     C_R   0.277809 0.888119 0.132820 0.556434
C2    C     C_R   0.794787 0.412157 0.265157 -0.147880
C3    C     C_R   0.787024 0.401498 0.186432 -0.133829
C4    C     C_R   0.651426 0.341761 0.156658 0.004874
C5    C     C_1   0.684247 0.832097 0.201962 -0.021114
C6    C     C_1   0.702704 0.808003 0.270543 -0.022856
C7    C     C_1   0.226088 0.853223 0.215361 -0.035484
C8    C     C_1   0.177670 0.833814 0.282874 -0.027613
C9    C     C_1   0.643556 0.322462 0.777995 -0.008886
C10   C     C_1   0.650689 0.343974 0.707446 -0.004440
C11   C     C_R   0.608413 0.713580 0.803978 -0.112150
C12   C     C_R   0.636344 0.280368 0.086129 0.544164
C13   C     C_R   0.581579 0.701707 0.726698 0.070585
C14   C     C_R   0.663288 0.823916 0.665066 0.027701
C15   C     C_R   0.759024 0.960203 0.683811 -0.145897
C16   C     C_R   0.767584 0.975112 0.762837 -0.117422
C17   C     C_R   0.689606 0.851206 0.823079 0.014430
C18   C     C_R   0.214935 0.974419 0.757610 0.080957
C19   C     C_R   0.202696 0.963938 0.679563 -0.102069
C20   C     C_R   0.182234 0.837348 0.654432 -0.001601
C21   C     C_R   0.208275 0.736421 0.704370 -0.132860
C22   C     C_R   0.247523 0.760342 0.780393 -0.146025
C23   C     C_R   0.643003 0.855961 0.124465 0.549227
C24   C     C_R   0.244874 0.876149 0.808691 0.018811
C25   C     C_R   0.710906 0.773069 0.353459 0.551438
C26   C     C_R   0.688126 0.394833 0.394933 0.554054
C27   C     C_R   0.107753 0.812199 0.359759 0.549442
C28   C     C_R   0.676715 0.799729 0.585684 0.560000
C29   C     C_R   0.678181 0.381514 0.624387 0.557867
C30   C     C_R   0.105181 0.805467 0.583912 0.555596
C31   C     C_R   0.282052 0.900145 0.888333 0.567205
C32   C     C_R   0.637299 0.284587 0.860828 0.546394
C33   C     C_R   0.647623 0.866814 0.899547 0.542572
C34   C     C_R   0.525547 0.308923 0.203663 -0.111952
C35   C     C_R   0.532633 0.321627 0.282992 0.062502
C36   C     C_R   0.667614 0.367260 0.314946 0.032840
Cr1   Cr    Cr6+3 0.402240 0.783890 0.019450 1.037537
Cr2   Cr    Cr6+3 0.382360 0.097900 0.991800 1.059267
Cr3   Cr    Cr6+3 0.715380 0.118170 0.988700 1.048660
Cr4   Cr    Cr6+3 0.936650 0.882420 0.465510 1.065965
Cr5   Cr    Cr6+3 0.605770 0.565620 0.493360 1.086491
Cr6   Cr    Cr6+3 0.921340 0.550490 0.496380 1.043342
H1    H     H_    0.419840 0.263731 0.180624 0.158745
H2    H     H_    0.186517 0.046171 0.641787 0.179374
H3    H     H_    0.194269 0.638806 0.685683 0.170999
H4    H     H_    0.271734 0.684122 0.818254 0.167382
H5    H     H_    0.901770 0.456510 0.286776 0.157104
H6    H     H_    0.885770 0.430406 0.150444 0.155549
H7    H     H_    0.546921 0.617348 0.850213 0.162043
H8    H     H_    0.824085 0.054975 0.637449 0.148105
H9    H     H_    0.828621 0.083474 0.776475 0.171554
O1    O     O_R   0.521780 0.757110 0.108900 -0.507009
O2    O     O_R   0.513330 0.228330 0.898660 -0.494138
O3    O     O_R   0.739230 0.266130 0.888050 -0.507304
O4    O     O_R   0.712580 0.991850 0.918770 -0.493913
O5    O     O_3   0.499990 0.999980 0.999980 -0.301372
O6    O     O_R   0.083770 0.911170 0.376030 -0.482527
O7    O     O_R   0.808770 0.880340 0.383890 -0.485507
O8    O     O_R   0.584340 0.689460 0.394160 -0.486665
O9    O     O_R   0.614320 0.443940 0.423590 -0.488106
O10   O     O_R   0.805020 0.410040 0.421340 -0.523618
O11   O     O_R   0.049240 0.685450 0.403290 -0.505968
O12   O     O_R   0.275160 0.783810 0.101120 -0.482864
O13   O     O_R   0.077520 0.903010 0.551800 -0.513039
O14   O     O_R   0.802980 0.872780 0.546830 -0.498958
O15   O     O_R   0.578090 0.681300 0.569920 -0.474555
O16   O     O_R   0.608530 0.436370 0.586530 -0.467895
O17   O     O_R   0.798770 0.401880 0.597100 -0.513911
O18   O     O_R   0.043450 0.677890 0.566230 -0.492831
O19   O     O_3   0.821250 0.666180 0.485090 -0.292303
O20   O     O_R   0.237900 0.972600 0.090980 -0.494923
O21   O     O_R   0.511190 0.220540 0.061620 -0.523072
O22   O     O_R   0.736920 0.257720 0.063840 -0.507990
O23   O     O_R   0.710450 0.984050 0.081720 -0.488846
O24   O     O_R   0.524090 0.765520 0.933110 -0.532881
O25   O     O_R   0.277300 0.791600 0.938160 -0.499015
O26   O     O_R   0.240210 0.981010 0.915190 -0.460329
I1    I     I_    0.334073 0.262037 0.349558 -0.308535
I2    I     I_    0.401103 0.498433 0.715189 -0.341348
I3    I     I_    0.145895 0.118477 0.790051 -0.317715

loop_
_geom_bond_atom_site_label_1
_geom_bond_atom_site_label_2
_ccdc_geom_bond_type
C33   O4    A    
C13   I2    S    
C30   O13   A    
C35   C36   A    
C16   H9    S    
C31   O25   A    
C7    C8    T    
Cr5   O16   S    
C20   C30   S    
C1    O20   A    
Cr4   O19   S    
C18   C24   A    
C26   O10   A    
C34   C35   A    
C5    C6    T    
Cr3   O23   S    
Cr3   O3    S    
C15   C16   A    
C3    H6    S    
Cr6   O19   S    
C18   C19   A    
C15   H8    S    
C9    C32   S    
C29   O16   A    
Cr1   O5    S    
C33   O24   A    
Cr3   O4    S    
C19   C20   A    
C16   C17   A    
C12   O22   A    
C4    C12   S    
C9    C10   T    
Cr6   O11   S    
Cr1   O24   S    
C13   C14   A    
Cr6   O17   S    
C17   C33   S    
C1    O12   A    
C32   O3    A    
Cr1   O12   S    
C31   O26   A    
C21   H3    S    
Cr2   O21   S    
Cr4   O7    S    
Cr5   O8    S    
C27   O6    A    
Cr1   O1    S    
Cr6   O18   S    
C28   O15   A    
C11   H7    S    
C27   O11   A    
C29   O17   A    
Cr3   O5    S    
C5    C23   S    
Cr6   O10   S    
C26   C36   S    
C22   H4    S    
Cr1   O25   S    
Cr4   O14   S    
C22   C24   A    
C25   O7    A    
C23   O23   A    
C3    C4    A    
C32   O2    A    
C30   O18   A    
C19   H2    S    
C2    C36   A    
Cr2   O20   S    
C11   C17   A    
Cr4   O6    S    
C1    C7    S    
C34   H1    S    
Cr5   O9    S    
Cr5   O15   S    
Cr2   O26   S    
C2    H5    S    
C35   I1    S    
Cr4   O13   S    
C2    C3    A    
C24   C31   S    
C11   C13   A    
C10   C29   S    
C23   O1    A    
Cr2   O2    S    
C28   O14   A    
Cr3   O22   S    
C4    C34   A    
C12   O21   A    
C6    C25   S    
Cr2   O5    S    
C20   C21   A    
C18   I3    S    
C8    C27   S    
C14   C15   A    
C25   O8    A    
C14   C28   S    
C21   C22   A    
C26   O9    A    
Cr5   O19   S    
