data_mof_unit_3024.cif
_audit_creation_date              2012-12-10T20:29:23-0500
_audit_creation_method            fapswitch 2.2
_symmetry_space_group_name_H-M    P1
_symmetry_Int_Tables_number       1
_space_group_crystal_system       triclinic
_cell_length_a                    18.735323
_cell_length_b                    18.400837
_cell_length_c                    18.895071
_cell_angle_alpha                 109.291226
_cell_angle_beta                  109.766624
_cell_angle_gamma                 108.809826
_cell_volume                      5047.71543978

loop_
_atom_site_label
_atom_site_type_symbol
_atom_type_description
_atom_site_fract_x
_atom_site_fract_y
_atom_site_fract_z
_atom_type_partial_charge
C1    C     C_R   0.380779 0.501806 0.380385 0.876546
C2    C     C_R   0.734482 0.834575 0.813031 -0.193995
C3    C     C_R   0.323718 0.309700 0.766688 -0.133373
C4    C     C_R   0.075706 0.326425 0.814765 -0.308383
C5    C     C_R   0.995953 0.313457 0.809633 -0.066378
C6    C     C_R   0.917394 0.237833 0.740954 0.008529
C7    C     C_R   0.920385 0.175501 0.678130 -0.257325
C8    C     C_R   0.000240 0.188377 0.684096 -0.066721
C9    C     C_R   0.078679 0.264061 0.752278 0.025605
C10   C     C_R   0.787356 0.163053 0.751721 -0.172884
C11   C     C_R   0.706630 0.150145 0.743613 -0.133063
C12   C     C_R   0.668996 0.196601 0.714504 0.199652
C13   C     C_R   0.814586 0.833870 0.578185 0.009257
C14   C     C_R   0.713572 0.256910 0.694191 -0.160814
C15   C     C_R   0.794511 0.270177 0.702823 -0.174855
C16   C     C_R   0.831854 0.223577 0.731856 0.130938
C17   C     C_R   0.813334 0.814087 0.499250 -0.084445
C18   C     C_R   0.745144 0.736425 0.421571 0.007757
C19   C     C_R   0.687567 0.672614 0.427212 -0.219081
C20   C     C_R   0.689478 0.689402 0.505359 -0.099698
C21   C     C_R   0.750593 0.771955 0.581310 0.023588
C22   C     C_R   0.647440 0.695929 0.268311 0.529432
C23   C     C_R   0.635026 0.680947 0.185845 -0.247444
C24   C     C_R   0.700737 0.682957 0.166267 -0.192963
C25   C     C_R   0.622499 0.621010 0.502947 0.899669
C26   C     C_R   0.780137 0.702044 0.229072 -0.115901
C27   C     C_R   0.795065 0.721552 0.312457 -0.211526
C28   C     C_R   0.729766 0.719627 0.333462 0.036064
C29   C     C_R   0.399442 0.796648 0.522692 -0.210816
C30   C     C_R   0.342496 0.711670 0.451911 -0.184048
C31   C     C_R   0.372774 0.667233 0.403895 0.140844
C32   C     C_R   0.460897 0.708752 0.427837 -0.158713
C33   C     C_R   0.517660 0.794243 0.497986 -0.101733
C34   C     C_R   0.487363 0.838922 0.545672 0.185679
C35   C     C_R   0.245961 0.575378 0.257774 -0.251835
C36   C     C_R   0.621968 0.501011 0.619316 0.886672
C37   C     C_R   0.183953 0.494631 0.183020 -0.080202
C38   C     C_R   0.183289 0.415050 0.174485 0.039175
C39   C     C_R   0.250816 0.420843 0.240336 -0.219150
C40   C     C_R   0.313793 0.502025 0.314908 -0.107455
C41   C     C_R   0.310413 0.579994 0.325269 0.000316
C42   C     C_R   0.071464 0.253955 0.105398 0.529154
C43   C     C_R   0.005776 0.172927 0.030266 -0.243145
C44   C     C_R   0.992345 0.160242 0.949080 -0.193478
C45   C     C_R   0.042515 0.228669 0.941587 -0.118471
C46   C     C_R   0.103039 0.311806 0.014562 -0.229960
C47   C     C_R   0.379695 0.379463 0.499437 0.884119
C48   C     C_R   0.116814 0.326325 0.097091 0.031070
C49   C     C_R   0.234326 0.535559 0.566836 0.562647
C50   C     C_R   0.242469 0.462685 0.567895 -0.222726
C51   C     C_R   0.227847 0.395150 0.493206 0.054903
C52   C     C_R   0.203109 0.400294 0.417040 -0.144040
C53   C     C_R   0.189204 0.469590 0.414060 -0.168465
C54   C     C_R   0.203855 0.536656 0.488358 -0.234025
C55   C     C_R   0.175913 0.253889 0.493125 -0.253809
C56   C     C_R   0.185526 0.182636 0.495856 -0.114871
C57   C     C_R   0.258881 0.174949 0.499693 -0.013753
C58   C     C_R   0.713852 0.875582 0.765176 -0.204484
C59   C     C_R   0.323614 0.240647 0.501650 0.024168
C60   C     C_R   0.313281 0.312317 0.498298 -0.125912
C61   C     C_R   0.239841 0.319835 0.495172 -0.004561
C62   C     C_R   0.326187 0.102470 0.570365 -0.087015
C63   C     C_R   0.336389 0.029305 0.565734 -0.156013
C64   C     C_R   0.288168 0.950291 0.487168 -0.125266
C65   C     C_R   0.228713 0.943824 0.413394 -0.125661
C66   C     C_R   0.217600 0.016506 0.417938 -0.167485
C67   C     C_R   0.266720 0.096388 0.496356 0.174095
C68   C     C_R   0.772168 0.510783 0.602851 -0.098430
C69   C     C_R   0.719701 0.855160 0.690191 -0.232352
C70   C     C_R   0.836385 0.502320 0.586692 -0.262094
C71   C     C_R   0.897208 0.491704 0.641822 -0.231543
C72   C     C_R   0.898029 0.493770 0.717382 0.448372
C73   C     C_R   0.827940 0.496161 0.732030 -0.041239
C74   C     C_R   0.763621 0.502728 0.671904 0.050574
C75   C     C_R   0.692288 0.502324 0.682567 -0.071423
C76   C     C_R   0.684133 0.497273 0.751267 -0.234287
C77   C     C_R   0.745893 0.491913 0.810541 -0.237316
C78   C     C_R   0.817450 0.492004 0.802742 -0.116424
C79   C     C_R   0.000100 0.878791 0.380843 0.868061
C80   C     C_R   0.748212 0.794864 0.663271 0.036312
C81   C     C_R   0.880002 0.878635 0.498591 0.908098
C82   C     C_R   0.000299 0.120979 0.619417 0.887752
C83   C     C_R   0.119822 0.118789 0.498460 0.889730
C84   C     C_R   0.997762 0.379508 0.877914 0.919303
C85   C     C_R   0.119459 0.496507 0.117263 0.873848
C86   C     C_R   0.999286 0.620713 0.118849 0.870910
C87   C     C_R   0.881078 0.494017 0.873681 0.940783
C88   C     C_R   0.106202 0.755690 0.542218 0.149361
C89   C     C_R   0.094918 0.775548 0.474979 -0.102316
C90   C     C_R   0.015072 0.726015 0.397420 0.075845
C91   C     C_R   0.773756 0.756794 0.713863 0.478673
C92   C     C_R   0.947059 0.654331 0.386839 -0.196860
C93   C     C_R   0.957268 0.635343 0.454205 -0.158748
C94   C     C_R   0.036494 0.685538 0.531587 -0.145962
C95   C     C_R   0.002057 0.676445 0.254382 -0.252294
C96   C     C_R   0.000164 0.688071 0.184711 -0.081984
C97   C     C_R   0.003695 0.764709 0.181807 -0.009109
C98   C     C_R   0.003352 0.826212 0.247848 -0.272803
C99   C     C_R   0.004228 0.814109 0.317238 -0.081009
C100  C     C_R   0.007103 0.740300 0.322897 -0.008908
C101  C     C_R   0.078499 0.863236 0.135398 -0.160180
C102  C     C_R   0.763308 0.774327 0.787714 0.077167
C103  C     C_R   0.088735 0.879226 0.071155 -0.139077
C104  C     C_R   0.031683 0.815482 0.984147 -0.155864
C105  C     C_R   0.963246 0.736561 0.961330 -0.130990
C106  C     C_R   0.951053 0.721415 0.025129 -0.085246
C107  C     C_R   0.010222 0.783528 0.112933 0.128737
C108  C     C_R   0.299118 0.276089 0.815999 -0.177287
C109  C     C_R   0.219480 0.261764 0.813096 0.168916
C110  C     C_R   0.163947 0.280309 0.758676 0.113078
C111  C     C_R   0.189468 0.314226 0.709539 -0.215438
C112  C     C_R   0.269358 0.329389 0.714157 -0.128542
H1    H     H_    0.727425 0.849202 0.869907 0.153891
H2    H     H_    0.690006 0.669463 0.102210 0.151150
H3    H     H_    0.830056 0.701853 0.212786 0.159655
H4    H     H_    0.857413 0.737976 0.360929 0.131832
H5    H     H_    0.374786 0.829708 0.558932 0.116653
H6    H     H_    0.274533 0.680742 0.433932 0.126985
H7    H     H_    0.485255 0.675781 0.391246 0.133931
H8    H     H_    0.584905 0.826241 0.514118 0.139568
H9    H     H_    0.243543 0.635183 0.263758 0.155307
H10   H     H_    0.254441 0.361518 0.233485 0.157221
H11   H     H_    0.692067 0.922354 0.785700 0.147876
H12   H     H_    0.966673 0.118848 0.035181 0.142198
H13   H     H_    0.943962 0.096787 0.891991 0.148165
H14   H     H_    0.034146 0.216454 0.878741 0.168600
H15   H     H_    0.140523 0.364402 0.006941 0.127100
H16   H     H_    0.192231 0.589687 0.485062 0.130186
H17   H     H_    0.263073 0.460368 0.627633 0.134637
H18   H     H_    0.194342 0.350600 0.360080 0.161914
H19   H     H_    0.167575 0.471616 0.354233 0.182098
H20   H     H_    0.702294 0.886636 0.653085 0.143976
H21   H     H_    0.119224 0.258950 0.491172 0.162251
H22   H     H_    0.364687 0.163823 0.631236 0.118090
H23   H     H_    0.382055 0.033983 0.622866 0.124212
H24   H     H_    0.296559 0.893918 0.483442 0.123837
H25   H     H_    0.191527 0.882561 0.352664 0.146580
H26   H     H_    0.171835 0.011114 0.360340 0.112232
H27   H     H_    0.628875 0.496354 0.758459 0.158161
H28   H     H_    0.729879 0.524293 0.560289 0.185107
H29   H     H_    0.839840 0.505417 0.531618 0.153442
H30   H     H_    0.946065 0.484583 0.626701 0.153477
H31   H     H_    0.738505 0.489600 0.864388 0.164163
H32   H     H_    0.043776 0.668731 0.582430 0.131933
H33   H     H_    0.149047 0.828337 0.482476 0.143643
H34   H     H_    0.886271 0.612809 0.326109 0.143373
H35   H     H_    0.904172 0.580605 0.445850 0.134802
H36   H     H_    0.002855 0.618534 0.256776 0.161435
H37   H     H_    0.003529 0.884545 0.245832 0.156968
H38   H     H_    0.124881 0.912172 0.202626 0.123841
H39   H     H_    0.141753 0.940445 0.088913 0.127745
H40   H     H_    0.040733 0.827147 0.934541 0.123023
H41   H     H_    0.919753 0.686690 0.894218 0.121850
H42   H     H_    0.897070 0.660231 0.006156 0.097002
H43   H     H_    0.385206 0.320838 0.769457 0.126738
H44   H     H_    0.342377 0.261662 0.856759 0.120479
H45   H     H_    0.147546 0.329079 0.667869 0.133027
H46   H     H_    0.289265 0.356242 0.676877 0.143516
H47   H     H_    0.135985 0.384485 0.868554 0.151196
H48   H     H_    0.860572 0.116481 0.624891 0.157848
H49   H     H_    0.815541 0.126583 0.774161 0.129186
H50   H     H_    0.673263 0.103959 0.760022 0.130164
H51   H     H_    0.685693 0.293409 0.671504 0.142235
H52   H     H_    0.827839 0.316174 0.686295 0.159650
H53   H     H_    0.638313 0.610216 0.368967 0.156676
H54   H     H_    0.573916 0.666645 0.136503 0.143695
O1    O     O_R   0.408360 0.551710 0.460090 -0.603245
O2    O     O_R   0.948280 0.908380 0.356650 -0.619644
O3    O     O_R   0.960110 0.908350 0.551690 -0.604033
O4    O     O_R   0.856660 0.908370 0.448270 -0.616495
O5    O     O_R   0.051720 0.091580 0.643310 -0.600145
O6    O     O_R   0.948270 0.091600 0.539890 -0.627808
O7    O     O_R   0.143340 0.091590 0.551680 -0.609660
O8    O     O_R   0.039890 0.091610 0.448270 -0.633694
O9    O     O_R   0.051710 0.460040 0.908380 -0.626954
O10   O     O_R   0.948270 0.356620 0.908410 -0.614237
O11   O     O_R   0.143330 0.551680 0.091590 -0.635592
O12   O     O_R   0.408390 0.448280 0.356670 -0.637801
O13   O     O_R   0.039890 0.448260 0.091620 -0.607912
O14   O     O_R   0.051700 0.643310 0.091570 -0.612693
O15   O     O_R   0.948260 0.539890 0.091600 -0.626252
O16   O     O_R   0.960080 0.551670 0.908360 -0.607376
O17   O     O_R   0.856640 0.448250 0.908390 -0.628493
O18   O     O_R   0.591600 0.643340 0.551710 -0.610402
O19   O     O_R   0.591630 0.539900 0.448290 -0.644275
O20   O     O_R   0.591610 0.551720 0.643330 -0.608838
O21   O     O_R   0.591640 0.448290 0.539910 -0.641938
O22   O     O_R   0.408370 0.460100 0.551710 -0.625039
O23   O     O_R   0.408400 0.356660 0.448290 -0.637340
O24   O     O_R   0.051730 0.908360 0.460070 -0.621259
Zn1   Zn    Zn3+2 0.499980 0.569070 0.569050 0.965190
Zn2   Zn    Zn3+2 0.500020 0.430930 0.430950 0.917345
Zn3   Zn    Zn3+2 0.069080 0.999960 0.569030 0.991636
Zn4   Zn    Zn3+2 0.930920 0.999990 0.430930 0.962353
Zn5   Zn    Zn3+2 0.069060 0.569020 0.999970 0.933307
Zn6   Zn    Zn3+2 0.930920 0.430910 0.000010 0.972876
N1    N     N_3   0.545999 0.927616 0.615718 -0.476563
H55   H     H_    0.512407 0.953686 0.640633 0.168107
H56   H     H_    0.589857 0.924952 0.665242 0.165776
O25   O     O_3   0.087752 0.264398 0.186419 -0.663593
C113  C     C_3   0.112031 0.202540 0.200598 0.016157
H57   H     H_    0.182014 0.238725 0.249999 0.149281
H58   H     H_    0.105199 0.150965 0.143026 0.127221
C114  C     C_3   0.058759 0.157081 0.234236 -0.295868
H59   H     H_    0.065589 0.207494 0.292216 0.234841
H60   H     H_    0.988984 0.117724 0.183569 0.213971
C115  C     C_3   0.088418 0.096249 0.258204 -0.976884
H61   H     H_    0.079315 0.043273 0.200480 0.260853
H62   H     H_    0.049424 0.065242 0.283437 0.273381
H63   H     H_    0.158055 0.134367 0.309030 0.270897
O26   O     O_3   0.252939 0.603012 0.642507 -0.670822
C116  C     C_3   0.324620 0.682781 0.668183 0.047553
H64   H     H_    0.327043 0.737233 0.719027 0.166948
H65   H     H_    0.317182 0.698511 0.614931 0.129594
C117  C     C_3   0.410765 0.681956 0.706541 -0.348231
H66   H     H_    0.418732 0.670142 0.762051 0.221152
H67   H     H_    0.410288 0.627947 0.657127 0.228603
C118  C     C_3   0.488076 0.769073 0.737059 -0.953848
H68   H     H_    0.482901 0.780405 0.681752 0.270224
H69   H     H_    0.549088 0.766649 0.765583 0.268856
H70   H     H_    0.491025 0.824810 0.786974 0.255018
N2    N     N_3   0.400032 0.234282 0.508806 -0.460876
H71   H     H_    0.401403 0.223519 0.451556 0.216137
H72   H     H_    0.455334 0.293027 0.560689 0.176396
O27   O     O_3   0.805604 0.700644 0.688455 -0.686292
C119  C     C_3   0.896552 0.742342 0.744305 0.024752
H73   H     H_    0.909247 0.701024 0.772986 0.162010
H74   H     H_    0.925125 0.810075 0.798910 0.115942
C120  C     C_3   0.943840 0.747222 0.692586 -0.300827
H75   H     H_    0.919147 0.680050 0.640511 0.231643
H76   H     H_    0.931426 0.786871 0.661713 0.232201
C121  C     C_3   0.041679 0.789067 0.750736 -0.988834
H77   H     H_    0.067752 0.856267 0.803862 0.264128
H78   H     H_    0.074761 0.794796 0.712465 0.272148
H79   H     H_    0.056137 0.747754 0.778773 0.254628
O28   O     O_3   0.963357 0.486231 0.771742 -0.648190
C122  C     C_3   0.047330 0.552949 0.799102 0.150719
H80   H     H_    0.084639 0.589527 0.870849 0.175564
H81   H     H_    0.046785 0.604306 0.780186 0.095092
C123  C     C_3   0.096591 0.511002 0.766691 -0.386931
H82   H     H_    0.112023 0.474278 0.800138 0.243008
H83   H     H_    0.055952 0.463349 0.696329 0.223124
C124  C     C_3   0.181392 0.580615 0.784147 -0.922508
H84   H     H_    0.167860 0.616667 0.748889 0.282575
H85   H     H_    0.216116 0.548077 0.761571 0.285346
H86   H     H_    0.223908 0.628305 0.854498 0.248628
N3    N     N_3   0.188973 0.806693 0.620187 -0.476578
H87   H     H_    0.187123 0.783702 0.663637 0.176744
H88   H     H_    0.234197 0.795890 0.604055 0.157912
N4    N     N_3   0.779419 0.730911 0.836995 -0.457687
H89   H     H_    0.835201 0.778096 0.896815 0.177170
H90   H     H_    0.791748 0.681469 0.807071 0.214876
N5    N     N_3   0.194049 0.227455 0.863899 -0.456769
H91   H     H_    0.198497 0.278907 0.913514 0.172315
H92   H     H_    0.238047 0.209466 0.893827 0.171930
N6    N     N_3   0.879288 0.918610 0.653538 -0.448232
H93   H     H_    0.910228 0.909653 0.704896 0.186525
H94   H     H_    0.848706 0.954282 0.670618 0.175770
N7    N     N_3   0.585910 0.181968 0.706251 -0.478899
H95   H     H_    0.540211 0.117051 0.657038 0.181255
H96   H     H_    0.567735 0.222793 0.685973 0.179814
O29   O     O_3   0.581932 0.693779 0.287859 -0.654640
C125  C     C_3   0.505784 0.609817 0.232258 0.028345
H97   H     H_    0.491668 0.581447 0.272602 0.151419
H98   H     H_    0.511571 0.560278 0.184288 0.127067
C126  C     C_3   0.428794 0.620454 0.185123 -0.304269
H99   H     H_    0.415452 0.659480 0.232994 0.231024
H100  H     H_    0.444929 0.656726 0.151125 0.217719
C127  C     C_3   0.347345 0.530969 0.119144 -0.970563
H101  H     H_    0.357433 0.493304 0.067390 0.256444
H102  H     H_    0.291605 0.540734 0.089137 0.276046
H103  H     H_    0.331535 0.492117 0.151033 0.275223

loop_
_geom_bond_atom_site_label_1
_geom_bond_atom_site_label_2
_ccdc_geom_bond_type
C78   C87   S    
C101  C107  A    
C125  C126  S    
C105  H41   S    
C55   C56   A    
C64   H24   S    
C24   H2    S    
C93   C94   A    
C73   C74   A    
O6    Zn4   S    
C95   C96   A    
C51   C61   S    
C117  H66   S    
C109  N5    S    
C87   O16   A    
C97   C98   A    
C125  H97   S    
C53   C54   A    
O28   C122  S    
C65   C66   A    
C89   H33   S    
C85   O13   A    
C58   H11   S    
C120  H75   S    
C39   H10   S    
C112  H46   S    
C62   C67   A    
C56   C83   S    
O22   Zn1   S    
C8    C82   S    
C5    C6    A    
C37   C85   S    
C59   N2    S    
C24   C26   A    
C120  C121  S    
C88   C89   A    
C117  H67   S    
C87   O17   A    
N5    H91   S    
C25   O19   A    
C2    H1    S    
C57   C59   A    
C4    H47   S    
C20   C25   S    
C2    C102  A    
C56   C57   A    
C68   C74   A    
C49   C54   A    
C101  H38   S    
C14   H51   S    
C108  C109  A    
C17   C18   A    
C18   C19   A    
C113  H57   S    
C90   C100  S    
O20   Zn1   S    
N1    H56   S    
O15   Zn6   S    
C26   H3    S    
C123  H82   S    
O24   Zn3   S    
C47   C60   S    
C110  C111  A    
C118  H69   S    
C111  C112  A    
C36   O20   A    
O25   C113  S    
C106  H42   S    
C79   O24   A    
N6    H94   S    
C124  H84   S    
C86   O15   A    
C23   C24   A    
C116  C117  S    
C70   C71   A    
C53   H19   S    
C12   N7    S    
C81   O3    A    
C79   O2    A    
C29   C30   A    
C31   C41   S    
C3    C112  A    
C38   C48   S    
C49   C50   A    
C1    C40   S    
C25   O18   A    
C103  H39   S    
C65   H25   S    
C27   H4    S    
C66   C67   A    
C59   C60   A    
C101  C103  A    
O2    Zn4   S    
C127  H101  S    
C91   O27   S    
C113  H58   S    
N2    H71   S    
C57   C67   S    
O9    Zn5   S    
C104  C105  A    
C22   C28   A    
O17   Zn6   S    
C88   C94   A    
O13   Zn6   S    
N3    H88   S    
C47   O22   A    
C50   H17   S    
C46   C48   A    
C44   H13   S    
C74   C75   A    
C95   H36   S    
C92   H34   S    
C115  H61   S    
C83   O7    A    
C46   H15   S    
C35   H9    S    
C18   C28   S    
C76   C77   A    
C10   C11   A    
C117  C118  S    
C106  C107  A    
C39   C40   A    
N5    H92   S    
C5    C84   S    
C34   N1    S    
C95   C100  A    
C8    C9    A    
O3    Zn3   S    
C7    H48   S    
C30   H6    S    
C124  H85   S    
N4    H89   S    
C77   C78   A    
C13   N6    S    
C54   H16   S    
C29   C34   A    
C11   H50   S    
O10   Zn6   S    
C51   C52   A    
C60   C61   A    
C63   H23   S    
C47   O23   A    
O23   Zn2   S    
C75   C76   A    
C77   H31   S    
C96   C97   A    
C37   C38   A    
C36   C75   S    
C115  H63   S    
C23   H54   S    
O12   Zn2   S    
C1    O12   A    
C15   H52   S    
C90   C92   A    
O26   C116  S    
C108  H44   S    
C114  C115  S    
C86   C96   S    
C45   H14   S    
C73   C78   A    
C124  H86   S    
N6    H93   S    
C49   O26   S    
C62   C63   A    
C123  H83   S    
O27   C119  S    
C26   C27   A    
O18   Zn1   S    
C13   C21   A    
C50   C51   A    
C42   C48   A    
C81   O4    A    
C20   C21   A    
C84   O10   A    
N2    H72   S    
C92   C93   A    
O21   Zn2   S    
C6    C7    A    
O14   Zn5   S    
C126  H100  S    
C123  C124  S    
C82   O6    A    
C68   C70   A    
C40   C41   A    
C12   C14   A    
C119  H73   S    
C10   H49   S    
C119  H74   S    
C122  H81   S    
C43   C44   A    
O7    Zn3   S    
C113  C114  S    
C127  H103  S    
C3    H43   S    
C32   H7    S    
C71   H30   S    
N7    H95   S    
C84   O9    A    
C68   H28   S    
C103  C104  A    
C52   C53   A    
C118  H70   S    
O4    Zn4   S    
C83   O8    A    
C76   H27   S    
C79   C99   S    
C9    C110  S    
C125  H98   S    
C82   O5    A    
C70   H29   S    
O11   Zn5   S    
C35   C37   A    
C121  H78   S    
C102  N4    S    
C31   C32   A    
C44   C45   A    
C14   C15   A    
C114  H60   S    
C72   C73   A    
N7    H96   S    
C126  C127  S    
C45   C46   A    
O19   Zn2   S    
N3    H87   S    
C2    C58   A    
C58   C69   A    
O8    Zn4   S    
O29   C125  S    
C22   O29   S    
C3    C108  A    
C119  C120  S    
O1    Zn1   S    
C105  C106  A    
C99   C100  A    
C13   C17   A    
C36   O21   A    
C94   H32   S    
C64   C65   A    
C62   H22   S    
C19   C20   A    
C127  H102  S    
C86   O14   A    
C89   C90   A    
C52   H18   S    
C71   C72   A    
C120  H76   S    
C55   H21   S    
C109  C110  A    
C32   C33   A    
C88   N3    S    
O5    Zn3   S    
C30   C31   A    
C104  H40   S    
C118  H68   S    
C38   C39   A    
C29   H5    S    
C80   C91   A    
C69   H20   S    
C55   C61   A    
C21   C80   S    
C42   O25   S    
C121  H77   S    
C33   C34   A    
C93   H35   S    
C17   C81   S    
C121  H79   S    
C111  H45   S    
N1    H55   S    
C35   C41   A    
C7    C8    A    
C126  H99   S    
C116  H65   S    
C66   H26   S    
C63   C64   A    
C97   C107  S    
C72   O28   S    
C4    C5    A    
C19   H53   S    
C114  H59   S    
C33   H8    S    
C85   O11   A    
C98   C99   A    
C42   C43   A    
C122  C123  S    
C27   C28   A    
C115  H62   S    
C1    O1    A    
C22   C23   A    
C69   C80   A    
C10   C16   A    
O16   Zn5   S    
C91   C102  A    
C4    C9    A    
C122  H80   S    
N4    H90   S    
C43   H12   S    
C6    C16   S    
C15   C16   A    
C11   C12   A    
C116  H64   S    
C98   H37   S    
