data_mof_unit_2452.cif
_audit_creation_date              2012-12-11T14:26:44-0500
_audit_creation_method            fapswitch 2.2
_symmetry_space_group_name_H-M    P1
_symmetry_Int_Tables_number       1
_space_group_crystal_system       triclinic
_cell_length_a                    15.120009
_cell_length_b                    14.984758
_cell_length_c                    14.971859
_cell_angle_alpha                 109.713738
_cell_angle_beta                  109.262263
_cell_angle_gamma                 109.258745
_cell_volume                      2617.00209292

loop_
_atom_site_label
_atom_site_type_symbol
_atom_type_description
_atom_site_fract_x
_atom_site_fract_y
_atom_site_fract_z
_atom_type_partial_charge
C1    C     C_R   0.006624 0.805464 0.099254 -0.099499
C2    C     C_R   0.686774 0.150184 0.687792 -0.015553
C3    C     C_R   0.008890 0.495962 0.675725 0.028662
C4    C     C_R   0.676514 0.502513 0.951557 -0.103438
C5    C     C_R   0.059752 0.589841 0.313567 0.019941
C6    C     C_R   0.208759 0.408183 0.905152 -0.157350
C7    C     C_R   0.301226 0.798504 0.211704 -0.044004
C8    C     C_R   0.949075 0.222485 0.035347 -0.126285
C9    C     C_R   0.048763 0.231840 0.952619 -0.072791
C10   C     C_R   0.207185 0.802410 0.297792 -0.150287
C11   C     C_R   0.967740 0.408462 0.221954 -0.078988
C12   C     C_R   0.785149 0.204126 0.694314 -0.088786
C13   C     C_R   0.294805 0.588939 0.990357 -0.038775
C14   C     C_R   0.045535 0.498435 0.324032 0.000280
C15   C     C_R   0.298739 0.498225 0.932153 -0.040172
C16   C     C_R   0.302029 0.861738 0.303010 0.045004
C17   C     C_R   0.016735 0.187851 0.011223 0.090798
C18   C     C_3   0.485718 0.445042 0.817776 -0.239105
C19   C     C_3   0.380188 0.446364 0.811396 -0.263537
C20   C     C_3   0.533575 0.442207 0.995931 -0.310722
C21   C     C_3   0.597120 0.629123 0.002673 -0.279231
C22   C     C_3   0.576221 0.506120 0.941568 0.161844
C23   C     C_R   0.064715 0.588691 0.778064 -0.023227
C24   C     C_3   0.396439 0.499277 0.930084 0.164708
C25   C     C_3   0.429804 0.438543 0.990002 -0.219398
C26   C     C_3   0.488967 0.619981 0.992916 -0.424980
C27   C     C_2   0.393860 0.016285 0.483843 -0.097205
C28   C     C_2   0.386639 0.972311 0.386581 -0.179466
C29   C     C_2   0.499606 0.091253 0.579983 -0.085466
C30   C     C_2   0.583385 0.074310 0.588865 -0.091630
C31   C     C_2   0.045535 0.417078 0.531236 -0.024735
C32   C     C_2   0.020988 0.490134 0.582341 -0.249085
C33   C     C_2   0.060151 0.410698 0.437368 0.017320
C34   C     C_R   0.687323 0.410357 0.934588 -0.089938
C35   C     C_2   0.089105 0.500465 0.427956 -0.305228
C36   C     C_2   0.139120 0.117628 0.052367 -0.131679
C37   C     C_2   0.046782 0.116248 0.041215 -0.165962
C38   C     C_2   0.158111 0.031930 0.064113 -0.097756
C39   C     C_2   0.115824 0.985453 0.112971 -0.147114
C40   C     C_R   0.968775 0.406902 0.687892 -0.078745
C41   C     C_R   0.778953 0.591177 0.019449 0.005456
C42   C     C_R   0.698106 0.204119 0.789096 -0.131801
C43   C     C_R   0.092341 0.801574 0.004063 -0.104814
C44   C     C_R   0.068903 0.867902 0.069906 0.053056
H1    H     H_    0.181317 0.323296 0.854620 0.160450
H2    H     H_    0.901381 0.192247 0.069185 0.130851
H3    H     H_    0.095714 0.215930 0.914839 0.112432
H4    H     H_    0.174820 0.836654 0.345221 0.168444
H5    H     H_    0.925073 0.325664 0.203023 0.105357
H6    H     H_    0.342627 0.671176 0.010008 0.153065
H7    H     H_    0.514904 0.492052 0.780636 0.137515
H8    H     H_    0.371824 0.502845 0.780563 0.169729
H9    H     H_    0.515580 0.356517 0.954849 0.187234
H10   H     H_    0.365972 0.351194 0.940630 0.144116
H11   H     H_    0.463206 0.663631 0.951800 0.194898
H12   H     H_    0.498429 0.662771 0.075166 0.223550
H13   H     H_    0.595900 0.474723 0.080647 0.218813
H14   H     H_    0.326125 0.985469 0.496661 0.163328
H15   H     H_    0.455436 0.008353 0.376584 0.160242
H16   H     H_    0.506519 0.155649 0.647679 0.161372
H17   H     H_    0.576863 0.008739 0.522348 0.182519
H18   H     H_    0.049759 0.357550 0.555511 0.181059
H19   H     H_    0.013050 0.549280 0.558854 0.150819
H20   H     H_    0.127994 0.579497 0.500316 0.147662
H21   H     H_    0.193322 0.171966 0.037829 0.131720
H22   H     H_    0.990014 0.060031 0.052024 0.171879
H23   H     H_    0.185800 0.994027 0.012293 0.147547
H24   H     H_    0.623973 0.326939 0.887804 0.142000
H25   H     H_    0.096845 0.030702 0.170031 0.190106
H26   H     H_    0.932910 0.323229 0.626806 0.132405
H27   H     H_    0.802713 0.674900 0.047335 0.112820
H28   H     H_    0.152670 0.829071 0.982151 0.179700
N1    N     N_R   0.993980 0.704500 0.053430 -0.075831
N2    N     N_R   0.154170 0.443650 0.946570 -0.042966
N3    N     N_R   0.207180 0.704490 0.150760 -0.080850
N4    N     N_R   0.948740 0.295490 0.002840 -0.045580
N5    N     N_R   0.006020 0.295500 0.946570 -0.042896
N6    N     N_R   0.149890 0.704480 0.207030 -0.058960
N7    N     N_R   0.946310 0.443620 0.150760 -0.043155
N8    N     N_R   0.209610 0.556360 0.002840 -0.055487
N9    N     N_R   0.850110 0.295520 0.792970 -0.068337
N10   N     N_R   0.053690 0.556380 0.849240 -0.054236
N11   N     N_R   0.790390 0.443640 0.997160 -0.028352
N12   N     N_R   0.998260 0.443670 0.792970 -0.051177
N13   N     N_R   0.845830 0.556350 0.053430 -0.020067
N14   N     N_R   0.792820 0.295510 0.849240 -0.069117
N15   N     N_R   0.051260 0.704510 0.997160 -0.061869
N16   N     N_R   0.001740 0.556330 0.207030 -0.039340
Ni1   Ni    Ni4+2 0.997880 0.629240 0.129060 0.295677
Ni2   Ni    Ni4+2 0.002120 0.370760 0.870940 0.252723
Ni3   Ni    Ni4+2 0.129260 0.629260 0.000000 0.260765
Ni4   Ni    Ni4+2 0.870740 0.370740 0.000000 0.268948
C45   C     C_2   0.983113 0.847469 0.188308 0.972468
O1    O     O_2   0.975649 0.930059 0.212182 -0.595837
O2    O     O_R   0.965140 0.789840 0.242592 -0.762339
H29   H     H_    0.946968 0.824892 0.299631 0.368105
C46   C     C_2   0.376402 0.839367 0.175066 0.965573
O3    O     O_2   0.458149 0.831983 0.201679 -0.612557
O4    O     O_R   0.358716 0.894225 0.117956 -0.778336
H30   H     H_    0.417916 0.921653 0.100249 0.352669
C47   C     C_2   0.468099 0.333878 0.745590 0.493067
H31   H     H_    0.488810 0.323392 0.681289 0.001471
O5    O     O_2   0.431756 0.255889 0.757868 -0.560751
C48   C     C_2   0.824428 0.151399 0.626589 0.979441
O6    O     O_2   0.762055 0.081673 0.530402 -0.614458
O7    O     O_R   0.933162 0.179492 0.674009 -0.817338
H32   H     H_    0.950943 0.138049 0.619943 0.338628
C49   C     C_2   0.276514 0.338149 0.727192 1.033467
O8    O     O_2   0.254526 0.259549 0.741098 -0.604762
O9    O     O_R   0.207203 0.327922 0.630902 -0.820667
H33   H     H_    0.142051 0.251882 0.579751 0.344930
C50   C     C_2   0.679062 0.697717 0.126856 1.085703
O10   O     O_2   0.720894 0.659834 0.176807 -0.613139
O11   O     O_R   0.703826 0.806108 0.184359 -0.720152
H34   H     H_    0.757691 0.843734 0.265003 0.354657
C51   C     C_2   0.632872 0.695986 0.949276 0.971607
O12   O     O_2   0.723985 0.774229 0.997950 -0.619771
O13   O     O_R   0.558982 0.673591 0.847710 -0.810351
H35   H     H_    0.591720 0.724598 0.823003 0.343004
C52   C     C_2   0.437598 0.477666 0.101572 0.540678
H36   H     H_    0.373542 0.428413 0.110375 0.001011
O14   O     O_2   0.512958 0.564400 0.181204 -0.536396
C53   C     C_2   0.150285 0.693820 0.807743 0.467670
H37   H     H_    0.140909 0.723425 0.750240 0.026342
O15   O     O_2   0.234982 0.744869 0.893725 -0.584539
C54   C     C_2   0.043997 0.307024 0.357690 0.562514
H38   H     H_    0.070702 0.305480 0.298460 -0.000318
O16   O     O_2   0.002302 0.222580 0.358650 -0.548802
C55   C     C_2   0.640166 0.152983 0.836549 1.004476
O17   O     O_2   0.557299 0.064345 0.777739 -0.613871
O18   O     O_R   0.682988 0.204762 0.949846 -0.816771
H39   H     H_    0.637158 0.161836 0.972942 0.332955
C56   C     C_2   0.105891 0.699115 0.405596 0.487648
H40   H     H_    0.182710 0.734593 0.477788 0.007869
O19   O     O_2   0.055219 0.747704 0.404411 -0.536637

loop_
_geom_bond_atom_site_label_1
_geom_bond_atom_site_label_2
_ccdc_geom_bond_type
C16   C28   S    
C21   C26   S    
C45   O1    D    
C23   N10   A    
N15   Ni3   S    
C27   C29   S    
C40   N12   A    
C3    C23   A    
O2    H29   S    
C2    C12   A    
C26   H11   S    
C50   O11   S    
C46   O3    D    
C10   N6    A    
C4    C41   A    
C53   H37   S    
C51   O12   D    
C5    C56   S    
N11   Ni4   S    
C47   H31   S    
C40   H26   S    
C36   C37   D    
C6    H1    S    
C24   C26   S    
C12   C48   S    
N16   Ni1   S    
C38   C39   D    
C11   C14   A    
C53   O15   D    
C20   C25   S    
C8    N4    A    
C49   O8    D    
C18   C19   S    
O13   H35   S    
C50   O10   D    
C6    C15   A    
O9    H33   S    
C5    N16   A    
C19   H8    S    
N1    N15   A    
O4    H30   S    
C49   O9    S    
C31   C33   S    
C35   H20   S    
C42   N14   A    
N9    N14   A    
N3    Ni3   S    
C41   H27   S    
C19   C49   S    
C13   N8    A    
C47   O5    D    
N2    N8    A    
C21   C22   S    
C31   H18   S    
C11   N7    A    
N12   Ni2   S    
C21   C51   S    
C48   O7    S    
C48   O6    D    
C46   O4    S    
C52   O14   D    
C18   H7    S    
C6    N2    A    
N6    Ni1   S    
C4    C34   A    
N5    Ni2   S    
C24   C25   S    
C34   H24   S    
C14   C35   S    
N13   Ni1   S    
C36   H21   S    
C23   C53   S    
C1    C45   S    
N10   Ni3   S    
C18   C47   S    
C43   C44   A    
C29   C30   D    
C11   H5    S    
C4    C22   S    
C1    C44   A    
C31   C32   D    
C29   H16   S    
C37   H22   S    
C39   H25   S    
C17   C37   S    
N4    N5    A    
C5    C14   A    
N7    N16   A    
C25   H10   S    
N4    Ni4   S    
N9    Ni2   S    
C9    C17   A    
C15   C24   S    
N11   N13   A    
C20   C22   S    
C3    C40   A    
C9    H3    S    
N10   N12   A    
C13   C15   A    
C10   H4    S    
C56   H40   S    
C34   N11   A    
O18   H39   S    
C25   C52   S    
C21   C50   S    
C52   H36   S    
N7    Ni4   S    
C55   O17   D    
C28   H15   S    
C43   H28   S    
C7    C16   A    
C54   O16   D    
C7    C46   S    
C18   C22   S    
C32   H19   S    
C20   H9    S    
C27   H14   S    
C26   H12   S    
C7    N3    A    
O11   H34   S    
C39   C44   S    
C41   N13   A    
C8    C17   A    
C2    C30   S    
C1    N1    A    
N2    Ni2   S    
N8    Ni3   S    
C36   C38   S    
C19   C24   S    
C9    N5    A    
C43   N15   A    
N14   Ni4   S    
C2    C42   A    
C54   H38   S    
C33   C54   S    
C33   C35   D    
C51   O13   S    
C12   N9    A    
C42   C55   S    
C3    C32   S    
N3    N6    A    
C8    H2    S    
N1    Ni1   S    
C13   H6    S    
C38   H23   S    
C45   O2    S    
O7    H32   S    
C30   H17   S    
C27   C28   D    
C56   O19   D    
C10   C16   A    
C20   H13   S    
C55   O18   S    
