data_mof_unit_101.cif
_audit_creation_date              2012-12-11T14:58:38-0500
_audit_creation_method            fapswitch 2.2
_symmetry_space_group_name_H-M    P1
_symmetry_Int_Tables_number       1
_space_group_crystal_system       triclinic
_cell_length_a                    10.965416
_cell_length_b                    11.044784
_cell_length_c                    18.837108
_cell_angle_alpha                 90.316453
_cell_angle_beta                  90.001622
_cell_angle_gamma                 59.38836
_cell_volume                      1963.3986493

loop_
_atom_site_label
_atom_site_type_symbol
_atom_type_description
_atom_site_fract_x
_atom_site_fract_y
_atom_site_fract_z
_atom_type_partial_charge
C1    C     C_R   0.359435 0.772652 0.397798 0.552365
C2    C     C_R   0.236918 0.421727 0.205994 -0.156007
C3    C     C_R   0.233761 0.429770 0.279832 -0.035050
C4    C     C_R   0.382310 0.350745 0.390005 0.538542
C5    C     C_R   0.895748 0.769805 0.396106 -0.083577
C6    C     C_R   0.938461 0.631328 0.413464 -0.070928
C7    C     C_R   0.043494 0.520295 0.373359 -0.062232
C8    C     C_R   0.108662 0.547127 0.316028 0.050880
C9    C     C_R   0.350418 0.325799 0.317927 -0.006456
C10   C     C_R   0.957152 0.285975 0.307698 -0.123485
C11   C     C_R   0.987384 0.275956 0.235625 -0.106591
C12   C     C_R   0.603670 0.079902 0.178642 0.017194
C13   C     C_R   0.876693 0.336010 0.186147 0.072769
C14   C     C_R   0.736656 0.420782 0.208132 -0.098849
C15   C     C_R   0.706384 0.433295 0.280266 -0.021567
C16   C     C_R   0.777940 0.379292 0.403323 0.531812
C17   C     C_R   0.816274 0.361927 0.329627 0.109209
C18   C     C_R   0.474310 0.786631 0.286618 0.211802
C19   C     C_R   0.461206 0.797228 0.212714 -0.177551
C20   C     C_R   0.327538 0.873943 0.182513 -0.019610
C21   C     C_R   0.206604 0.934619 0.226410 -0.160219
C22   C     C_R   0.217581 0.911668 0.298244 -0.192301
C23   C     C_R   0.351998 0.310455 0.169572 0.000319
C24   C     C_R   0.350496 0.832394 0.328351 0.066077
C25   C     C_R   0.399965 0.199454 0.694785 -0.184420
C26   C     C_R   0.394250 0.191166 0.767127 -0.182559
C27   C     C_R   0.298452 0.308746 0.807810 -0.015305
C28   C     C_R   0.343587 0.769286 0.604549 0.543105
C29   C     C_R   0.199212 0.433796 0.773418 0.283861
C30   C     C_R   0.202716 0.441100 0.699444 0.270290
C31   C     C_R   0.313372 0.326987 0.660996 -0.035930
C32   C     C_R   0.780605 0.468082 0.730915 0.237909
C33   C     C_R   0.775596 0.460027 0.803431 -0.072541
C34   C     C_R   0.459808 0.209476 0.282318 -0.099125
C35   C     C_R   0.813648 0.332456 0.836022 -0.018172
C36   C     C_R   0.829209 0.219228 0.794654 -0.145240
C37   C     C_R   0.813720 0.233113 0.720905 -0.171775
C38   C     C_R   0.793366 0.356072 0.687887 0.025824
C39   C     C_R   0.203618 0.824383 0.714374 -0.109741
C40   C     C_R   0.366249 0.349605 0.594349 0.538225
C41   C     C_R   0.196857 0.836400 0.787412 -0.108284
C42   C     C_R   0.301905 0.846659 0.824387 0.018720
C43   C     C_R   0.414246 0.844159 0.787198 -0.127267
C44   C     C_R   0.419493 0.834622 0.713901 -0.121184
C45   C     C_R   0.470739 0.204385 0.209176 0.001971
C46   C     C_R   0.316799 0.820353 0.677262 0.012422
C47   C     C_R   0.912729 0.316138 0.112158 0.542181
C48   C     C_R   0.327362 0.289392 0.094932 0.537917
C49   C     C_R   0.304420 0.903490 0.106816 0.554367
C50   C     C_R   0.879039 0.310847 0.905963 0.547546
C51   C     C_R   0.293095 0.285437 0.883635 0.575518
C52   C     C_R   0.758430 0.380225 0.612075 0.551267
C53   C     C_R   0.275958 0.894544 0.897628 0.552752
C54   C     C_R   0.842159 0.846449 0.115526 -0.146022
C55   C     C_R   0.858779 0.941793 0.156775 -0.107720
C56   C     C_R   0.063761 0.686912 0.298486 -0.081752
C57   C     C_R   0.741422 0.054662 0.190311 0.230167
C58   C     C_R   0.959049 0.797068 0.339058 -0.096956
C59   C     C_R   0.595235 0.970047 0.148252 -0.031014
C60   C     C_R   0.709162 0.857855 0.112439 0.233262
Cl1   Cl    Cl    0.070934 0.584146 0.820409 -0.532586
Cl2   Cl    Cl    0.783027 0.618120 0.700268 -0.569853
Cl3   Cl    Cl    0.775119 0.136078 0.259367 -0.733242
Cr1   Cr    Cr6+3 0.601770 0.606860 0.505860 1.067228
Cr2   Cr    Cr6+3 0.291380 0.601660 0.495070 1.037506
Cr3   Cr    Cr6+3 0.606880 0.291510 0.499120 1.039659
Cr4   Cr    Cr6+3 0.062440 0.063090 0.008210 1.033245
Cr5   Cr    Cr6+3 0.062880 0.375170 0.998920 1.055907
Cr6   Cr    Cr6+3 0.374700 0.061720 0.992470 1.061429
H1    H     H_    0.544576 0.124378 0.311988 0.188989
H2    H     H_    0.101754 0.999447 0.205011 0.175029
H3    H     H_    0.122178 0.952192 0.329994 0.148623
H4    H     H_    0.481270 0.108620 0.666156 0.161181
H5    H     H_    0.467724 0.091111 0.791041 0.164468
H6    H     H_    0.761272 0.549493 0.834386 0.190387
H7    H     H_    0.859492 0.118938 0.818675 0.151971
H8    H     H_    0.822057 0.146577 0.689657 0.146592
H9    H     H_    0.122529 0.813325 0.687419 0.193629
H10   H     H_    0.930830 0.903357 0.328113 0.178603
H11   H     H_    0.106895 0.842253 0.814526 0.185427
H12   H     H_    0.815975 0.855839 0.427796 0.123923
H13   H     H_    0.495351 0.854755 0.814425 0.153907
H14   H     H_    0.505535 0.834785 0.685974 0.184082
H15   H     H_    0.933717 0.759801 0.089917 0.112021
H16   H     H_    0.964050 0.922966 0.165413 0.146805
H17   H     H_    0.114545 0.710350 0.255800 0.112216
H18   H     H_    0.495764 0.978331 0.153299 0.156961
H19   H     H_    0.145323 0.500185 0.177036 0.138194
H20   H     H_    0.678329 0.709950 0.281629 0.321867
H21   H     H_    0.777987 0.691574 0.052904 0.337517
H22   H     H_    0.079736 0.535467 0.620250 0.339173
H23   H     H_    0.893378 0.610142 0.459423 0.143078
H24   H     H_    0.079656 0.413488 0.389461 0.085005
H25   H     H_    0.042209 0.234273 0.345754 0.086082
H26   H     H_    0.096822 0.219844 0.218113 0.106108
H27   H     H_    0.651656 0.471757 0.169932 0.113994
H28   H     H_    0.596951 0.492974 0.297668 0.142874
H29   H     H_    0.554410 0.747905 0.179504 0.156598
O1    O     O_R   0.748800 0.497470 0.428000 -0.511890
O2    O     O_R   0.417600 0.174890 0.067840 -0.520431
O3    O     O_R   0.375320 0.946260 0.070860 -0.478948
O4    O     O_R   0.476420 0.724060 0.429470 -0.445723
O5    O     O_R   0.160600 0.919630 0.926660 -0.510392
O6    O     O_R   0.933060 0.190520 0.936020 -0.501247
O7    O     O_R   0.908880 0.403460 0.925020 -0.499057
O8    O     O_R   0.179600 0.361450 0.918490 -0.441642
O9    O     O_R   0.391510 0.170860 0.907530 -0.527983
O10   O     O_R   0.351130 0.942530 0.922260 -0.501402
O11   O     O_3   0.166667 0.166667 0.999870 -0.274547
O12   O     O_R   0.300070 0.471040 0.567100 -0.491947
O13   O     O_R   0.264580 0.744340 0.416750 -0.529329
O14   O     O_R   0.309380 0.472470 0.418200 -0.496583
O15   O     O_R   0.501710 0.260430 0.414300 -0.509362
O16   O     O_R   0.728090 0.305600 0.428960 -0.473999
O17   O     O_R   0.738760 0.495930 0.588610 -0.460694
O18   O     O_R   0.467110 0.722640 0.578360 -0.494339
O19   O     O_R   0.254530 0.742800 0.577360 -0.510590
O20   O     O_3   0.605837 0.728366 0.318320 -0.681810
O21   O     O_3   0.687608 0.762028 0.075720 -0.701969
O22   O     O_3   0.100988 0.562375 0.666906 -0.608643
O23   O     O_R   0.491670 0.258900 0.574910 -0.518055
O24   O     O_R   0.718780 0.304180 0.577850 -0.515044
O25   O     O_3   0.500010 0.500010 0.500020 -0.266576
O26   O     O_R   0.186690 0.923650 0.086970 -0.531643
O27   O     O_R   0.957250 0.194250 0.084630 -0.498250
O28   O     O_R   0.934970 0.407490 0.085330 -0.531300
O29   O     O_R   0.203780 0.365190 0.067090 -0.510050

loop_
_geom_bond_atom_site_label_1
_geom_bond_atom_site_label_2
_ccdc_geom_bond_type
C25   C31   A    
C50   O6    A    
C23   C45   A    
Cr3   O15   S    
C27   C29   A    
C41   C42   A    
C19   C20   A    
C44   H14   S    
Cr4   O26   S    
C8    C56   A    
C41   H11   S    
C54   H15   S    
Cr6   O9    S    
Cr4   O5    S    
C7    C8    A    
C39   C41   A    
C54   C60   A    
Cr1   O4    S    
C40   O23   A    
C28   C46   S    
C26   C27   A    
C29   C30   A    
C5    C58   A    
C21   H2    S    
C18   C24   A    
C36   C37   A    
C37   C38   A    
C28   O19   A    
Cr4   O27   S    
C42   C53   S    
C49   O3    A    
C30   C31   A    
C38   C52   S    
C10   H25   S    
C10   C17   A    
C31   C40   S    
C60   O21   S    
C18   C19   A    
C22   H3    S    
Cr2   O13   S    
C28   O18   A    
C26   H5    S    
C12   C59   A    
Cr6   O11   S    
Cr6   O10   S    
Cr1   O1    S    
C35   C36   A    
C44   C46   A    
C16   C17   S    
C50   O7    A    
Cr3   O24   S    
C2    H19   S    
C32   C38   A    
C36   H7    S    
C18   O20   S    
C4    O14   A    
C59   C60   A    
Cr1   O17   S    
C13   C14   A    
Cr5   O8    S    
C15   H28   S    
C7    H24   S    
C14   H27   S    
C19   H29   S    
C27   C51   S    
Cr4   O6    S    
C47   O27   A    
C48   O2    A    
C29   Cl1   S    
C39   H9    S    
C4    O15   A    
C3    C8    S    
H22   O22   S    
C13   C47   S    
C40   O12   A    
C25   C26   A    
C49   O26   A    
C37   H8    S    
Cr1   O18   S    
C55   H16   S    
C43   C44   A    
Cr2   O14   S    
C20   C49   S    
C3    C9    A    
C5    H12   S    
C56   H17   S    
C35   C50   S    
Cr3   O23   S    
C34   C45   A    
H20   O20   S    
Cr5   O29   S    
C58   H10   S    
C39   C46   A    
C12   C57   A    
C55   C57   A    
C9    C34   A    
C22   C24   A    
C33   H6    S    
Cr5   O7    S    
Cr5   O28   S    
C47   O28   A    
C52   O17   A    
C11   H26   S    
C15   C17   A    
C34   H1    S    
C54   C55   A    
C23   C48   S    
Cr3   O16   S    
Cr3   O25   S    
C57   Cl3   S    
C12   C45   S    
C16   O16   A    
C52   O24   A    
C16   O1    A    
C6    C7    A    
Cr6   O3    S    
Cr1   O25   S    
C32   C33   A    
C2    C3    A    
C32   Cl2   S    
H21   O21   S    
C48   O29   A    
C11   C13   A    
C53   O10   A    
Cr4   O11   S    
C5    C6    A    
C30   O22   S    
C53   O5    A    
C51   O8    A    
C6    H23   S    
C33   C35   A    
C56   C58   A    
C25   H4    S    
Cr5   O11   S    
Cr2   O25   S    
C59   H18   S    
Cr2   O12   S    
C10   C11   A    
Cr6   O2    S    
C20   C21   A    
C1    C24   S    
C51   O9    A    
C42   C43   A    
C2    C23   A    
C43   H13   S    
Cr2   O19   S    
C14   C15   A    
C4    C9    S    
C21   C22   A    
C1    O4    A    
C1    O13   A    
