data_mof_unit_929.cif
_audit_creation_date              2012-12-11T15:16:43-0500
_audit_creation_method            fapswitch 2.2
_symmetry_space_group_name_H-M    P1
_symmetry_Int_Tables_number       1
_space_group_crystal_system       triclinic
_cell_length_a                    25.196366
_cell_length_b                    7.230489
_cell_length_c                    21.824595
_cell_angle_alpha                 89.990854
_cell_angle_beta                  110.128461
_cell_angle_gamma                 89.973214
_cell_volume                      3733.20530121

loop_
_atom_site_label
_atom_site_type_symbol
_atom_type_description
_atom_site_fract_x
_atom_site_fract_y
_atom_site_fract_z
_atom_type_partial_charge
O1    O     O_R   0.554350 0.505270 0.581390 -0.532051
O2    O     O_R   0.445650 0.005270 0.418610 -0.531767
O3    O     O_R   0.553380 0.177580 0.454800 -0.537079
O4    O     O_R   0.446620 0.677580 0.545200 -0.537138
C1    C     C_R   0.566299 0.344369 0.438823 0.695140
C2    C     C_R   0.433753 0.844378 0.561240 0.694860
O5    O     O_R   0.560970 0.175640 0.583140 -0.533891
O6    O     O_R   0.439030 0.675640 0.416860 -0.533945
O7    O     O_R   0.453290 0.004120 0.547860 -0.538686
O8    O     O_R   0.546710 0.504120 0.452140 -0.538676
C3    C     C_R   0.576004 0.343253 0.607886 0.671899
C4    C     C_R   0.423975 0.843389 0.392141 0.672013
O9    O     O_3   0.464660 0.338800 0.488280 -0.372015
O10   O     O_3   0.535340 0.838800 0.511720 -0.372260
V1    V     V_3+5 0.506560 0.064420 0.502170 1.401790
V2    V     V_3+5 0.493440 0.564420 0.497830 1.401443
C5    C     C_R   0.149819 0.990275 0.292395 0.430165
C6    C     C_R   0.849803 0.498078 0.707915 0.433490
H1    H     H_    0.244046 0.083406 0.397187 0.194849
H2    H     H_    0.755190 0.591168 0.603569 0.195282
C7    C     C_R   0.121768 0.946182 0.173234 -0.208609
C8    C     C_R   0.878162 0.447112 0.826798 -0.210275
C9    C     C_R   0.390790 0.740872 0.277865 -0.163507
C10   C     C_R   0.609488 0.237670 0.721833 -0.162994
C11   C     C_R   0.347769 0.692932 0.220410 -0.110544
C12   C     C_R   0.652677 0.188209 0.778961 -0.110547
C13   C     C_R   0.292426 0.749101 0.209467 -0.039432
C14   C     C_R   0.707920 0.245325 0.789948 -0.039527
C15   C     C_R   0.279141 0.866129 0.253813 0.112138
C16   C     C_R   0.720911 0.364953 0.746080 0.112486
C17   C     C_R   0.322793 0.904672 0.314668 0.075065
C18   C     C_R   0.677096 0.405044 0.685480 0.075009
C19   C     C_R   0.222195 0.926742 0.242375 -0.119091
C20   C     C_R   0.777728 0.427050 0.757693 -0.119568
C21   C     C_R   0.207601 0.979463 0.297187 -0.034300
C22   C     C_R   0.792085 0.483765 0.703103 -0.034719
C23   C     C_R   0.251819 0.023208 0.355884 -0.076742
C24   C     C_R   0.747687 0.528419 0.644641 -0.076294
C25   C     C_R   0.308166 0.993215 0.363457 -0.244945
C26   C     C_R   0.691451 0.496352 0.637013 -0.245828
C27   C     C_R   0.179728 0.939485 0.179108 0.298980
C28   C     C_R   0.820253 0.437794 0.820982 0.298664
C29   C     C_R   0.106573 0.969681 0.229846 -0.101155
C30   C     C_R   0.893169 0.476316 0.770324 -0.096662
C31   C     C_R   0.379164 0.842319 0.326508 -0.093499
C32   C     C_R   0.620844 0.341528 0.673514 -0.094097
H3    H     H_    0.433036 0.688618 0.286195 0.112325
H4    H     H_    0.567336 0.184553 0.713414 0.112513
H5    H     H_    0.259909 0.695322 0.166828 0.184294
H6    H     H_    0.740588 0.190423 0.832255 0.183877
H7    H     H_    0.357050 0.605795 0.185034 0.144860
H8    H     H_    0.643612 0.099153 0.814005 0.144367
H9    H     H_    0.339858 0.029433 0.409732 0.128297
H10   H     H_    0.659646 0.533540 0.590922 0.129260
C33   C     C_R   0.107866 0.775142 0.866222 -0.246314
C34   C     C_R   0.892096 0.274936 0.133559 -0.248095
H11   H     H_    0.080843 0.659474 0.866775 0.171068
H12   H     H_    0.919087 0.159239 0.132867 0.170049
C35   C     C_R   0.142725 0.763807 0.828027 0.396554
C36   C     C_R   0.857322 0.263395 0.171826 0.477263
C37   C     C_R   0.179609 0.912390 0.828615 -0.118807
C38   C     C_R   0.820500 0.412109 0.171459 -0.130113
C39   C     C_R   0.180387 0.067229 0.867906 -0.078744
C40   C     C_R   0.819670 0.567200 0.132227 -0.093111
H13   H     H_    0.208761 0.181295 0.869905 0.196564
H14   H     H_    0.791383 0.681492 0.130436 0.198788
C41   C     C_R   0.143412 0.080213 0.903204 -0.004931
C42   C     C_R   0.856568 0.580297 0.096830 -0.002147
H15   H     H_    0.144222 0.203773 0.931546 0.175275
H16   H     H_    0.855764 0.704071 0.068581 0.176763
C43   C     C_R   0.106299 0.934772 0.902344 -0.097269
C44   C     C_R   0.893650 0.434775 0.097554 -0.105796
N1    N     N_R   0.273099 0.954266 0.817022 -0.266300
N2    N     N_R   0.727205 0.455321 0.183404 -0.266881
N3    N     N_R   0.307249 0.950578 0.781937 -0.287639
N4    N     N_R   0.693122 0.451705 0.218563 -0.286694
C45   C     C_R   0.287239 0.905489 0.717540 0.499612
C46   C     C_R   0.713119 0.405369 0.282855 0.498954
N5    N     N_R   0.231522 0.862807 0.689947 -0.233137
N6    N     N_R   0.768766 0.361225 0.310259 -0.249273
N7    N     N_R   0.197416 0.865949 0.725011 -0.161778
N8    N     N_R   0.802816 0.364251 0.275115 -0.166893
C47   C     C_R   0.217523 0.910348 0.789364 0.618546
C48   C     C_R   0.782705 0.410054 0.210862 0.617893
C49   C     C_R   0.314606 0.757274 0.630026 -0.195076
C50   C     C_R   0.685769 0.257516 0.370483 -0.196174
H17   H     H_    0.279297 0.664413 0.623293 0.162643
H18   H     H_    0.721135 0.164696 0.377345 0.158773
C51   C     C_R   0.348972 0.732537 0.591561 0.122004
C52   C     C_R   0.651359 0.232929 0.408906 0.123787
C53   C     C_R   0.394985 0.855557 0.599853 -0.082677
C54   C     C_R   0.605190 0.355611 0.400360 -0.083064
C55   C     C_R   0.404697 0.997011 0.646735 -0.218523
C56   C     C_R   0.595506 0.497060 0.353461 -0.218909
H19   H     H_    0.439596 0.091488 0.653157 0.121620
H20   H     H_    0.560542 0.591469 0.346927 0.121760
C57   C     C_R   0.371043 0.018880 0.686107 0.148105
C58   C     C_R   0.629297 0.519142 0.314263 0.147462
C59   C     C_R   0.325217 0.895769 0.677971 -0.015339
C60   C     C_R   0.675158 0.395919 0.322470 -0.014517
O11   O     O_R   0.953220 0.285790 0.047790 -0.543010
O12   O     O_R   0.046780 0.785790 0.952210 -0.542947
O13   O     O_R   0.939020 0.617570 0.916840 -0.518329
O14   O     O_R   0.060980 0.117570 0.083160 -0.517362
C61   C     C_R   0.923195 0.449219 0.892753 0.814665
C62   C     C_R   0.076783 0.949087 0.107261 0.813747
O15   O     O_R   0.946600 0.615450 0.045180 -0.534072
O16   O     O_R   0.053400 0.115450 0.954820 -0.534060
O17   O     O_R   0.054370 0.786770 0.081410 -0.544800
O18   O     O_R   0.945630 0.286770 0.918590 -0.544660
C63   C     C_R   0.933730 0.446644 0.060908 0.762453
C64   C     C_R   0.066243 0.946613 0.939047 0.757795
O19   O     O_3   0.035300 0.454160 0.011680 -0.373769
O20   O     O_3   0.964700 0.954160 0.988320 -0.374198
V3    V     V_3+5 0.993450 0.728620 0.997830 1.543727
V4    V     V_3+5 0.006550 0.228620 0.002170 1.545558
C65   C     C_3   0.044249 0.987663 0.221939 -0.248219
C66   C     C_3   0.028749 0.188329 0.230803 -0.562863
H21   H     H_    0.061497 0.257965 0.271768 0.271319
H22   H     H_    0.023640 0.268527 0.185740 0.165185
H23   H     H_    0.988609 0.191724 0.241023 0.252409
H24   H     H_    0.015460 0.941285 0.173536 0.132829
H25   H     H_    0.033321 0.891278 0.255037 0.252951
C67   C     C_3   0.955336 0.500691 0.778435 -0.242995
C68   C     C_3   0.969163 0.704003 0.771130 -0.594317
H26   H     H_    0.936143 0.772954 0.730206 0.273829
H27   H     H_    0.973070 0.780716 0.816535 0.177063
H28   H     H_    0.009529 0.713699 0.761716 0.212401
H29   H     H_    0.984455 0.453026 0.826503 0.132143
H30   H     H_    0.967108 0.408926 0.744733 0.251737
S1    S     S_3+6 0.139686 0.559991 0.781680 0.023243
O21   O     O_2   0.198573 0.490711 0.793165 -0.312207
O22   O     O_2   0.106499 0.411600 0.800578 -0.359572
O23   O     O_3   0.108416 0.606225 0.701778 -0.428212
H31   H     H_    0.071068 0.658743 0.697743 0.357761
S2    S     S_3+6 0.860943 0.060193 0.218575 -0.007780
O24   O     O_2   0.802290 0.992830 0.209535 -0.341056
O25   O     O_2   0.892970 0.911066 0.198181 -0.366593
O26   O     O_3   0.894854 0.108946 0.297787 -0.458769
H32   H     H_    0.893985 0.992264 0.321211 0.398447
C69   C     C_3   0.334578 0.573666 0.542971 -0.371944
C70   C     C_3   0.312248 0.641051 0.472443 -0.643036
H33   H     H_    0.345674 0.712454 0.459423 0.197653
H34   H     H_    0.297439 0.521193 0.439100 0.222912
H35   H     H_    0.276294 0.737089 0.465179 0.258524
H36   H     H_    0.371531 0.481244 0.551308 0.196055
H37   H     H_    0.301153 0.484707 0.549995 0.190201
C71   C     C_3   0.665930 0.074810 0.457826 -0.372936
C72   C     C_3   0.688253 0.143409 0.528196 -0.643324
H38   H     H_    0.654893 0.216467 0.540880 0.197089
H39   H     H_    0.702725 0.023949 0.561842 0.222536
H40   H     H_    0.724462 0.238259 0.535375 0.259075
H41   H     H_    0.629064 0.982303 0.449747 0.196249
H42   H     H_    0.699407 0.985696 0.450949 0.188637
C73   C     C_3   0.384716 0.178519 0.734190 -0.366263
C74   C     C_3   0.339494 0.328974 0.713541 -0.658750
H43   H     H_    0.333217 0.372947 0.662897 0.207201
H44   H     H_    0.298640 0.279463 0.715982 0.256426
H45   H     H_    0.353266 0.450443 0.746325 0.227900
H46   H     H_    0.390836 0.129334 0.784237 0.219492
H47   H     H_    0.425547 0.243702 0.737360 0.171935
C75   C     C_3   0.615753 0.679287 0.266348 -0.362059
C76   C     C_3   0.661061 0.829284 0.287228 -0.666419
H48   H     H_    0.667369 0.872597 0.337942 0.207498
H49   H     H_    0.701886 0.779621 0.284710 0.253035
H50   H     H_    0.647359 0.951225 0.254624 0.228969
H51   H     H_    0.609630 0.630631 0.216251 0.219276
H52   H     H_    0.574951 0.744777 0.263201 0.171573
S3    S     S_3+6 0.134198 0.022268 0.366485 0.018662
O27   O     O_2   0.149523 0.217380 0.389692 -0.331512
O28   O     O_2   0.073809 0.989378 0.360464 -0.281790
O29   O     O_3   0.174325 0.875244 0.423420 -0.503861
H53   H     H_    0.175490 0.928041 0.465745 0.381266
S4    S     S_3+6 0.865220 0.536628 0.634006 0.010760
O30   O     O_2   0.848903 0.732119 0.611928 -0.336242
O31   O     O_2   0.925750 0.508101 0.639791 -0.290844
O32   O     O_3   0.825774 0.390585 0.576246 -0.504133
H54   H     H_    0.824548 0.445796 0.534236 0.379213
S5    S     S_3+6 0.198316 0.997083 0.109038 -0.018178
O33   O     O_2   0.187551 0.832820 0.064237 -0.331531
O34   O     O_2   0.162908 0.155650 0.072471 -0.340945
O35   O     O_3   0.266372 0.061472 0.129403 -0.480493
H55   H     H_    0.269561 0.176336 0.155174 0.338128
S6    S     S_3+6 0.801695 0.491262 0.891396 -0.018415
O36   O     O_2   0.812829 0.325218 0.935455 -0.331180
O37   O     O_2   0.836887 0.649239 0.928604 -0.342298
O38   O     O_3   0.733547 0.554343 0.871492 -0.480363
H56   H     H_    0.730118 0.670356 0.846248 0.338280

loop_
_geom_bond_atom_site_label_1
_geom_bond_atom_site_label_2
_ccdc_geom_bond_type
C16   C18   A    
C61   O18   A    
C39   H13   S    
C9    C31   A    
C57   C73   S    
C33   C35   A    
C13   C15   A    
C65   C66   S    
S3    O28   D    
S3    O27   D    
O12   C64   A    
C76   H48   S    
O1    C3    A    
S1    O23   S    
O2    C4    A    
C2    O7    A    
O14   C62   A    
O20   V3    S    
C25   H9    S    
C73   H47   S    
O5    C3    A    
C35   S1    S    
N2    N4    A    
C40   C42   A    
C74   H43   S    
C76   H49   S    
N4    C46   A    
O18   V4    S    
C6    C30   A    
C72   H39   S    
S4    O30   D    
C46   N6    A    
C56   C58   A    
C2    C53   S    
C15   C19   A    
O17   V3    S    
S6    O36   D    
C36   C38   A    
C37   C39   A    
C66   H21   S    
C38   C40   A    
O12   V3    S    
H1    C23   S    
C58   C75   S    
C7    C29   A    
C14   H6    S    
C8    C30   A    
C17   C25   A    
C34   C44   A    
C20   C28   A    
C68   H28   S    
C52   C71   S    
C51   C53   A    
C50   C60   A    
C36   S2    S    
C41   C43   A    
C7    C62   S    
C42   C44   A    
O3    C1    A    
S5    O35   S    
C18   C32   A    
C45   N5    A    
C44   C63   S    
O6    V2    S    
O14   V4    S    
N1    N3    A    
C70   H35   S    
C71   H42   S    
S2    O26   S    
N7    C47   A    
C66   H22   S    
C49   H17   S    
C55   H19   S    
C39   C41   A    
C35   C37   A    
C9    H3    S    
C16   C20   A    
C50   H18   S    
C13   H5    S    
C10   H4    S    
C76   H50   S    
C71   C72   S    
N6    N8    A    
C50   C52   A    
C72   H40   S    
N5    N7    A    
C49   C51   A    
C75   H51   S    
S2    O24   D    
O5    V1    S    
C28   S6    S    
C30   C67   S    
O16   C64   A    
C26   H10   S    
C41   H15   S    
C66   H23   S    
C40   H14   S    
O4    V2    S    
O13   V3    S    
C65   H24   S    
C5    C29   A    
C49   C59   A    
C12   H8    S    
C53   C55   A    
H2    C24   S    
C52   C54   A    
O6    C4    A    
C43   C64   S    
C54   C56   A    
C67   H30   S    
O13   C61   A    
O1    V2    S    
C56   H20   S    
O2    V1    S    
N3    C45   A    
S4    O32   S    
O15   V3    S    
C69   H36   S    
C29   C65   S    
C7    C27   A    
C6    S4    S    
S2    O25   D    
N8    C48   A    
C18   C26   A    
C33   H11   S    
C5    S3    S    
C46   C60   S    
C68   H26   S    
S3    O29   S    
C75   H52   S    
O4    C2    A    
C11   C13   A    
C71   H41   S    
S1    O21   D    
C55   C57   A    
C70   H34   S    
O3    V1    S    
O29   H53   S    
C75   C76   S    
O11   V4    S    
C38   C48   S    
C57   C59   A    
C21   C23   A    
C73   H46   S    
O10   V1    S    
O15   C63   A    
C27   S5    S    
C74   H45   S    
C10   C12   A    
N2    C48   A    
C4    C31   S    
S1    O22   D    
O26   H32   S    
O23   H31   S    
C37   C47   S    
O11   C63   A    
C8    C61   S    
C12   C14   A    
C11   H7    S    
S6    O37   D    
S6    O38   S    
C19   C27   A    
O19   V4    S    
C14   C16   A    
C65   H25   S    
C10   C32   A    
C1    O8    A    
C15   C17   A    
O8    V2    S    
C72   H38   S    
C22   C24   A    
C24   C26   A    
O16   V4    S    
C8    C28   A    
C51   C69   S    
C74   H44   S    
C19   C21   A    
C34   H12   S    
C67   H29   S    
C45   C59   S    
C20   C22   A    
C9    C11   A    
O7    V1    S    
C58   C60   A    
S4    O31   D    
C1    C54   S    
C69   H37   S    
S5    O33   D    
C34   C36   A    
O38   H56   S    
C23   C25   A    
O32   H54   S    
C17   C31   A    
O9    V2    S    
C73   C74   S    
C68   H27   S    
C42   H16   S    
C70   H33   S    
C3    C32   S    
C5    C21   A    
C69   C70   S    
C6    C22   A    
N1    C47   A    
C33   C43   A    
O35   H55   S    
C67   C68   S    
S5    O34   D    
C62   O17   A    
