data_mof_unit_1308.cif
_audit_creation_date              2012-12-10T19:09:34-0500
_audit_creation_method            fapswitch 2.2
_symmetry_space_group_name_H-M    P1
_symmetry_Int_Tables_number       1
_space_group_crystal_system       triclinic
_cell_length_a                    15.159878
_cell_length_b                    14.866153
_cell_length_c                    9.76132
_cell_angle_alpha                 90.003747
_cell_angle_beta                  89.986034
_cell_angle_gamma                 90.000172
_cell_volume                      2199.8994994

loop_
_atom_site_label
_atom_site_type_symbol
_atom_type_description
_atom_site_fract_x
_atom_site_fract_y
_atom_site_fract_z
_atom_type_partial_charge
C1    C     C_R   0.118139 0.376017 0.499990 0.844910
C2    C     C_R   0.118139 0.623983 0.499986 0.844912
C3    C     C_R   0.618139 0.876016 0.499974 0.844906
C4    C     C_R   0.618139 0.123983 0.499996 0.844912
C5    C     C_3   0.907492 0.499978 0.080698 -0.269930
C6    C     C_3   0.907493 0.500017 0.919366 -0.269878
C7    C     C_3   0.407492 0.000018 0.080698 -0.269912
C8    C     C_3   0.407493 0.999986 0.919367 -0.269891
C9    C     C_R   0.876761 0.381072 0.500006 0.831543
C10   C     C_R   0.876759 0.618927 0.499990 0.831535
C11   C     C_R   0.376760 0.881072 0.499995 0.831538
C12   C     C_R   0.376760 0.118927 0.500008 0.831539
C13   C     C_3   0.748103 0.325621 0.629108 -0.405659
C14   C     C_3   0.849181 0.219701 0.500036 -0.401039
C15   C     C_3   0.748956 0.675242 0.369742 -0.405243
C16   C     C_3   0.849171 0.780291 0.501881 -0.401050
C17   C     C_3   0.349178 0.719703 0.500984 -0.401046
C18   C     C_3   0.248573 0.825153 0.370282 -0.405430
C19   C     C_3   0.349180 0.280298 0.500228 -0.401039
C20   C     C_3   0.248023 0.174305 0.628998 -0.405735
C21   C     C_3   0.276711 0.647802 0.501000 -0.412493
C22   C     C_3   0.176244 0.753566 0.370465 -0.388152
C23   C     C_3   0.276713 0.352200 0.500190 -0.412487
C24   C     C_3   0.175705 0.245923 0.628824 -0.387864
C25   C     C_3   0.675774 0.254017 0.628924 -0.387929
C26   C     C_3   0.776713 0.147799 0.500031 -0.412488
C27   C     C_3   0.676608 0.746796 0.369954 -0.388305
C28   C     C_3   0.776705 0.852192 0.501873 -0.412505
C29   C     C_3   0.748168 0.325585 0.370868 -0.405619
C30   C     C_3   0.747320 0.673556 0.627962 -0.406015
C31   C     C_3   0.247699 0.826051 0.628518 -0.405836
C32   C     C_3   0.248246 0.174487 0.370758 -0.405537
C33   C     C_3   0.806973 0.314479 0.500008 0.192541
C34   C     C_3   0.806972 0.685519 0.499913 0.192551
C35   C     C_3   0.306973 0.814479 0.499955 0.192548
C36   C     C_3   0.306972 0.185520 0.500004 0.192542
C37   C     C_3   0.185112 0.693562 0.499948 0.175105
C38   C     C_3   0.185112 0.306437 0.499980 0.175098
C39   C     C_3   0.685113 0.193562 0.499993 0.175100
C40   C     C_3   0.685110 0.806437 0.499902 0.175122
C41   C     C_3   0.175373 0.754428 0.628350 -0.387785
C42   C     C_3   0.175911 0.246080 0.370934 -0.388068
C43   C     C_3   0.675844 0.253978 0.371034 -0.388005
C44   C     C_3   0.675012 0.745212 0.627825 -0.387632
C45   C     C_3   0.045192 0.419415 0.081759 -0.102007
C46   C     C_3   0.045166 0.419399 0.918188 -0.101950
C47   C     C_3   0.045194 0.580585 0.918236 -0.101985
C48   C     C_3   0.045157 0.580605 0.081807 -0.101966
C49   C     C_3   0.545160 0.919397 0.081778 -0.101935
C50   C     C_3   0.545190 0.919413 0.918207 -0.102014
C51   C     C_3   0.545169 0.080599 0.918205 -0.101962
C52   C     C_3   0.545188 0.080588 0.081776 -0.101997
H1    H     H_    0.717839 0.393873 0.630811 0.151625
H2    H     H_    0.891749 0.210753 0.408300 0.181185
H3    H     H_    0.718738 0.606993 0.366471 0.151868
H4    H     H_    0.891122 0.788682 0.594357 0.182015
H5    H     H_    0.391414 0.711060 0.593106 0.181608
H6    H     H_    0.218324 0.893401 0.367761 0.151757
H7    H     H_    0.391817 0.289289 0.408578 0.181105
H8    H     H_    0.217748 0.106056 0.630540 0.151611
H9    H     H_    0.787927 0.318077 0.724264 0.189105
H10   H     H_    0.891701 0.210775 0.591796 0.181209
H11   H     H_    0.789395 0.683463 0.275311 0.189639
H12   H     H_    0.892300 0.789771 0.410884 0.180394
H13   H     H_    0.392027 0.710474 0.409617 0.180796
H14   H     H_    0.288738 0.817255 0.275506 0.189400
H15   H     H_    0.391630 0.289181 0.592074 0.181289
H16   H     H_    0.287790 0.181780 0.724226 0.189049
H17   H     H_    0.284361 0.603828 0.409379 0.162975
H18   H     H_    0.182491 0.712546 0.275531 0.179697
H19   H     H_    0.283984 0.395817 0.592275 0.163179
H20   H     H_    0.181593 0.286572 0.724174 0.179851
H21   H     H_    0.681697 0.213325 0.724218 0.179834
H22   H     H_    0.784036 0.104152 0.592065 0.163179
H23   H     H_    0.683078 0.788078 0.275326 0.179595
H24   H     H_    0.784610 0.896412 0.410592 0.162860
H25   H     H_    0.283758 0.604459 0.593418 0.163305
H26   H     H_    0.110440 0.786730 0.368944 0.172383
H27   H     H_    0.284139 0.395902 0.408231 0.163096
H28   H     H_    0.109877 0.212786 0.629473 0.172055
H29   H     H_    0.609952 0.287165 0.629683 0.172105
H30   H     H_    0.784088 0.104127 0.408020 0.163097
H31   H     H_    0.610826 0.713603 0.367808 0.172634
H32   H     H_    0.783495 0.895285 0.594616 0.163428
H33   H     H_    0.717902 0.393835 0.369124 0.151646
H34   H     H_    0.788041 0.318019 0.275734 0.189120
H35   H     H_    0.717018 0.605314 0.628154 0.151395
H36   H     H_    0.786566 0.680434 0.723814 0.188573
H37   H     H_    0.287226 0.818844 0.724033 0.188822
H38   H     H_    0.217422 0.894303 0.629452 0.151506
H39   H     H_    0.288176 0.182122 0.275695 0.189173
H40   H     H_    0.217992 0.106233 0.368852 0.151656
H41   H     H_    0.181023 0.714040 0.723982 0.179965
H42   H     H_    0.109540 0.787558 0.628400 0.171864
H43   H     H_    0.181923 0.286843 0.275718 0.179815
H44   H     H_    0.110097 0.212920 0.370017 0.172195
H45   H     H_    0.610023 0.287126 0.370226 0.172144
H46   H     H_    0.681820 0.213259 0.275761 0.179832
H47   H     H_    0.609163 0.712115 0.627257 0.171602
H48   H     H_    0.680430 0.785330 0.723759 0.180057
H49   H     H_    0.115264 0.421463 0.115661 0.096737
H50   H     H_    0.115230 0.421406 0.884186 0.096809
H51   H     H_    0.115269 0.578537 0.884290 0.096781
H52   H     H_    0.115218 0.578605 0.115765 0.096764
H53   H     H_    0.615223 0.921400 0.115733 0.096707
H54   H     H_    0.615264 0.921459 0.884258 0.096840
H55   H     H_    0.615234 0.078588 0.884208 0.096788
H56   H     H_    0.615260 0.078544 0.115683 0.096757
H57   H     H_    0.870112 0.440676 0.118483 0.155281
H58   H     H_    0.870071 0.440761 0.881526 0.155296
H59   H     H_    0.870115 0.559319 0.881608 0.155274
H60   H     H_    0.870063 0.559230 0.118565 0.155305
H61   H     H_    0.370067 0.940762 0.118548 0.155296
H62   H     H_    0.370110 0.940687 0.881592 0.155282
H63   H     H_    0.370075 0.059245 0.881544 0.155290
H64   H     H_    0.370108 0.059316 0.118500 0.155288
N1    N     N_3   0.998760 0.500000 0.138610 -0.074969
N2    N     N_3   0.998760 0.500000 0.861390 -0.074951
N3    N     N_3   0.498760 0.000000 0.138610 -0.074968
N4    N     N_3   0.498760 0.000000 0.861390 -0.074952
O1    O     O_R   0.092530 0.407440 0.616040 -0.630928
O2    O     O_R   0.092530 0.407440 0.383960 -0.630869
O3    O     O_R   0.092530 0.592560 0.383960 -0.630913
O4    O     O_R   0.092530 0.592560 0.616040 -0.630881
O5    O     O_R   0.592530 0.907440 0.616040 -0.630878
O6    O     O_R   0.592530 0.907440 0.383960 -0.630913
O7    O     O_R   0.592530 0.092560 0.383960 -0.630876
O8    O     O_R   0.592530 0.092560 0.616040 -0.630920
O9    O     O_R   0.907330 0.407420 0.616040 -0.625161
O10   O     O_R   0.907330 0.407420 0.383960 -0.625198
O11   O     O_R   0.907330 0.592580 0.383960 -0.625240
O12   O     O_R   0.907330 0.592580 0.616040 -0.625110
O13   O     O_R   0.407330 0.907420 0.616040 -0.625136
O14   O     O_R   0.407330 0.907420 0.383960 -0.625216
O15   O     O_R   0.407330 0.092580 0.383960 -0.625204
O16   O     O_R   0.407330 0.092580 0.616040 -0.625154
Zn1   Zn    Zn3+2 0.999890 0.500000 0.654960 0.921797
Zn2   Zn    Zn3+2 0.999890 0.500000 0.345040 0.921747
Zn3   Zn    Zn3+2 0.499890 1.000000 0.654960 0.921789
Zn4   Zn    Zn3+2 0.499890 0.000000 0.345040 0.921755
C53   C     C_1   0.009352 0.335487 0.141637 0.221870
N5    N     N_1   0.981280 0.269531 0.186988 -0.263017
C54   C     C_1   0.009268 0.335481 0.858374 0.221779
N6    N     N_1   0.981156 0.269531 0.813070 -0.262989
C55   C     C_1   0.009379 0.664526 0.858436 0.221803
N7    N     N_1   0.981344 0.730515 0.813182 -0.263119
C56   C     C_1   0.009229 0.664507 0.141699 0.221845
N8    N     N_1   0.981077 0.730420 0.187099 -0.262901
C57   C     C_1   0.509240 0.835489 0.141627 0.221898
N9    N     N_1   0.481092 0.769563 0.186969 -0.263043
C58   C     C_1   0.509366 0.835478 0.858363 0.221738
N10   N     N_1   0.481325 0.769502 0.813049 -0.262969
C59   C     C_1   0.509279 0.164518 0.858403 0.221800
N11   N     N_1   0.481172 0.230469 0.813112 -0.263006
C60   C     C_1   0.509341 0.164513 0.141667 0.221850
N12   N     N_1   0.481263 0.230467 0.187031 -0.262998

loop_
_geom_bond_atom_site_label_1
_geom_bond_atom_site_label_2
_ccdc_geom_bond_type
C16   C28   S    
C9    C33   S    
C47   C55   S    
C28   H32   S    
C6    H59   S    
N1    Zn2   S    
C43   H46   S    
C13   C25   S    
C14   C33   S    
C55   N7    T    
C3    O6    A    
C7    C8    S    
C32   H40   S    
C45   C46   S    
O5    Zn3   S    
C52   C60   S    
C46   H50   S    
O3    Zn2   S    
O6    Zn4   S    
C42   H44   S    
N3    Zn4   S    
C32   C36   S    
O8    Zn3   S    
C38   C42   S    
C19   C36   S    
C11   O13   A    
O14   Zn4   S    
C5    C6    S    
C44   H47   S    
C26   C39   S    
C32   H39   S    
C28   C40   S    
C54   N6    T    
C48   H52   S    
C48   C56   S    
C29   C33   S    
C46   N2    S    
O1    Zn1   S    
C20   C24   S    
C1    O2    A    
C8    H63   S    
C16   C34   S    
C10   O11   A    
C50   C58   S    
C18   H6    S    
C47   N2    S    
C41   H41   S    
C56   N8    T    
C31   H37   S    
C12   O15   A    
C24   C38   S    
C58   N10   T    
C19   H15   S    
C12   C36   S    
N2    Zn1   S    
C18   C35   S    
C15   C34   S    
C29   H33   S    
C8    H62   S    
C14   H10   S    
C21   H25   S    
C26   H30   S    
C29   C43   S    
C25   H29   S    
C6    H58   S    
C30   C44   S    
O16   Zn3   S    
C27   H23   S    
O9    Zn1   S    
C24   H28   S    
C25   H21   S    
C13   H1    S    
O15   Zn4   S    
C47   H51   S    
C30   C34   S    
C42   H43   S    
C47   C48   S    
C7    N3    S    
O4    Zn1   S    
O2    Zn2   S    
C11   O14   A    
C4    O8    A    
C49   H53   S    
C10   O12   A    
C19   H7    S    
O12   Zn1   S    
C9    O10   A    
C22   C37   S    
C17   C21   S    
C51   C52   S    
C21   H17   S    
C15   H3    S    
C7    H64   S    
C19   C23   S    
C16   H4    S    
C13   C33   S    
C23   H19   S    
C15   C27   S    
C41   H42   S    
C4    C39   S    
C27   C40   S    
C31   H38   S    
C51   N4    S    
C13   H9    S    
C10   C34   S    
N4    Zn3   S    
C14   C26   S    
C22   H26   S    
C29   H34   S    
C46   C54   S    
C45   H49   S    
C1    C38   S    
C45   C53   S    
C14   H2    S    
C3    C40   S    
O13   Zn3   S    
C2    O4    A    
C50   N4    S    
C20   H8    S    
O7    Zn4   S    
C30   H36   S    
O10   Zn2   S    
C24   H20   S    
C45   N1    S    
C8    N4    S    
C51   C59   S    
C32   C42   S    
C31   C41   S    
C4    O7    A    
C18   C22   S    
C20   H16   S    
C43   H45   S    
C39   C43   S    
C3    O5    A    
C48   N1    S    
C5    H60   S    
C9    O9    A    
C18   H14   S    
C23   C38   S    
C17   C35   S    
C17   H13   S    
C49   C57   S    
C7    H61   S    
C27   H31   S    
C59   N11   T    
O11   Zn2   S    
C57   N9    T    
C25   C39   S    
C44   H48   S    
C2    C37   S    
C49   N3    S    
C5    H57   S    
C11   C35   S    
C26   H22   S    
C22   H18   S    
C31   C35   S    
C37   C41   S    
C1    O1    A    
C20   C36   S    
C52   N3    S    
C40   C44   S    
C21   C37   S    
C52   H56   S    
C51   H55   S    
C49   C50   S    
C12   O16   A    
C5    N1    S    
C60   N12   T    
C50   H54   S    
C15   H11   S    
C16   H12   S    
C23   H27   S    
C30   H35   S    
C53   N5    T    
C6    N2    S    
C2    O3    A    
C17   H5    S    
C28   H24   S    
