data_mof_unit_3303.cif
_audit_creation_date              2012-10-26T20:00:47-0400
_audit_creation_method            fapswitch 2.2
_symmetry_space_group_name_H-M    P1
_symmetry_Int_Tables_number       1
_space_group_crystal_system       triclinic
_cell_length_a                    11.758848
_cell_length_b                    13.041866
_cell_length_c                    13.539562
_cell_angle_alpha                 94.924473
_cell_angle_beta                  76.658764
_cell_angle_gamma                 101.483103
_cell_volume                      1978.18040723

loop_
_atom_site_label
_atom_site_type_symbol
_atom_type_description
_atom_site_fract_x
_atom_site_fract_y
_atom_site_fract_z
_atom_type_partial_charge
Br1   Br    Br    0.843020 0.607604 0.216134 -0.287334
Br2   Br    Br    0.677321 0.202744 0.340974 -0.329004
Br3   Br    Br    0.817406 0.074194 0.452114 -0.225600
Br4   Br    Br    0.792482 0.820778 0.394641 -0.242164
Br5   Br    Br    0.004206 0.298581 0.300491 -0.313397
Br6   Br    Br    0.782800 0.510915 0.800376 -0.364025
Br7   Br    Br    0.885513 0.676598 0.981861 -0.222418
Br8   Br    Br    0.418497 0.332712 0.175749 -0.401146
Br9   Br    Br    0.170714 0.349618 0.764811 -0.301699
Br10  Br    Br    0.520552 0.720903 0.874495 -0.396039
C1    C     C_R   0.524389 0.701026 0.496481 0.580684
C2    C     C_R   0.392967 0.472989 0.808135 -0.004134
C3    C     C_R   0.460282 0.182698 0.491152 -0.021111
C4    C     C_R   0.435218 0.490908 0.696202 0.582646
C5    C     C_R   0.541576 0.815467 0.490390 -0.036323
C6    C     C_R   0.662344 0.988253 0.455576 0.232098
C7    C     C_R   0.653319 0.879317 0.455742 0.172464
C8    C     C_R   0.440700 0.861019 0.518810 -0.123652
C9    C     C_R   0.446205 0.968027 0.511550 -0.055026
C10   C     C_R   0.557865 0.032082 0.474361 0.011565
C11   C     C_R   0.560746 0.136531 0.453762 0.163507
C12   C     C_R   0.441740 0.477251 0.976922 0.015738
C13   C     C_R   0.347353 0.117872 0.524764 0.005478
C14   C     C_R   0.340785 0.010213 0.535192 0.045426
C15   C     C_R   0.955709 0.605139 0.583167 -0.080452
C16   C     C_R   0.477357 0.298382 0.496003 0.572121
C17   C     C_R   0.840260 0.602033 0.571654 0.221606
C18   C     C_R   0.852602 0.451127 0.461899 0.100111
C19   C     C_R   0.975440 0.459210 0.464328 0.004529
C20   C     C_R   0.022770 0.532097 0.533178 -0.040510
C21   C     C_R   0.138867 0.535008 0.548030 0.185533
C22   C     C_R   0.173893 0.414351 0.408608 0.101691
C23   C     C_R   0.470895 0.507621 0.874767 -0.015502
C24   C     C_R   0.053500 0.398926 0.401088 0.151268
C25   C     C_R   0.563634 0.502784 0.304208 0.592787
C26   C     C_R   0.736276 0.589566 0.043478 0.215552
C27   C     C_R   0.601706 0.509417 0.192865 -0.000465
C28   C     C_R   0.278112 0.415264 0.849541 0.152328
C29   C     C_R   0.240481 0.404965 0.955726 0.070770
C30   C     C_R   0.321767 0.437007 0.018149 -0.076023
C31   C     C_2   0.233982 0.157673 0.542845 0.648665
C32   C     C_2   0.222837 0.941759 0.569810 0.616275
C33   C     C_2   0.165290 0.582837 0.646064 0.625746
C34   C     C_R   0.531992 0.501644 0.035499 -0.000978
C35   C     C_2   0.791803 0.697561 0.611159 0.642400
C36   C     C_2   0.115394 0.363868 0.004733 0.665503
C37   C     C_R   0.645196 0.559744 0.989462 -0.003186
C38   C     C_R   0.666815 0.581535 0.887052 0.225727
C39   C     C_R   0.569009 0.586947 0.848526 0.220153
C40   C     C_R   0.518502 0.465633 0.133767 0.110732
C41   C     C_R   0.714319 0.565895 0.145819 0.151144
Cu1   Cu    Cu3+1 0.386470 0.492430 0.492410 1.092384
Cu2   Cu    Cu3+1 0.613530 0.507570 0.507590 1.114553
H1    H     H_    0.355829 0.810962 0.542693 0.215358
H2    H     H_    0.969915 0.388740 0.109494 0.387251
H3    H     H_    0.233190 0.369618 0.358276 0.210820
H4    H     H_    0.995208 0.668954 0.628579 0.154166
H5    H     H_    0.812798 0.393165 0.412199 0.202487
H6    H     H_    0.288760 0.433609 0.099301 0.190343
H7    H     H_    0.074543 0.164412 0.635712 0.387717
H8    H     H_    0.113863 0.849722 0.678410 0.370237
H9    H     H_    0.264469 0.691575 0.721503 0.368342
H10   H     H_    0.655141 0.764433 0.682190 0.364872
N1    N     N_R   0.215880 0.481050 0.481000 -0.281679
N2    N     N_R   0.784100 0.518950 0.519000 -0.256833
O1    O     O_R   0.419710 0.645650 0.494620 -0.475842
O2    O     O_R   0.151880 0.140986 0.635320 -0.601454
O3    O     O_2   0.149275 0.927822 0.516896 -0.410356
O4    O     O_R   0.196509 0.894261 0.663147 -0.635656
O5    O     O_2   0.097162 0.553365 0.725441 -0.424826
O6    O     O_R   0.259157 0.665892 0.649567 -0.680224
O7    O     O_2   0.856861 0.783310 0.597525 -0.446545
O8    O     O_R   0.677304 0.692435 0.668836 -0.636287
O9    O     O_2   0.064569 0.278800 0.977262 -0.379338
O10   O     O_R   0.056019 0.422773 0.083875 -0.626440
O11   O     O_R   0.611450 0.658430 0.507430 -0.457912
O12   O     O_R   0.357340 0.490460 0.641450 -0.458332
O13   O     O_R   0.549080 0.503250 0.654260 -0.456925
O14   O     O_R   0.388550 0.341570 0.492570 -0.475330
O15   O     O_R   0.580290 0.354350 0.505380 -0.490339
O16   O     O_R   0.450920 0.496750 0.345740 -0.500793
O17   O     O_R   0.642660 0.509540 0.358550 -0.467813
O18   O     O_2   0.207766 0.195810 0.473656 -0.439668

loop_
_geom_bond_atom_site_label_1
_geom_bond_atom_site_label_2
_ccdc_geom_bond_type
C5    C8    A    
C14   C32   S    
Br7   C26   S    
C9    C10   A    
C25   O16   A    
C31   O2    S    
Br6   C38   S    
C18   C19   A    
C25   C27   S    
C1    O11   A    
C20   C21   A    
C27   C41   A    
C23   C39   A    
C31   O18   D    
C3    C13   A    
C26   C37   A    
C35   O8    S    
C8    C9    A    
C4    O12   A    
C34   C40   A    
C1    C5    S    
C12   C34   A    
H7    O2    S    
C6    C7    A    
C13   C14   A    
Cu1   O14   S    
Cu2   N2    S    
C34   C37   A    
H2    O10   S    
C17   C35   S    
C30   H6    S    
C35   O7    D    
C32   O3    D    
C15   H4    S    
C36   O10   S    
C25   O17   A    
Cu2   O15   S    
C22   N1    A    
Cu1   N1    S    
C29   C30   A    
H10   O8    S    
C19   C24   A    
C32   O4    S    
C16   O15   A    
Cu2   O17   S    
C22   C24   A    
C19   C20   A    
C17   N2    A    
C37   C38   A    
C6    C10   A    
C12   C30   A    
Br5   C24   S    
Br2   C11   S    
C3    C11   A    
Br1   C41   S    
C26   C41   A    
C21   C33   S    
C29   C36   S    
Br4   C7    S    
C38   C39   A    
C2    C4    S    
C33   O5    D    
C3    C16   S    
Cu2   O11   S    
Cu1   O12   S    
Br8   C40   S    
C36   O9    D    
Cu1   O1    S    
Cu1   Cu2   S    
H8    O4    S    
C15   C20   A    
C5    C7    A    
C12   C23   A    
C33   O6    S    
C21   N1    A    
C1    O1    A    
C18   H5    S    
C15   C17   A    
C16   O14   A    
C13   C31   S    
C18   N2    A    
C27   C40   A    
C28   C29   A    
Br9   C28   S    
H9    O6    S    
C9    C14   A    
C4    O13   A    
C2    C28   A    
Cu1   O16   S    
C8    H1    S    
Cu2   O13   S    
C10   C11   A    
C2    C23   A    
Br10  C39   S    
C22   H3    S    
Br3   C6    S    
