data_mof_unit_4328.cif
_audit_creation_date              2012-12-11T17:25:09-0500
_audit_creation_method            fapswitch 2.2
_symmetry_space_group_name_H-M    P1
_symmetry_Int_Tables_number       1
_space_group_crystal_system       triclinic
_cell_length_a                    6.948172
_cell_length_b                    20.471244
_cell_length_c                    24.53842
_cell_angle_alpha                 90.074065
_cell_angle_beta                  90.641686
_cell_angle_gamma                 89.70041
_cell_volume                      3490.01976145

loop_
_atom_site_label
_atom_site_type_symbol
_atom_type_description
_atom_site_fract_x
_atom_site_fract_y
_atom_site_fract_z
_atom_type_partial_charge
O1    O     O_R   0.507280 0.423750 0.460310 -0.521057
O2    O     O_R   0.171030 0.555650 0.437630 -0.547970
O3    O     O_R   0.004080 0.576250 0.539690 -0.539729
C1    C     C_R   0.339097 0.575669 0.421763 0.717722
O4    O     O_R   0.177330 0.422980 0.453960 -0.537002
O5    O     O_R   0.010420 0.442640 0.556140 -0.526184
C2    C     C_R   0.345415 0.398872 0.443274 0.891269
O6    O     O_R   0.500930 0.557360 0.443860 -0.540246
O7    O     O_3   0.340310 0.506600 0.533500 -0.372771
V1    V     V_3+5 0.064140 0.498780 0.493780 1.538910
O8    O     O_R   0.680890 0.444350 0.562370 -0.538793
C3    C     C_R   0.850640 0.424668 0.578341 0.773130
O9    O     O_R   0.674590 0.577020 0.546040 -0.540270
C4    C     C_R   0.843329 0.601012 0.556571 0.806030
V2    V     V_3+5 0.564550 0.501220 0.506220 1.547412
O10   O     O_3   0.838250 0.493400 0.466500 -0.372858
C5    C     C_R   0.971190 0.838457 0.910660 -0.155880
C6    C     C_R   0.851795 0.661417 0.589140 -0.272808
C7    C     C_R   0.999102 0.720902 0.906948 -0.077988
C8    C     C_R   0.985988 0.778343 0.937049 -0.268954
C9    C     C_R   0.959995 0.840807 0.853232 0.482949
C10   C     C_R   0.942293 0.781532 0.822322 -0.065909
C11   C     C_R   0.983845 0.721966 0.849750 -0.092156
C12   C     C_R   0.895845 0.779132 0.765135 -0.154196
C13   C     C_R   0.932064 0.720455 0.734765 -0.145237
C14   C     C_R   0.017425 0.667220 0.762716 0.623289
C15   C     C_R   0.021044 0.664955 0.819679 0.289525
C16   C     C_R   0.807710 0.832251 0.737611 0.667378
C17   C     C_R   0.790654 0.832616 0.681214 -0.162794
C18   C     C_R   0.832338 0.776901 0.650628 -0.181409
C19   C     C_R   0.886571 0.718035 0.677424 -0.061252
C20   C     C_R   0.805450 0.778286 0.593731 0.708310
C21   C     C_R   0.819893 0.721149 0.563286 -0.338074
C22   C     C_R   0.879575 0.659233 0.646003 0.667206
H1    H     H_    0.796746 0.723032 0.519566 0.170571
H2    H     H_    0.731178 0.875808 0.661706 0.216671
H3    H     H_    0.023565 0.675558 0.928713 0.163272
H4    H     H_    0.997898 0.776183 0.981079 0.128098
C23   C     C_R   0.737336 0.291237 0.746317 0.390598
C24   C     C_R   0.893083 0.301082 0.710702 -0.163033
C25   C     C_R   0.065900 0.267004 0.719939 -0.256206
H5    H     H_    0.186580 0.274126 0.693037 0.224181
C26   C     C_R   0.083801 0.222280 0.762930 0.642690
C27   C     C_R   0.929071 0.210952 0.797918 -0.221943
C28   C     C_R   0.755427 0.246324 0.789961 0.336729
C29   C     C_1   0.876027 0.344554 0.663819 0.100689
C30   C     C_1   0.947715 0.162067 0.840895 0.134624
C31   C     C_1   0.961248 0.122131 0.877378 -0.181752
C32   C     C_1   0.863307 0.380989 0.624833 -0.125646
H6    H     H_    0.699192 0.700540 0.295044 0.116373
C33   C     C_R   0.596861 0.766468 0.232629 -0.140015
H7    H     H_    0.740817 0.778571 0.219636 0.112785
C34   C     C_R   0.436098 0.795061 0.206680 0.135101
C35   C     C_R   0.251186 0.778256 0.224460 -0.136207
H8    H     H_    0.125042 0.799615 0.205044 0.115255
C36   C     C_R   0.227371 0.733688 0.267462 -0.136633
H9    H     H_    0.083414 0.721583 0.280452 0.114329
C37   C     C_R   0.388135 0.705110 0.293424 0.133951
C38   C     C_R   0.573046 0.721900 0.275631 -0.135154
C39   C     C_1   0.459828 0.841095 0.161797 -0.041025
C40   C     C_1   0.364410 0.659107 0.338331 -0.037639
C41   C     C_1   0.349054 0.620917 0.376095 -0.156615
C42   C     C_1   0.475190 0.879289 0.124039 -0.178858
C43   C     C_R   0.473235 0.162092 0.088786 -0.074428
C44   C     C_R   0.345062 0.337780 0.410940 -0.362413
C45   C     C_R   0.533041 0.277907 0.094349 -0.140412
C46   C     C_R   0.524883 0.220526 0.064055 -0.189538
C47   C     C_R   0.427973 0.161593 0.144437 -0.181082
C48   C     C_R   0.423535 0.220243 0.175873 0.061793
C49   C     C_R   0.486017 0.278378 0.150060 0.041685
C50   C     C_R   0.365362 0.222962 0.232131 -0.153696
C51   C     C_R   0.399092 0.281316 0.263437 0.017173
C52   C     C_R   0.456217 0.337733 0.235098 -0.176496
C53   C     C_R   0.502361 0.336455 0.179985 0.329895
C54   C     C_R   0.262365 0.171512 0.257348 0.297390
C55   C     C_R   0.223227 0.173312 0.312856 0.688146
C56   C     C_R   0.270735 0.227588 0.345020 -0.385141
C57   C     C_R   0.361450 0.282664 0.321188 -0.141185
C58   C     C_R   0.221343 0.228269 0.400638 0.688014
C59   C     C_R   0.253003 0.283381 0.432453 0.454701
C60   C     C_R   0.408419 0.336441 0.356615 0.520473
H10   H     H_    0.578061 0.322022 0.073886 0.156958
H11   H     H_    0.562899 0.221456 0.021349 0.106758
H12   H     H_    0.409203 0.114198 0.162468 0.171897
H13   H     H_    0.456608 0.385313 0.253524 0.219095
O11   O     O_R   0.323320 0.942780 0.056240 -0.536980
O12   O     O_R   0.647300 0.077050 0.046060 -0.543064
O13   O     O_R   0.813840 0.057330 0.943840 -0.526707
C61   C     C_R   0.478945 0.101112 0.056770 0.689842
O14   O     O_R   0.653250 0.944380 0.062400 -0.539036
O15   O     O_R   0.819830 0.923720 0.960300 -0.530411
C62   C     C_R   0.485155 0.924489 0.078346 0.722752
O16   O     O_R   0.317330 0.076390 0.039790 -0.538771
O17   O     O_3   0.483830 0.993470 0.966560 -0.359115
V3    V     V_3+5 0.760140 0.001210 0.006210 1.441545
O18   O     O_R   0.149290 0.922840 0.953850 -0.545016
C63   C     C_R   0.980447 0.898792 0.943464 0.762061
O19   O     O_R   0.143340 0.055500 0.937510 -0.536031
C64   C     C_R   0.973677 0.075672 0.921916 0.733488
V4    V     V_3+5 0.259690 0.998600 0.993650 1.441037
O20   O     O_3   0.986130 0.006520 0.033440 -0.377144
O21   O     O_3   0.090381 0.609555 0.845820 -0.536969
C65   C     C_3   0.948653 0.560387 0.842841 0.139743
H14   H     H_    0.919295 0.545647 0.799857 0.180380
H15   H     H_    0.812100 0.577347 0.861797 0.107069
C66   C     C_3   0.019807 0.500370 0.873668 -0.725524
H16   H     H_    0.046161 0.512850 0.917167 0.223548
H17   H     H_    0.910002 0.461202 0.871174 0.161590
H18   H     H_    0.155687 0.482062 0.855616 0.228989
F1    F     F_    0.760333 0.834872 0.567584 -0.635231
O22   O     O_3   0.594812 0.232847 0.820771 -0.479992
C67   C     C_3   0.610943 0.263673 0.872196 0.171128
H19   H     H_    0.679157 0.312770 0.870058 0.053782
H20   H     H_    0.696726 0.232669 0.900647 0.096136
C68   C     C_3   0.410620 0.272220 0.895668 -0.664091
H21   H     H_    0.340690 0.223874 0.900172 0.226274
H22   H     H_    0.420633 0.295978 0.936306 0.151435
H23   H     H_    0.321074 0.303272 0.868159 0.216255
O23   O     O_3   0.559940 0.319857 0.735713 -0.515125
C69   C     C_3   0.558967 0.384144 0.756702 0.104476
H24   H     H_    0.658722 0.415917 0.733685 0.128038
H25   H     H_    0.600542 0.385184 0.800606 0.091967
C70   C     C_3   0.356864 0.412519 0.751158 -0.640921
H26   H     H_    0.254807 0.383406 0.775644 0.200341
H27   H     H_    0.355308 0.463763 0.766058 0.206075
H28   H     H_    0.309632 0.411843 0.707761 0.231254
F2    F     F_    0.250978 0.188477 0.769384 -0.606132
O24   O     O_3   0.556695 0.393749 0.154672 -0.555605
C71   C     C_3   0.752719 0.405343 0.166939 0.089522
H29   H     H_    0.844204 0.362748 0.155221 0.115832
H30   H     H_    0.773594 0.415712 0.211176 0.148061
C72   C     C_3   0.819758 0.464470 0.135018 -0.685196
H31   H     H_    0.733449 0.508154 0.146317 0.226869
H32   H     H_    0.973813 0.474039 0.144387 0.187839
H33   H     H_    0.802908 0.455290 0.090599 0.216824
F3    F     F_    0.872811 0.599598 0.669966 -0.657787
F4    F     F_    0.518902 0.387142 0.340617 -0.707867
F5    F     F_    0.191712 0.283925 0.484845 -0.620599
F6    F     F_    0.129961 0.121432 0.334590 -0.567782
O25   O     O_3   0.188191 0.119464 0.228216 -0.537212
C73   C     C_3   0.005938 0.137270 0.206706 0.110536
H34   H     H_    0.014412 0.182157 0.181179 0.103582
H35   H     H_    0.901250 0.145608 0.240091 0.158106
C74   C     C_3   0.931979 0.081975 0.170874 -0.620800
H36   H     H_    0.788091 0.094820 0.154048 0.164233
H37   H     H_    0.032141 0.073459 0.136601 0.214200
H38   H     H_    0.920038 0.036442 0.195130 0.232059
F7    F     F_    0.134075 0.176464 0.424294 -0.529844
O26   O     O_3   0.984470 0.900806 0.828421 -0.529692
C75   C     C_3   0.177449 0.905919 0.811435 0.072315
H39   H     H_    0.209856 0.869420 0.779081 0.137833
H40   H     H_    0.279649 0.898786 0.846299 0.129327
C76   C     C_3   0.209642 0.973742 0.788169 -0.519246
H41   H     H_    0.182351 0.011320 0.819863 0.207153
H42   H     H_    0.360587 0.978187 0.774289 0.217626
H43   H     H_    0.110869 0.982292 0.752965 0.237557
F8    F     F_    0.114965 0.619646 0.735942 -0.623830
F9    F     F_    0.720209 0.881766 0.764681 -0.661332

loop_
_geom_bond_atom_site_label_1
_geom_bond_atom_site_label_2
_ccdc_geom_bond_type
C22   F3    S    
C13   C19   A    
C50   C54   A    
C46   H11   S    
C25   H5    S    
C4    C6    S    
O2    C1    A    
O22   C67   S    
C1    O6    A    
O24   C71   S    
C67   H20   S    
C3    C32   S    
O26   C75   S    
C70   H26   S    
C56   C57   A    
C69   H24   S    
C24   C29   S    
C29   C32   T    
C14   C15   A    
C20   F1    S    
C39   C42   T    
H6    C38   S    
C43   C47   A    
C16   C17   A    
C54   O25   S    
C73   H35   S    
O5    C3    A    
C18   C19   A    
C59   F5    S    
C70   H27   S    
C2    C44   S    
C66   H16   S    
V2    O10   S    
C1    C41   S    
C5    C8    A    
C36   H9    S    
C14   F8    S    
C52   C53   A    
C48   C50   A    
C51   C57   A    
C7    H3    S    
O8    V2    S    
C53   O24   S    
C7    C8    A    
C47   C48   A    
C68   H22   S    
C75   C76   S    
O12   V3    S    
C42   C62   S    
C49   C53   A    
O1    V2    S    
C11   C15   A    
C76   H42   S    
C27   C30   S    
O11   V4    S    
O7    V1    S    
C69   C70   S    
C23   C28   A    
C71   C72   S    
C37   C40   S    
C45   C46   A    
O13   V3    S    
C44   C59   A    
O9    C4    A    
C61   O16   A    
C25   C26   A    
O21   C65   S    
C43   C61   S    
C74   H38   S    
C67   H19   S    
C34   C39   S    
C69   H25   S    
C55   C56   A    
C56   C58   A    
O14   C62   A    
C35   C36   A    
C33   H7    S    
C47   H12   S    
C43   C46   A    
O14   V3    S    
C12   C13   A    
C74   H37   S    
C73   C74   S    
C26   F2    S    
C23   C24   A    
O4    C2    A    
C72   H31   S    
C70   H28   S    
C13   C14   A    
C34   C35   A    
O15   C63   A    
C33   C34   A    
C7    C11   A    
C54   C55   A    
C17   C18   A    
C45   H10   S    
C8    H4    S    
C44   C60   A    
C30   C31   T    
C17   H2    S    
O17   V4    S    
O23   C69   S    
C68   H23   S    
O18   C63   A    
C16   F9    S    
C19   C22   A    
O17   V3    S    
C65   H15   S    
O25   C73   S    
C76   H43   S    
C6    C22   A    
O16   V4    S    
C52   H13   S    
O3    C4    A    
C48   C49   A    
C24   C25   A    
O6    V2    S    
C9    O26   S    
O12   C61   A    
C26   C27   A    
C10   C12   A    
C33   C38   A    
O2    V1    S    
C27   C28   A    
C71   H29   S    
C55   F6    S    
C31   C64   S    
C35   H8    S    
O1    C2    A    
C10   C11   A    
C12   C16   A    
C51   C52   A    
O5    V1    S    
O8    C3    A    
C28   O22   S    
C58   F7    S    
C15   O21   S    
O19   V4    S    
C74   H36   S    
C20   C21   A    
O9    V2    S    
C37   C38   A    
O4    V1    S    
O3    V1    S    
V1    O10   S    
C73   H34   S    
C18   C20   A    
C57   C60   A    
C68   H21   S    
C45   C49   A    
C66   H17   S    
C72   H33   S    
C23   O23   S    
O18   V4    S    
V4    O20   S    
C21   H1    S    
C36   C37   A    
C65   C66   S    
C75   H40   S    
O7    V2    S    
C40   C41   T    
C6    C21   A    
C5    C9    A    
O13   C64   A    
O15   V3    S    
C58   C59   A    
C50   C51   A    
C72   H32   S    
O19   C64   A    
C65   H14   S    
C60   F4    S    
C75   H39   S    
O11   C62   A    
C76   H41   S    
C9    C10   A    
C5    C63   S    
C67   C68   S    
V3    O20   S    
C71   H30   S    
C66   H18   S    
