data_mof_unit_2764.cif
_audit_creation_date              2012-12-10T17:16:38-0500
_audit_creation_method            fapswitch 2.2
_symmetry_space_group_name_H-M    P1
_symmetry_Int_Tables_number       1
_space_group_crystal_system       triclinic
_cell_length_a                    10.10679
_cell_length_b                    10.754011
_cell_length_c                    10.671203
_cell_angle_alpha                 90.940395
_cell_angle_beta                  93.117259
_cell_angle_gamma                 79.948664
_cell_volume                      1140.31784107

loop_
_atom_site_label
_atom_site_type_symbol
_atom_type_description
_atom_site_fract_x
_atom_site_fract_y
_atom_site_fract_z
_atom_type_partial_charge
C1    C     C_R   0.446638 0.506725 0.266475 1.003294
C2    C     C_R   0.552883 0.487471 0.734310 0.988704
C3    C     C_2   0.422442 0.504212 0.132926 -0.487077
C4    C     C_2   0.572000 0.465372 0.868804 -0.502578
C5    C     C_2   0.489222 0.410268 0.064923 0.413607
C6    C     C_2   0.473233 0.424292 0.928609 0.387074
C7    C     C_2   0.074640 0.489277 0.489633 -0.142309
C8    C     C_2   0.926396 0.506792 0.513893 -0.147963
C9    C     C_R   0.505106 0.258476 0.510628 0.906920
C10   C     C_R   0.494148 0.740673 0.486101 0.876713
C11   C     C_R   0.751778 0.065162 0.451126 -0.138993
C12   C     C_R   0.249765 0.928794 0.549518 -0.197147
C13   C     C_R   0.846961 0.984792 0.381721 0.248578
C14   C     C_R   0.163699 0.998935 0.633580 0.308319
C15   C     C_R   0.810501 0.876381 0.326988 -0.245277
C16   C     C_R   0.201045 0.107679 0.687582 -0.198355
C17   C     C_R   0.685148 0.846036 0.345441 -0.167625
C18   C     C_R   0.317423 0.147074 0.652767 -0.209099
C19   C     C_R   0.594705 0.920197 0.425010 0.064469
C20   C     C_R   0.403393 0.077239 0.567063 0.069799
C21   C     C_R   0.620446 0.038171 0.465822 0.023141
C22   C     C_R   0.377753 0.959522 0.526642 0.052833
C23   C     C_R   0.482154 0.876207 0.468385 -0.215024
C24   C     C_R   0.515316 0.122123 0.523088 -0.220222
H1    H     H_    0.139350 0.164798 0.753828 0.157253
H2    H     H_    0.879993 0.814098 0.270565 0.137215
H3    H     H_    0.785251 0.142695 0.500350 0.179011
H4    H     H_    0.212038 0.852829 0.500151 0.162213
H5    H     H_    0.660123 0.762712 0.298130 0.161640
H6    H     H_    0.341733 0.231260 0.695948 0.227135
H7    H     H_    0.660931 0.487991 0.919754 0.125136
H8    H     H_    0.355734 0.583806 0.089474 0.092200
H9    H     H_    0.888164 0.570352 0.588708 0.172415
H10   H     H_    0.114001 0.421444 0.418625 0.177625
H11   H     H_    0.881309 0.394477 0.374652 0.170875
H12   H     H_    0.116385 0.614575 0.618143 0.155801
N1    N     N_2   0.157300 0.551390 0.551120 -0.200186
N2    N     N_2   0.842700 0.448610 0.448880 -0.200160
O1    O     O_R   0.568940 0.489660 0.307530 -0.575002
O2    O     O_R   0.431060 0.510340 0.692470 -0.559999
O3    O     O_R   0.348880 0.522640 0.340350 -0.625198
O4    O     O_R   0.651120 0.477360 0.659650 -0.626588
O5    O     O_R   0.610030 0.300280 0.483580 -0.618861
O6    O     O_R   0.389970 0.699720 0.516420 -0.632696
O7    O     O_R   0.389970 0.333270 0.516400 -0.608635
O8    O     O_R   0.610030 0.666730 0.483600 -0.612606
Zn1   Zn    Zn3+2 0.646940 0.477980 0.478080 0.943841
Zn2   Zn    Zn3+2 0.353060 0.522020 0.521920 0.942105
N3    N     N_2   0.980379 0.008595 0.368378 -0.315202
H13   H     H_    0.038025 0.947694 0.308877 0.217596
C25   C     C_3   0.000821 0.137994 0.360808 -0.816007
H14   H     H_    0.106521 0.139723 0.338278 0.244340
H15   H     H_    0.984624 0.186524 0.452579 0.249387
H16   H     H_    0.932793 0.188443 0.285807 0.233786
N4    N     N_2   0.043947 0.954966 0.664733 -0.303889
H17   H     H_    0.009485 0.890330 0.604457 0.226989
C26   C     C_3   0.943385 0.035254 0.735054 -0.824098
H18   H     H_    0.852686 0.990479 0.738934 0.240406
H19   H     H_    0.913628 0.128699 0.689489 0.237210
H20   H     H_    0.983246 0.047838 0.832615 0.247156
O9    O     O_3   0.376371 0.369548 0.860376 -0.668585
C27   C     C_3   0.246200 0.399399 0.907489 0.087595
H21   H     H_    0.173467 0.404137 0.825046 0.167932
H22   H     H_    0.225255 0.494298 0.952063 0.125198
C28   C     C_3   0.219020 0.295678 0.995037 -0.385372
H23   H     H_    0.250414 0.201549 0.951198 0.224629
H24   H     H_    0.277885 0.297855 0.085548 0.232787
C29   C     C_3   0.070217 0.312012 0.022227 -0.970081
H25   H     H_    0.037337 0.404522 0.068860 0.267670
H26   H     H_    0.054116 0.235658 0.085447 0.267796
H27   H     H_    0.008022 0.306494 0.933868 0.260460
O10   O     O_3   0.568329 0.304953 0.123607 -0.633556
C30   C     C_3   0.600639 0.203112 0.038364 0.068614
H28   H     H_    0.671969 0.226039 0.969875 0.151327
H29   H     H_    0.508069 0.181037 0.987924 0.169645
C31   C     C_3   0.667275 0.084958 0.108754 -0.312874
H30   H     H_    0.763786 0.101793 0.154517 0.235983
H31   H     H_    0.600081 0.064059 0.181655 0.239420
C32   C     C_3   0.694637 0.972195 0.019148 -0.983515
H32   H     H_    0.599119 0.953650 0.972171 0.265761
H33   H     H_    0.742494 0.886424 0.071399 0.269139
H34   H     H_    0.763564 0.990854 0.947023 0.266033

loop_
_geom_bond_atom_site_label_1
_geom_bond_atom_site_label_2
_ccdc_geom_bond_type
N4    H17   S    
C9    O7    A    
C17   H5    S    
C30   H28   S    
C2    C4    S    
C31   C32   S    
C7    C8    S    
C12   H4    S    
C6    O9    S    
H12   N1    S    
C19   C21   A    
C31   H31   S    
C5    O10   S    
C5    C6    S    
C26   H19   S    
C12   C22   A    
C15   C17   A    
C15   H2    S    
C27   H22   S    
C20   C24   A    
C29   H25   S    
N3    C25   S    
C10   O8    A    
C18   H6    S    
C8    H9    S    
C14   N4    S    
C30   H29   S    
O9    C27   S    
C8    N2    D    
C9    O5    A    
C10   O6    A    
C25   H14   S    
H11   N2    S    
C31   H30   S    
C4    C6    D    
C32   H33   S    
C26   H20   S    
C28   H24   S    
C11   C21   A    
C1    C3    S    
C19   C23   A    
C27   H21   S    
C11   H3    S    
C28   C29   S    
C7    N1    D    
N1    Zn2   S    
N2    Zn1   S    
C13   N3    S    
C1    O3    A    
C12   C14   A    
C28   H23   S    
C13   C15   A    
C30   C31   S    
C14   C16   A    
C7    H10   S    
O1    Zn1   S    
O7    Zn2   S    
C16   H1    S    
O2    Zn2   S    
O8    Zn1   S    
C27   C28   S    
C20   C22   A    
O10   C30   S    
C3    C5    D    
C32   H34   S    
C9    C24   S    
C10   C23   S    
C25   H16   S    
N4    C26   S    
C11   C13   A    
C26   H18   S    
C2    O4    A    
C29   H27   S    
C17   C19   A    
O3    Zn2   S    
C18   C20   A    
O4    Zn1   S    
C3    H8    S    
C4    H7    S    
C1    O1    A    
C32   H32   S    
C2    O2    A    
C16   C18   A    
N3    H13   S    
C21   C24   A    
C29   H26   S    
C22   C23   A    
C25   H15   S    
O5    Zn1   S    
O6    Zn2   S    
