data_mof_unit_4765.cif
_audit_creation_date              2013-03-05T15:48:07-0500
_audit_creation_method            fapswitch 2.2
_symmetry_space_group_name_H-M    P1
_symmetry_Int_Tables_number       1
_space_group_crystal_system       triclinic
_cell_length_a                    15.067095
_cell_length_b                    12.977467
_cell_length_c                    11.701048
_cell_angle_alpha                 100.163985
_cell_angle_beta                  93.621401
_cell_angle_gamma                 90.719026
_cell_volume                      2246.88181677

loop_
_atom_site_label
_atom_site_type_symbol
_atom_site_description
_atom_site_fract_x
_atom_site_fract_y
_atom_site_fract_z
_atom_type_partial_charge
O1    O     O_R   0.504720 0.354460 0.582000 -0.599090
O2    O     O_R   0.495280 0.645540 0.418000 -0.599491
O3    O     O_R   0.493480 0.341410 0.386200 -0.553521
O4    O     O_R   0.506520 0.658590 0.613800 -0.550513
C1    C     C_R   0.502381 0.299245 0.478305 0.857745
C2    C     C_R   0.497679 0.700763 0.521701 0.855873
O5    O     O_R   0.375880 0.506510 0.597910 -0.556789
O6    O     O_R   0.624120 0.493490 0.402090 -0.556881
O7    O     O_R   0.364640 0.493450 0.402110 -0.594755
O8    O     O_R   0.635360 0.506550 0.597890 -0.600444
C3    C     C_R   0.328960 0.497767 0.500232 0.827151
C4    C     C_R   0.671048 0.502229 0.499688 0.830801
Cu1   Cu    Cu3+1 0.506660 0.507730 0.615930 1.016225
Cu2   Cu    Cu3+1 0.493340 0.492270 0.384070 1.018364
C5    C     C_R   0.812083 0.569443 0.435748 -0.036360
C6    C     C_R   0.187830 0.426021 0.559510 -0.036368
C7    C     C_R   0.767569 0.503792 0.498230 -0.103459
C8    C     C_R   0.232385 0.494312 0.500255 -0.103843
C9    C     C_R   0.814692 0.436828 0.559314 -0.155576
C10   C     C_R   0.185055 0.559514 0.437091 -0.152550
C11   C     C_R   0.906982 0.430043 0.556231 0.002291
C12   C     C_R   0.092237 0.559270 0.431456 0.001190
C13   C     C_R   0.952884 0.496123 0.494190 0.025049
C14   C     C_R   0.046434 0.493811 0.494302 0.024304
C15   C     C_R   0.905385 0.565548 0.433231 0.030092
C16   C     C_R   0.094175 0.426470 0.557842 0.029847
C17   C     C_R   0.954580 0.360225 0.615667 0.329032
C18   C     C_R   0.044352 0.625279 0.367221 0.329491
C19   C     C_R   0.047197 0.360518 0.617402 -0.225030
C20   C     C_R   0.952135 0.629029 0.370557 -0.226795
H1    H     H_    0.777999 0.389870 0.608931 0.197876
H2    H     H_    0.222093 0.612389 0.394842 0.197967
H3    H     H_    0.082030 0.306918 0.664569 0.198628
H4    H     H_    0.917145 0.680697 0.320950 0.197878
C21   C     C_R   0.491178 0.814173 0.534002 -0.162843
C22   C     C_R   0.509011 0.185851 0.466046 -0.160621
C23   C     C_R   0.547516 0.015716 0.361310 -0.191706
C24   C     C_R   0.452819 0.984335 0.638813 -0.196276
C25   C     C_R   0.545298 0.124256 0.368573 0.333348
C26   C     C_R   0.454995 0.875799 0.631542 0.329060
C27   C     C_R   0.478727 0.138554 0.555471 -0.234606
C28   C     C_R   0.521521 0.861465 0.444600 -0.234456
C29   C     C_R   0.483087 0.030931 0.549046 0.102598
C30   C     C_R   0.517216 0.969102 0.451052 0.102063
H5    H     H_    0.549170 0.814317 0.369801 0.179567
H6    H     H_    0.451063 0.185686 0.630267 0.179134
H7    H     H_    0.575427 0.968033 0.287152 0.184424
H8    H     H_    0.424953 0.032031 0.712998 0.184234
N1    N     N_R   0.516670 0.519360 0.790130 -0.207442
N2    N     N_R   0.483330 0.480640 0.209870 -0.207618
C31   C     C_R   0.417902 0.399718 0.020059 -0.297766
C32   C     C_R   0.582070 0.600309 0.979948 -0.303679
C33   C     C_R   0.425054 0.409174 0.142132 0.185634
C34   C     C_R   0.574915 0.590858 0.857876 0.183072
C35   C     C_R   0.535060 0.543814 0.157494 0.060407
C36   C     C_R   0.464937 0.456186 0.842506 0.060799
C37   C     C_R   0.529639 0.536507 0.034744 0.057638
C38   C     C_R   0.470350 0.463501 0.965259 0.057371
H9    H     H_    0.419419 0.399973 0.788836 0.142252
H10   H     H_    0.580571 0.600035 0.211165 0.141545
H11   H     H_    0.371516 0.342801 0.968258 0.160605
H12   H     H_    0.628438 0.657244 0.031753 0.160345
C39   C     C_1   0.762292 0.644429 0.380334 0.252761
N3    N     N_1   0.722908 0.704630 0.336563 -0.294289
C40   C     C_1   0.238171 0.352869 0.617037 0.254257
N4    N     N_1   0.278007 0.294118 0.662524 -0.296805
N5    N     N_R   0.910261 0.286979 0.673037 0.124260
O9    O     O_R   0.849145 0.222967 0.615752 -0.320189
O10   O     O_R   0.942215 0.270530 0.774021 -0.305204
N6    N     N_R   0.087767 0.687927 0.296510 0.124777
O11   O     O_R   0.139686 0.644222 0.218097 -0.330578
O12   O     O_R   0.062881 0.783400 0.295234 -0.300484
N7    N     N_R   0.416042 0.829732 0.720139 0.133781
O13   O     O_R   0.427158 0.875188 0.828604 -0.317011
O14   O     O_R   0.357001 0.754033 0.691194 -0.335899
N8    N     N_R   0.584325 0.170368 0.280061 0.133950
O15   O     O_R   0.573403 0.124871 0.171594 -0.319258
O16   O     O_R   0.643257 0.246174 0.309127 -0.327039
C41   C     C_1   0.630680 0.658323 0.806256 0.349071
N9    N     N_1   0.675842 0.712925 0.765531 -0.254656
C42   C     C_1   0.369238 0.341770 0.193764 0.356866
N10   N     N_1   0.324032 0.287224 0.234502 -0.253738

loop_
_geom_bond_atom_site_label_1
_geom_bond_atom_site_label_2
_geom_bond_distance
_ccdc_geom_bond_type
C3    C8    1.455244 S    
C17   C19   1.394278 A    
N7    O14   1.301428 A    
N7    O13   1.301242 A    
C31   H11   1.084872 S    
O7    Cu2   1.963759 S    
C9    H1    1.082151 S    
C42   N10   1.157681 T    
C26   N7    1.436434 S    
O5    C3    1.291941 A    
O1    C1    1.293832 A    
C9    C11   1.396763 A    
C14   C16   1.418259 A    
C5    C15   1.409308 A    
N1    C34   1.375336 A    
C1    C22   1.458441 S    
C19   H3    1.082570 S    
C2    C21   1.458451 S    
C33   C42   1.438633 S    
O4    Cu1   1.962358 S    
C21   C28   1.399983 A    
C4    C7    1.455402 S    
C27   H6    1.085059 S    
N6    O11   1.301385 A    
C23   H7    1.084362 S    
C24   H8    1.084370 S    
C11   C17   1.412317 A    
C12   C18   1.411930 A    
Cu1   Cu2   2.679371 S    
C27   C29   1.388001 A    
C22   C27   1.399918 A    
O2    C2    1.293894 A    
C28   C30   1.388086 A    
C32   C34   1.409000 A    
C11   C13   1.417383 A    
C6    C16   1.410106 A    
N2    C33   1.375336 A    
C20   H4    1.082594 S    
N5    O9    1.301395 A    
N8    O15   1.301240 A    
O4    C2    1.292468 A    
C41   N9    1.157678 T    
C31   C33   1.409004 A    
C28   H5    1.085081 S    
C29   C30   1.408240 A    
O6    C4    1.291220 A    
C31   C38   1.398470 A    
C25   N8    1.436431 S    
O7    C3    1.290883 A    
O3    Cu2   1.962359 S    
O8    C4    1.291783 A    
Cu1   N1    2.013034 S    
C10   C12   1.395825 A    
C35   C37   1.419707 A    
C12   C14   1.417225 A    
O1    Cu1   1.957852 S    
C34   C41   1.438620 S    
C10   H2    1.082415 S    
C15   C20   1.405902 A    
C5    C7    1.406295 A    
O6    Cu2   1.968004 S    
C22   C25   1.416585 A    
C18   N6    1.437321 S    
N8    O16   1.301436 A    
O3    C1    1.292527 A    
O8    Cu1   1.963759 S    
N1    C36   1.370005 A    
N2    C35   1.369984 A    
C36   H9    1.080861 S    
C23   C30   1.398157 A    
C18   C20   1.393679 A    
C21   C26   1.416625 A    
C24   C29   1.398095 A    
C23   C25   1.397029 A    
C32   H12   1.084874 S    
C24   C26   1.396940 A    
C37   C38   1.404213 A    
Cu2   N2    2.013032 S    
C7    C9    1.393104 A    
C36   C38   1.419725 A    
C8    C10   1.392851 A    
C13   C15   1.418164 A    
O2    Cu2   1.957853 S    
C17   N5    1.437348 S    
C32   C37   1.398455 A    
C13   C14   1.410142 A    
C39   N3    1.157272 T    
O5    Cu1   1.968001 S    
C16   C19   1.406013 A    
C6    C8    1.406258 A    
C40   N4    1.157244 T    
C5    C39   1.452504 S    
N6    O12   1.301308 A    
C6    C40   1.452143 S    
N5    O10   1.301282 A    
C35   H10   1.080850 S    
