data_mof_unit_2925.cif
_audit_creation_date              2013-03-05T15:54:37-0500
_audit_creation_method            fapswitch 2.2
_symmetry_space_group_name_H-M    P1
_symmetry_Int_Tables_number       1
_space_group_crystal_system       triclinic
_cell_length_a                    6.980584
_cell_length_b                    18.843222
_cell_length_c                    20.702204
_cell_angle_alpha                 107.212638
_cell_angle_beta                  88.936579
_cell_angle_gamma                 91.055853
_cell_volume                      2600.45377353

loop_
_atom_site_label
_atom_site_type_symbol
_atom_site_description
_atom_site_fract_x
_atom_site_fract_y
_atom_site_fract_z
_atom_type_partial_charge
O1    O     O_R   0.494330 0.423860 0.422200 -0.588136
O2    O     O_R   0.819690 0.434890 0.556180 -0.589151
O3    O     O_R   0.994310 0.576140 0.577800 -0.588079
C1    C     C_R   0.649366 0.420569 0.576237 0.974082
O4    O     O_R   0.823770 0.415220 0.421380 -0.588347
O5    O     O_R   0.998410 0.556340 0.442040 -0.581983
C2    C     C_R   0.655173 0.393839 0.395529 0.983264
O6    O     O_R   0.490230 0.443660 0.557960 -0.591574
O7    O     O_3   0.662220 0.546320 0.506940 -0.263445
V1    V     V_3+5 0.935390 0.491410 0.498710 1.200356
O8    O     O_R   0.328380 0.565110 0.443820 -0.577181
C3    C     C_R   0.161915 0.579421 0.423703 0.971425
O9    O     O_R   0.324310 0.584780 0.578620 -0.586930
C4    C     C_R   0.155158 0.606167 0.604467 0.977815
V2    V     V_3+5 0.435920 0.508590 0.501290 1.208093
O10   O     O_3   0.159220 0.453680 0.493060 -0.274527
C5    C     C_1   0.144651 0.668260 0.666824 -0.283746
C6    C     C_1   0.134234 0.719741 0.719129 0.077401
C7    C     C_1   0.121306 0.780218 0.780814 0.078074
C8    C     C_1   0.110845 0.831697 0.833119 -0.283240
C9    C     C_3   0.247799 0.785001 0.298792 0.276346
C10   C     C_3   0.057245 0.817107 0.284042 -0.086358
C11   C     C_1   0.095271 0.874811 0.121615 -0.252161
C12   C     C_1   0.159810 0.625162 0.378354 -0.251688
C13   C     C_3   0.295668 0.759105 0.222422 0.265839
C14   C     C_3   0.105694 0.790971 0.206930 -0.216969
C15   C     C_3   0.197804 0.682897 0.215956 -0.058073
C16   C     C_3   0.149358 0.709032 0.293067 -0.216099
C17   C     C_3   0.007253 0.715004 0.201205 0.283766
C18   C     C_3   0.959383 0.740899 0.277575 0.265535
C19   C     C_1   0.096886 0.836914 0.159931 0.286263
C20   C     C_1   0.158181 0.663075 0.340052 0.285391
C21   C     C_3   0.480495 0.199319 0.734753 -0.376430
C22   C     C_3   0.648535 0.205825 0.687239 0.351622
H1    H     H_    0.367866 0.155612 0.721033 0.188293
C23   C     C_1   0.637524 0.374797 0.621525 -0.262580
C24   C     C_1   0.617657 0.125048 0.878345 -0.290204
C25   C     C_3   0.462791 0.285350 0.755228 0.282799
C26   C     C_3   0.628921 0.290662 0.706723 -0.044366
C27   C     C_3   0.606581 0.293350 0.812659 0.274721
C28   C     C_3   0.626485 0.208149 0.792284 0.064637
C29   C     C_3   0.774605 0.299269 0.764353 -0.315435
C30   C     C_3   0.792851 0.213276 0.743908 0.169005
C31   C     C_1   0.631957 0.336792 0.659770 0.132440
C32   C     C_1   0.623302 0.162673 0.839779 0.071236
H2    H     H_    0.887839 0.342764 0.777647 0.174497
C33   C     C_1   0.644922 0.331728 0.333166 -0.285252
C34   C     C_1   0.634145 0.280253 0.280869 0.075485
C35   C     C_1   0.620594 0.219787 0.219193 0.072550
C36   C     C_1   0.609859 0.168313 0.166893 -0.293894
O11   O     O_R   0.764940 0.056420 0.942120 -0.591651
O12   O     O_R   0.431180 0.084790 0.078640 -0.590389
O13   O     O_R   0.256690 0.943640 0.057940 -0.580402
C37   C     C_R   0.599722 0.106204 0.104526 0.975920
O14   O     O_R   0.435470 0.065130 0.943840 -0.592807
O15   O     O_R   0.261010 0.923840 0.922180 -0.585947
C38   C     C_R   0.605809 0.079495 0.923825 0.974842
O16   O     O_R   0.760620 0.076220 0.077880 -0.588578
O17   O     O_3   0.592970 0.953720 0.993110 -0.261541
V3    V     V_3+5 0.319740 0.008590 0.001280 1.190784
O18   O     O_R   0.931020 0.915140 0.921290 -0.586216
C39   C     C_R   0.100223 0.893786 0.895477 0.980450
O19   O     O_R   0.926730 0.934800 0.056090 -0.576420
C40   C     C_R   0.093182 0.920534 0.076251 0.972642
V4    V     V_3+5 0.819230 0.991300 0.998610 1.203444
O20   O     O_3   0.095870 0.046270 0.006890 -0.280272
C41   C     C_3   0.980336 0.892782 0.323725 -0.578305
H3    H     H_    0.960140 0.895291 0.377639 0.265769
H4    H     H_    0.083768 0.936855 0.319975 0.221616
H5    H     H_    0.841425 0.902392 0.302940 0.270359
C42   C     C_3   0.582874 0.343701 0.884727 -0.930759
H6    H     H_    0.571706 0.402260 0.884397 0.262098
H7    H     H_    0.450920 0.327505 0.907908 0.248461
H8    H     H_    0.708670 0.338337 0.914872 0.249955
C43   C     C_3   0.278303 0.328342 0.763308 -0.978271
H9    H     H_    0.192463 0.317927 0.805255 0.257147
H10   H     H_    0.311393 0.388677 0.775694 0.254438
H11   H     H_    0.197224 0.310285 0.715475 0.260893
N1    N     N_R   0.375223 0.825209 0.352707 0.289715
O21   O     O_R   0.451236 0.888323 0.351499 -0.340002
O22   O     O_R   0.387089 0.804845 0.407253 -0.309964
N2    N     N_R   0.780608 0.731088 0.311389 0.273660
O23   O     O_R   0.649436 0.685351 0.278834 -0.381805
O24   O     O_R   0.767901 0.757109 0.376882 -0.327593
N3    N     N_R   0.879847 0.674792 0.147287 0.287026
O25   O     O_R   0.803783 0.611692 0.148511 -0.365682
O26   O     O_R   0.868126 0.695114 0.092715 -0.329686
C44   C     C_3   0.274681 0.607215 0.176278 -0.642034
H12   H     H_    0.294910 0.604702 0.122363 0.259348
H13   H     H_    0.413568 0.597590 0.197070 0.275880
H14   H     H_    0.171210 0.563151 0.180023 0.220320
N4    N     N_R   0.474445 0.768908 0.188606 0.275077
O27   O     O_R   0.605293 0.814868 0.221076 -0.380033
O28   O     O_R   0.487317 0.742682 0.123137 -0.336457
N5    N     N_R   0.672454 0.155961 0.618849 0.252920
O29   O     O_R   0.682936 0.084728 0.609136 -0.343079
O30   O     O_R   0.682189 0.181999 0.567292 -0.372726
C45   C     C_3   0.977111 0.170118 0.735477 -0.891060
H15   H     H_    0.062086 0.180208 0.693196 0.263312
H16   H     H_    0.059182 0.188342 0.783085 0.240063
H17   H     H_    0.943814 0.109836 0.723512 0.270452

loop_
_geom_bond_atom_site_label_1
_geom_bond_atom_site_label_2
_geom_bond_distance
_ccdc_geom_bond_type
O19   V4    1.981157 S    
C27   C42   1.520641 S    
C15   C17   1.543580 S    
N5    O29   1.300299 A    
C30   C45   1.514086 S    
C1    O6    1.302826 A    
C1    C23   1.450115 S    
N3    O25   1.300147 A    
C36   C37   1.465527 S    
O5    C3    1.303574 A    
C25   C26   1.541167 S    
O13   C40   1.303580 A    
V2    O10   2.159772 S    
C45   H15   1.108711 S    
C6    C7    1.440765 S    
O11   V4    1.974806 S    
O12   V3    1.968711 S    
O8    V2    1.981382 S    
C7    C8    1.223458 T    
O11   C38   1.302815 A    
O9    C4    1.307451 A    
O7    V1    2.166132 S    
C17   N3    1.456892 S    
C27   C29   1.551090 S    
V3    O20   1.716137 S    
O17   V3    2.166249 S    
O14   V3    1.970832 S    
C28   C30   1.539805 S    
C4    C5    1.465115 S    
C15   C44   1.521523 S    
O13   V3    1.969283 S    
O12   C37   1.308487 A    
C21   C22   1.543304 S    
C26   C29   1.551888 S    
O4    C2    1.308484 A    
C25   C43   1.514276 S    
N3    O26   1.300119 A    
C41   H3    1.109543 S    
C16   C20   1.484104 S    
C22   N5    1.457732 S    
N1    O22   1.300126 A    
C13   C14   1.543097 S    
N2    O23   1.298258 A    
C22   C26   1.536665 S    
C41   H4    1.109506 S    
C2    C33   1.465526 S    
C18   N2    1.455081 S    
O2    C1    1.301936 A    
C43   H9    1.108569 S    
C12   C20   1.214550 T    
C17   C18   1.542474 S    
O18   V4    1.966230 S    
O16   V4    1.966231 S    
C33   C34   1.223706 T    
C44   H14   1.109515 S    
C9    N1    1.456901 S    
N4    O28   1.299977 A    
C5    C6    1.223457 T    
C43   H10   1.109790 S    
O3    C4    1.303975 A    
O1    V2    1.961701 S    
C11   C40   1.450648 S    
C9    C16   1.549777 S    
C44   H13   1.107383 S    
C35   C36   1.223707 T    
O6    V2    1.974883 S    
N2    O24   1.300106 A    
O14   C38   1.301946 A    
C29   H2    1.105885 S    
O15   C39   1.303990 A    
C23   C31   1.214344 T    
C29   C30   1.555854 S    
C24   C32   1.214268 T    
O2    V1    1.970949 S    
C42   H7    1.109866 S    
C37   O16   1.304200 A    
C9    C13   1.542475 S    
C27   C28   1.542734 S    
C13   N4    1.455084 S    
C10   C18   1.549255 S    
O1    C2    1.304239 A    
C22   C30   1.533652 S    
O19   C40   1.300947 A    
O5    V1    1.969104 S    
C42   H8    1.109839 S    
O8    C3    1.300941 A    
N5    O30   1.300222 A    
C26   C31   1.483065 S    
C13   C15   1.549256 S    
C45   H17   1.109754 S    
C3    C12   1.450644 S    
C45   H16   1.109471 S    
C21   C25   1.556168 S    
C41   H5    1.107375 S    
C21   C28   1.551239 S    
O9    V2    1.966138 S    
O7    V2    1.711976 S    
O4    V1    1.968744 S    
O3    V1    1.962847 S    
V1    O10   1.716208 S    
O17   V4    1.710771 S    
C25   C27   1.541578 S    
C34   C35   1.441166 S    
C16   C18   1.543100 S    
N4    O27   1.298177 A    
C21   H1    1.105935 S    
C8    C39   1.465115 S    
O18   C39   1.307435 A    
C43   H11   1.109497 S    
C10   C41   1.521512 S    
N1    O21   1.300151 A    
O15   V3    1.962905 S    
C14   C19   1.484105 S    
C42   H6    1.109671 S    
C44   H12   1.109552 S    
C14   C17   1.549762 S    
V4    O20   2.159850 S    
C10   C14   1.557634 S    
C15   C16   1.557597 S    
C28   C32   1.482804 S    
C9    C10   1.543601 S    
C24   C38   1.450145 S    
C11   C19   1.214552 T    
