data_mof_unit_22.cif
_audit_creation_date              2012-12-11T17:34:24-0500
_audit_creation_method            fapswitch 2.2
_symmetry_space_group_name_H-M    P1
_symmetry_Int_Tables_number       1
_space_group_crystal_system       triclinic
_cell_length_a                    23.80963
_cell_length_b                    7.210874
_cell_length_c                    20.62784
_cell_angle_alpha                 90.000992
_cell_angle_beta                  105.681103
_cell_angle_gamma                 89.940273
_cell_volume                      3409.74216617

loop_
_atom_site_label
_atom_site_type_symbol
_atom_type_description
_atom_site_fract_x
_atom_site_fract_y
_atom_site_fract_z
_atom_type_partial_charge
O1    O     O_R   0.449110 0.494310 0.552140 -0.546995
O2    O     O_R   0.550890 0.994310 0.447860 -0.547552
O3    O     O_R   0.440010 0.824420 0.415850 -0.540292
O4    O     O_R   0.559990 0.324420 0.584150 -0.538061
C1    C     C_R   0.425184 0.655440 0.390853 0.664115
C2    C     C_R   0.574920 0.155257 0.609074 0.678890
O5    O     O_R   0.442260 0.824040 0.549660 -0.508057
O6    O     O_R   0.557740 0.324040 0.450340 -0.505862
O7    O     O_R   0.553160 0.993960 0.582620 -0.517438
O8    O     O_R   0.446840 0.493960 0.417380 -0.524277
C3    C     C_R   0.428845 0.655819 0.567920 0.718000
C4    C     C_R   0.571567 0.155585 0.432567 0.716207
O9    O     O_3   0.536380 0.660670 0.510660 -0.364799
O10   O     O_3   0.463620 0.160670 0.489340 -0.371862
V1    V     V_3+5 0.493250 0.935680 0.498020 1.523734
V2    V     V_3+5 0.506750 0.435680 0.501980 1.526597
C5    C     C_R   0.804496 0.917036 0.146922 -0.169849
C6    C     C_R   0.195227 0.417566 0.852559 -0.170508
C7    C     C_R   0.845160 0.908291 0.107257 0.209324
C8    C     C_R   0.154826 0.408972 0.892552 0.211213
C9    C     C_R   0.884350 0.057774 0.108045 -0.095660
C10   C     C_R   0.114990 0.557166 0.891150 -0.098994
C11   C     C_R   0.882370 0.214237 0.149059 0.300917
C12   C     C_R   0.115700 0.711578 0.848796 0.302582
C13   C     C_R   0.842790 0.218637 0.188884 -0.219751
C14   C     C_R   0.155098 0.715953 0.808711 -0.222433
H1    H     H_    0.841845 0.338023 0.220544 0.147806
H2    H     H_    0.155188 0.833967 0.776157 0.147140
C15   C     C_R   0.804448 0.072338 0.188587 0.009206
C16   C     C_R   0.194326 0.571279 0.809875 0.006827
C17   C     C_1   0.764319 0.087523 0.230492 0.073534
C18   C     C_1   0.234442 0.586618 0.767913 0.071830
C19   C     C_1   0.731181 0.100278 0.265725 0.025953
C20   C     C_1   0.267730 0.599594 0.732843 0.023320
C21   C     C_R   0.659068 0.962333 0.317918 -0.112598
C22   C     C_R   0.319429 0.462203 0.655325 -0.108738
H3    H     H_    0.663065 0.831071 0.293956 0.151307
H4    H     H_    0.298602 0.330204 0.658450 0.139529
C23   C     C_R   0.620728 0.976919 0.358510 -0.222520
C24   C     C_R   0.358318 0.477270 0.615372 -0.234646
H5    H     H_    0.595805 0.855416 0.364219 0.166572
H6    H     H_    0.366130 0.355571 0.588292 0.163290
C25   C     C_R   0.614011 0.145388 0.390510 -0.076506
C26   C     C_R   0.386527 0.646371 0.610073 -0.071619
C27   C     C_R   0.647613 0.300680 0.381016 0.376588
C28   C     C_R   0.374520 0.802273 0.646251 0.380775
C29   C     C_R   0.686021 0.283679 0.339599 -0.192461
C30   C     C_R   0.334962 0.784859 0.686224 -0.198970
H7    H     H_    0.711638 0.401869 0.332039 0.128966
H8    H     H_    0.325791 0.903340 0.714082 0.138739
C31   C     C_R   0.691702 0.115534 0.308061 0.077098
C32   C     C_R   0.307619 0.615627 0.690982 0.079862
C33   C     C_R   0.637793 0.092800 0.797770 -0.053428
C34   C     C_R   0.361886 0.596940 0.201938 -0.057674
H9    H     H_    0.725911 0.053099 0.912915 0.149509
H10   H     H_    0.273049 0.608138 0.086732 0.146015
C35   C     C_R   0.617695 0.143984 0.676514 -0.233693
C36   C     C_R   0.382274 0.644841 0.323509 -0.226264
C37   C     C_R   0.902060 0.045632 0.766535 0.246892
C38   C     C_R   0.098145 0.522583 0.233176 0.246263
C39   C     C_R   0.862618 0.007254 0.703048 0.260460
C40   C     C_R   0.138433 0.496030 0.297072 0.253986
C41   C     C_R   0.801975 0.004972 0.696150 -0.045570
C42   C     C_R   0.198805 0.492603 0.302912 -0.043723
C43   C     C_R   0.780069 0.058342 0.751419 -0.001329
C44   C     C_R   0.220112 0.555639 0.248384 0.000209
C45   C     C_R   0.820419 0.060493 0.816750 -0.039508
C46   C     C_R   0.179330 0.569727 0.183518 -0.037687
C47   C     C_R   0.719090 0.094357 0.745086 0.100555
C48   C     C_R   0.280952 0.593727 0.255040 0.097381
C49   C     C_R   0.698558 0.083779 0.803636 -0.071284
C50   C     C_R   0.301134 0.592288 0.196269 -0.068070
C51   C     C_R   0.739300 0.063796 0.867016 -0.099144
C52   C     C_R   0.259927 0.595092 0.132775 -0.090988
C53   C     C_R   0.798871 0.062498 0.873588 -0.118110
C54   C     C_R   0.200419 0.591914 0.126759 -0.119526
C55   C     C_R   0.678826 0.149857 0.683344 0.286112
C56   C     C_R   0.321200 0.645352 0.317243 0.288322
C57   C     C_R   0.597488 0.113496 0.734244 0.299403
C58   C     C_R   0.402330 0.618008 0.265427 0.297228
C59   C     C_R   0.881459 0.054474 0.823992 -0.157364
C60   C     C_R   0.118438 0.553465 0.176247 -0.157333
H11   H     H_    0.827971 0.056457 0.923976 0.095028
H12   H     H_    0.171007 0.600965 0.076618 0.091855
O11   O     O_R   0.053190 0.709680 0.082610 -0.541831
O12   O     O_R   0.946810 0.209680 0.917390 -0.538762
O13   O     O_R   0.057740 0.380240 0.950340 -0.509245
O14   O     O_R   0.942260 0.880240 0.049660 -0.509661
C61   C     C_R   0.071701 0.548702 0.932595 0.746325
C62   C     C_R   0.928115 0.048874 0.067181 0.743387
O15   O     O_R   0.060000 0.379940 0.084150 -0.531936
O16   O     O_R   0.940000 0.879940 0.915850 -0.534582
O17   O     O_R   0.949110 0.210100 0.052140 -0.511738
O18   O     O_R   0.050890 0.710100 0.947860 -0.514085
C63   C     C_R   0.074909 0.548277 0.109153 0.777933
C64   C     C_R   0.925108 0.048440 0.890885 0.778333
O19   O     O_3   0.963630 0.543720 0.989330 -0.371553
O20   O     O_3   0.036370 0.043720 0.010670 -0.373114
V3    V     V_3+5 0.006750 0.268680 0.001980 1.584259
V4    V     V_3+5 0.993250 0.768680 0.998020 1.579925
C65   C     C_2   0.760697 0.767219 0.143124 0.804636
O21   O     O_2   0.756472 0.692193 0.194659 -0.537953
O22   O     O_R   0.723827 0.710810 0.081359 -0.621307
H13   H     H_    0.728606 0.788027 0.042148 0.284361
C66   C     C_2   0.239734 0.269307 0.857078 0.802931
O23   O     O_2   0.244228 0.192718 0.805921 -0.537886
O24   O     O_R   0.276941 0.216044 0.919098 -0.621289
H14   H     H_    0.271870 0.294382 0.957917 0.297753
C67   C     C_2   0.614520 0.080405 0.857572 0.862791
O25   O     O_2   0.630226 0.191537 0.903700 -0.548681
O26   O     O_R   0.573072 0.945142 0.859836 -0.615677
H15   H     H_    0.560009 0.951594 0.902664 0.320369
C68   C     C_2   0.384848 0.573228 0.142152 0.863808
O27   O     O_2   0.367096 0.446632 0.102455 -0.553160
O28   O     O_R   0.427978 0.693046 0.132390 -0.614608
H16   H     H_    0.440459 0.662068 0.090387 0.320371
O29   O     O_3   0.700762 0.220857 0.632781 -0.633153
H17   H     H_    0.668987 0.270196 0.595454 0.303576
O30   O     O_3   0.299161 0.708909 0.368814 -0.635601
H18   H     H_    0.330757 0.757345 0.406494 0.294135
O31   O     O_3   0.961310 0.064016 0.774607 -0.635243
H19   H     H_    0.967542 0.112544 0.732163 0.302022
O32   O     O_3   0.038648 0.505439 0.223694 -0.632738
H20   H     H_    0.031279 0.419039 0.257772 0.310241
C69   C     C_2   0.764124 0.910264 0.635814 0.914801
O33   O     O_2   0.726687 0.801109 0.642236 -0.565307
O34   O     O_R   0.771476 0.944799 0.571879 -0.606719
H21   H     H_    0.742913 0.872824 0.535140 0.300317
C70   C     C_2   0.237249 0.393568 0.361867 0.910528
O35   O     O_2   0.275104 0.288275 0.353755 -0.569124
O36   O     O_R   0.230064 0.419358 0.426366 -0.607793
H22   H     H_    0.259107 0.345180 0.461967 0.295472
O37   O     O_3   0.882247 0.956985 0.648260 -0.609470
H23   H     H_    0.921684 0.901859 0.664376 0.309857
O38   O     O_3   0.119860 0.463208 0.353922 -0.609431
H24   H     H_    0.083411 0.533941 0.350058 0.311468
O39   O     O_3   0.847204 0.756846 0.066758 -0.629174
H25   H     H_    0.830727 0.646734 0.083536 0.308623
O40   O     O_3   0.153627 0.258828 0.933920 -0.628567
H26   H     H_    0.170128 0.148397 0.917283 0.306937
O41   O     O_3   0.920300 0.360300 0.150915 -0.611891
H27   H     H_    0.912732 0.458650 0.181113 0.307468
O42   O     O_3   0.076589 0.855236 0.845770 -0.609382
H28   H     H_    0.083366 0.952512 0.814746 0.309374
O43   O     O_3   0.643078 0.466406 0.412843 -0.636060
H29   H     H_    0.669524 0.558968 0.401127 0.283629
O44   O     O_3   0.402470 0.968569 0.643277 -0.636855
H30   H     H_    0.389773 0.061219 0.671937 0.291319
O45   O     O_3   0.538651 0.111966 0.731595 -0.606176
H31   H     H_    0.514600 0.151492 0.686820 0.306444
O46   O     O_3   0.461166 0.611400 0.268219 -0.611886
H32   H     H_    0.485468 0.648970 0.313105 0.290254

loop_
_geom_bond_atom_site_label_1
_geom_bond_atom_site_label_2
_ccdc_geom_bond_type
C37   O31   S    
C58   O46   S    
C44   C46   A    
C41   C43   A    
C65   O21   D    
C48   C56   A    
O29   H17   S    
C5    C15   A    
C35   C57   A    
C47   C55   A    
O44   H30   S    
O1    C3    A    
O2    C4    A    
C54   H12   S    
C2    O7    A    
O43   H29   S    
C39   O37   S    
O32   H20   S    
C29   H7    S    
C44   C48   A    
O5    C3    A    
C66   O24   S    
C52   C54   A    
C1    C36   S    
C27   O43   S    
C8    O40   S    
C21   H3    S    
C12   C14   A    
C70   O35   D    
C4    C25   S    
C55   O29   S    
C67   O26   S    
C12   O42   S    
O28   H16   S    
C34   C68   S    
O16   C64   A    
C33   C57   A    
C38   C40   A    
C61   O18   A    
C47   C49   A    
C5    C65   S    
C40   C42   A    
C38   C60   A    
O26   H15   S    
C43   C45   A    
O46   H32   S    
C17   C19   T    
C6    C16   A    
O18   V4    S    
O17   V3    S    
C24   C26   A    
O13   V3    S    
C22   C32   A    
C36   C58   A    
C57   O45   S    
C30   H8    S    
C65   O22   S    
C51   C53   A    
C2    C35   S    
C26   C28   A    
C34   C58   A    
C9    C62   S    
C27   C29   A    
C13   C15   A    
C28   C30   A    
C37   C39   A    
H10   C52   S    
C35   C55   A    
O38   H24   S    
C23   H5    S    
C49   C51   A    
C59   C64   S    
C23   C25   A    
O5    V1    S    
C42   C44   A    
C40   O38   S    
O4    V2    S    
C38   O32   S    
C21   C23   A    
O12   V3    S    
C7    O39   S    
C28   O44   S    
C22   C24   A    
O6    C4    A    
C39   C41   A    
C3    C26   S    
O1    V2    S    
C41   C69   S    
C46   C54   A    
C70   O36   S    
O30   H18   S    
O2    V1    S    
C25   C27   A    
O31   H19   S    
O14   V4    S    
O12   C64   A    
C50   C52   A    
O14   C62   A    
C14   C16   A    
C9    C11   A    
C21   C31   A    
C69   O33   D    
C10   C12   A    
O4    C2    A    
C45   C53   A    
O24   H14   S    
O34   H21   S    
C33   C49   A    
O19   V4    S    
O3    V1    S    
O16   V4    S    
C62   O17   A    
C68   O27   D    
C66   O23   D    
C33   C67   S    
C60   C63   S    
C7    C9    A    
C20   C32   S    
C37   C59   A    
C8    C10   A    
O3    C1    A    
C29   C31   A    
O40   H26   S    
C45   C59   A    
C19   C31   S    
O39   H25   S    
C14   H2    S    
C46   C60   A    
O13   C61   A    
C56   O30   S    
O7    V1    S    
C6    C66   S    
C1    O8    A    
C15   C17   S    
O11   V4    S    
O8    V2    S    
O45   H31   S    
C22   H4    S    
C16   C18   S    
O11   C63   A    
C53   H11   S    
O37   H23   S    
C43   C47   A    
C24   H6    S    
C5    C7    A    
C10   C61   S    
C6    C8    A    
C11   C13   A    
O36   H22   S    
C36   C56   A    
O15   C63   A    
H9    C51   S    
C30   C32   A    
C34   C50   A    
C42   C70   S    
O6    V2    S    
O20   V3    S    
O9    V2    S    
C67   O25   D    
O22   H13   S    
C69   O34   S    
O10   V1    S    
C11   O41   S    
C48   C50   A    
O15   V3    S    
O41   H27   S    
O42   H28   S    
C18   C20   T    
C68   O28   S    
C13   H1    S    
