data_mof_unit_766.cif
_audit_creation_date              2012-12-10T16:51:18-0500
_audit_creation_method            fapswitch 2.2
_symmetry_space_group_name_H-M    P1
_symmetry_Int_Tables_number       1
_space_group_crystal_system       triclinic
_cell_length_a                    27.813176
_cell_length_b                    8.66711
_cell_length_c                    7.423885
_cell_angle_alpha                 103.048758
_cell_angle_beta                  94.02449
_cell_angle_gamma                 92.429343
_cell_volume                      1735.96583066

loop_
_atom_site_label
_atom_site_type_symbol
_atom_type_description
_atom_site_fract_x
_atom_site_fract_y
_atom_site_fract_z
_atom_type_partial_charge
C1    C     C_R   0.498536 0.199570 0.453102 0.906965
C2    C     C_R   0.501461 0.800430 0.546898 0.905794
C3    C     C_R   0.101965 0.495988 0.502232 -0.041672
C4    C     C_R   0.897997 0.500431 0.492314 -0.039610
C5    C     C_R   0.126203 0.367376 0.544287 -0.025249
C6    C     C_R   0.873758 0.629021 0.450185 -0.015702
C7    C     C_R   0.099690 0.240326 0.583134 -0.153187
C8    C     C_R   0.900226 0.755255 0.409322 -0.132349
C9    C     C_R   0.129080 0.623747 0.463195 -0.019134
C10   C     C_R   0.870919 0.373308 0.532947 -0.019341
C11   C     C_R   0.354688 0.507496 0.508972 -0.093435
C12   C     C_R   0.645352 0.492275 0.491102 -0.040135
C13   C     C_R   0.972893 0.367787 0.536371 0.044784
C14   C     C_R   0.027034 0.627992 0.456599 0.045244
C15   C     C_R   0.975859 0.628834 0.453396 0.044475
C16   C     C_R   0.024055 0.366709 0.538981 0.045709
C17   C     C_R   0.949148 0.498980 0.493941 0.070701
C18   C     C_R   0.050784 0.496890 0.499249 0.069052
C19   C     C_R   0.944318 0.241727 0.575065 -0.211193
C20   C     C_R   0.055628 0.754427 0.418850 -0.214778
C21   C     C_R   0.894474 0.244865 0.573424 -0.140438
C22   C     C_R   0.105508 0.751933 0.422087 -0.144444
C23   C     C_R   0.407590 0.504459 0.503554 0.843298
C24   C     C_R   0.592424 0.495504 0.496433 0.838332
C25   C     C_R   0.049748 0.239599 0.580602 -0.213208
C26   C     C_R   0.950147 0.755559 0.410813 -0.210003
C27   C     C_2   0.497850 0.031617 0.426631 -0.339369
C28   C     C_2   0.502141 0.968382 0.573371 -0.337861
C29   C     C_R   0.176713 0.368815 0.546110 0.529346
C30   C     C_R   0.823298 0.628478 0.450560 0.604594
C31   C     C_R   0.179477 0.620155 0.465794 0.531610
C32   C     C_R   0.820582 0.377886 0.532795 0.587813
C33   C     C_R   0.281858 0.573549 0.664914 -0.134055
C34   C     C_R   0.718247 0.428867 0.334820 -0.230103
C35   C     C_R   0.332192 0.586284 0.667382 -0.041089
C36   C     C_R   0.667911 0.416272 0.331655 -0.038229
C37   C     C_R   0.325811 0.425636 0.350142 -0.216288
C38   C     C_R   0.674205 0.571092 0.651379 -0.339720
C39   C     C_R   0.275353 0.418769 0.346036 0.013394
C40   C     C_R   0.724605 0.577707 0.656654 0.026971
C41   C     C_R   0.253538 0.492463 0.506094 0.277181
C42   C     C_R   0.746600 0.506694 0.495146 0.358304
Cu1   Cu    Cu3+1 0.505380 0.517380 0.684380 0.999895
Cu2   Cu    Cu3+1 0.494620 0.482620 0.315620 1.001782
H1    H     H_    0.342798 0.365948 0.228606 0.198792
H2    H     H_    0.657261 0.628736 0.774061 0.157471
H3    H     H_    0.462168 0.378174 0.948320 0.229659
H4    H     H_    0.537834 0.621820 0.051679 0.225152
H5    H     H_    0.117477 0.140055 0.615916 0.187950
H6    H     H_    0.882429 0.855356 0.376113 0.188416
H7    H     H_    0.736026 0.371795 0.214012 0.145039
H8    H     H_    0.264084 0.632811 0.784713 0.146862
H9    H     H_    0.874419 0.145487 0.604674 0.194733
H10   H     H_    0.125585 0.851704 0.391823 0.192428
H11   H     H_    0.959051 0.137811 0.608018 0.138405
H12   H     H_    0.040892 0.858352 0.385946 0.137983
H13   H     H_    0.032620 0.136574 0.612526 0.136284
H14   H     H_    0.967242 0.857957 0.377343 0.136199
H15   H     H_    0.493816 0.959726 0.285342 0.191797
H16   H     H_    0.506175 0.040272 0.714660 0.192292
N1    N     N_R   0.202066 0.493658 0.506132 -0.480778
N2    N     N_R   0.798022 0.504831 0.493506 -0.447277
N3    N     N_2   0.486510 0.456430 0.038510 -0.201923
N4    N     N_2   0.513490 0.543570 0.961490 -0.204478
O1    O     O_R   0.503500 0.286120 0.619780 -0.593486
O2    O     O_R   0.496500 0.713880 0.380220 -0.594055
O3    O     O_R   0.494410 0.256780 0.308360 -0.558869
O4    O     O_R   0.505590 0.743220 0.691640 -0.560145
O5    O     O_R   0.434810 0.514700 0.655690 -0.557604
O6    O     O_R   0.565190 0.485300 0.344310 -0.562270
O7    O     O_R   0.425720 0.485350 0.344280 -0.596684
O8    O     O_R   0.574280 0.514650 0.655720 -0.596431
O9    O     O_2   0.200344 0.246563 0.586818 -0.490910
O10   O     O_2   0.799652 0.750575 0.409508 -0.518178
O11   O     O_2   0.794317 0.257002 0.572428 -0.517385
O12   O     O_2   0.205773 0.741654 0.427654 -0.510471
C43   C     C_2   0.245631 0.336255 0.174598 0.421164
H17   H     H_    0.206526 0.330501 0.170826 0.074187
O13   O     O_2   0.264434 0.273997 0.034595 -0.512139
C44   C     C_2   0.752355 0.658618 0.833685 0.405660
H18   H     H_    0.733189 0.712087 0.952472 0.082285
O14   O     O_2   0.796408 0.666513 0.850916 -0.526321
C45   C     C_2   0.641563 0.315039 0.162813 0.385487
H19   H     H_    0.655841 0.307280 0.028840 0.071795
O15   O     O_2   0.605798 0.231499 0.172205 -0.527941
C46   C     C_2   0.358611 0.690538 0.834065 0.409514
H20   H     H_    0.344219 0.702236 0.968427 0.078327
O16   O     O_2   0.394610 0.772070 0.822204 -0.525189

loop_
_geom_bond_atom_site_label_1
_geom_bond_atom_site_label_2
_ccdc_geom_bond_type
C38   C40   A    
Cu1   O8    S    
C8    C26   A    
C14   C18   A    
Cu2   O2    S    
C34   C42   A    
C41   N1    S    
C20   H12   S    
C32   O11   S    
C24   O6    A    
C39   C41   A    
C43   H17   S    
C33   H8    S    
C34   H7    S    
C3    C18   A    
C39   C43   S    
C19   C21   A    
C2    O4    A    
H3    N3    S    
C30   O10   S    
C35   C46   S    
C46   O16   D    
C9    C22   A    
H4    N4    S    
C29   O9    S    
C36   C45   S    
Cu2   O7    S    
C11   C37   A    
C31   N1    A    
C33   C35   A    
Cu1   O4    S    
C1    O1    A    
C40   C44   S    
Cu2   O6    S    
C12   C36   A    
C42   N2    S    
C40   C42   A    
Cu2   N3    S    
C22   H10   S    
C25   H13   S    
Cu1   N4    S    
C5    C29   A    
C28   H16   S    
C10   C21   A    
C29   N1    A    
C13   C19   A    
C14   C20   A    
C7    H5    S    
C4    C6    A    
C5    C7    A    
C46   H20   S    
C15   C26   A    
C6    C8    A    
C3    C5    A    
C23   O5    A    
Cu1   Cu2   S    
C3    C9    A    
C23   O7    A    
C45   H19   S    
Cu1   O1    S    
C43   O13   D    
C26   H14   S    
C4    C17   A    
C44   O14   D    
C45   O15   D    
C20   C22   A    
C30   N2    A    
C4    C10   A    
C8    H6    S    
C24   O8    A    
C19   H11   S    
C16   C25   A    
C15   C17   A    
C6    C30   A    
C44   H18   S    
C2    O2    A    
C12   C24   S    
C7    C25   A    
C13   C17   A    
C33   C41   A    
C11   C35   A    
C32   N2    A    
C37   C39   A    
C27   H15   S    
C21   H9    S    
C31   O12   S    
C11   C23   S    
C1    O3    A    
C34   C36   A    
C12   C38   A    
C38   H2    S    
C9    C31   A    
N3    N4    D    
C10   C32   A    
C16   C18   A    
C13   C16   A    
C27   C28   D    
C1    C27   S    
C14   C15   A    
Cu2   O3    S    
C2    C28   S    
Cu1   O5    S    
C37   H1    S    
