data_mof_unit_402.cif
_audit_creation_date              2012-12-11T16:45:26-0500
_audit_creation_method            fapswitch 2.2
_symmetry_space_group_name_H-M    P1
_symmetry_Int_Tables_number       1
_space_group_crystal_system       triclinic
_cell_length_a                    20.157101
_cell_length_b                    17.137825
_cell_length_c                    15.432714
_cell_angle_alpha                 90.173324
_cell_angle_beta                  52.319635
_cell_angle_gamma                 90.054378
_cell_volume                      4219.27663019

loop_
_atom_site_label
_atom_site_type_symbol
_atom_type_description
_atom_site_fract_x
_atom_site_fract_y
_atom_site_fract_z
_atom_type_partial_charge
C1    C     C_R   0.881013 0.695122 0.985886 -0.060192
C2    C     C_R   0.188676 0.330405 0.015275 0.080230
C3    C     C_3   0.544955 0.926647 0.653870 -1.110391
C4    C     C_R   0.340721 0.814551 0.943283 0.089016
C5    C     C_R   0.688706 0.830425 0.015228 0.080230
C6    C     C_R   0.811312 0.640870 0.325429 0.084293
C7    C     C_R   0.118249 0.681055 0.691189 0.083993
C8    C     C_R   0.311313 0.140871 0.325430 0.084289
C9    C     C_R   0.618251 0.181054 0.691187 0.083988
C10   C     C_R   0.705610 0.637058 0.529189 0.159943
C11   C     C_R   0.160594 0.706154 0.507317 0.145006
C12   C     C_R   0.205611 0.137058 0.529190 0.159941
C13   C     C_R   0.132722 0.691074 0.997176 -0.064521
C14   C     C_R   0.660596 0.206153 0.507316 0.145018
C15   C     C_R   0.731758 0.665029 0.427386 0.037574
C16   C     C_R   0.137012 0.735236 0.607412 0.033810
C17   C     C_R   0.231759 0.165029 0.427387 0.037573
C18   C     C_R   0.637014 0.235235 0.607410 0.033800
C19   C     C_R   0.185688 0.226009 0.427166 -0.203880
C20   C     C_R   0.645320 0.315624 0.616976 -0.168185
C21   C     C_R   0.685689 0.726009 0.427165 -0.203882
C22   C     C_R   0.145319 0.815624 0.616977 -0.168139
C23   C     C_R   0.133373 0.271345 0.521127 -0.199729
C24   C     C_R   0.381006 0.195120 0.985893 -0.060196
C25   C     C_R   0.697135 0.359728 0.521824 -0.193407
C26   C     C_R   0.633374 0.771345 0.521126 -0.199734
C27   C     C_R   0.197135 0.859729 0.521824 -0.193434
C28   C     C_R   0.124639 0.254490 0.617304 0.045546
C29   C     C_R   0.740863 0.321892 0.419910 0.049263
C30   C     C_R   0.624640 0.754491 0.617303 0.045547
C31   C     C_R   0.240863 0.821892 0.419911 0.049264
C32   C     C_R   0.652323 0.680945 0.622911 0.166778
C33   C     C_R   0.212206 0.749336 0.414120 0.150548
C34   C     C_R   0.152322 0.180945 0.622912 0.166777
C35   C     C_R   0.632701 0.191082 0.997209 -0.064533
C36   C     C_R   0.712207 0.249335 0.414119 0.150554
C37   C     C_3   0.696032 0.656282 0.669432 -0.519018
C38   C     C_3   0.259734 0.678969 0.345819 -0.499284
C39   C     C_3   0.196031 0.156282 0.669433 -0.519014
C40   C     C_3   0.759736 0.178969 0.345818 -0.499294
C41   C     C_R   0.852330 0.328618 0.219270 -0.216780
C42   C     C_R   0.097147 0.302137 0.792015 -0.206856
C43   C     C_R   0.352330 0.828617 0.219270 -0.216775
C44   C     C_R   0.597148 0.802137 0.792014 -0.206857
C45   C     C_3   0.753923 0.608594 0.567520 -0.524902
C46   C     C_R   0.818184 0.352755 0.323846 0.037831
C47   C     C_3   0.203382 0.631321 0.448157 -0.509664
C48   C     C_3   0.253924 0.108595 0.567521 -0.524895
C49   C     C_3   0.703384 0.131321 0.448155 -0.509671
C50   C     C_2   0.733868 0.218777 0.033235 -0.132399
C51   C     C_2   0.298550 0.234467 0.924062 -0.137277
C52   C     C_2   0.233901 0.718758 0.033188 -0.132451
C53   C     C_2   0.798579 0.734480 0.924024 -0.137268
C54   C     C_2   0.287226 0.760508 0.942296 -0.085437
C55   C     C_2   0.749561 0.782988 0.009040 -0.106290
C56   C     C_2   0.787191 0.260525 0.942339 -0.085482
C57   C     C_R   0.105390 0.315471 0.697413 0.019425
C58   C     C_2   0.249521 0.282959 0.009096 -0.106230
C59   C     C_R   0.859671 0.390713 0.905357 -0.153588
C60   C     C_R   0.156155 0.400206 0.071898 -0.184331
C61   C     C_R   0.359681 0.890708 0.905345 -0.153561
C62   C     C_R   0.656174 0.900220 0.071867 -0.184364
C63   C     C_R   0.862393 0.583123 0.316190 -0.162447
C64   C     C_R   0.096672 0.605112 0.694544 -0.139007
C65   C     C_R   0.362394 0.083123 0.316191 -0.162441
C66   C     C_R   0.596673 0.105112 0.694544 -0.139000
C67   C     C_R   0.876410 0.299445 0.993336 0.292506
C68   C     C_R   0.318184 0.852755 0.323846 0.037831
C69   C     C_R   0.144120 0.307932 0.978612 0.326292
C70   C     C_R   0.376418 0.799442 0.993328 0.292484
C71   C     C_R   0.644137 0.807942 0.978587 0.326311
C72   C     C_R   0.850666 0.671219 0.221211 -0.132872
C73   C     C_R   0.107241 0.696427 0.787073 -0.139963
C74   C     C_R   0.350666 0.171219 0.221212 -0.132858
C75   C     C_R   0.607244 0.196426 0.787071 -0.140010
C76   C     C_R   0.871902 0.407880 0.317395 0.306942
C77   C     C_R   0.086699 0.393876 0.699648 0.355367
C78   C     C_R   0.371902 0.907880 0.317395 0.306938
C79   C     C_R   0.605391 0.815471 0.697412 0.019425
C80   C     C_R   0.586700 0.893876 0.699647 0.355366
C81   C     C_R   0.864585 0.602186 0.898759 -0.165370
C82   C     C_R   0.148175 0.596627 0.084354 -0.153744
C83   C     C_R   0.364578 0.102183 0.898768 -0.165364
C84   C     C_R   0.648155 0.096637 0.084384 -0.153765
C85   C     C_R   0.848774 0.679735 0.931238 0.133163
C86   C     C_R   0.174165 0.670285 0.038492 0.115741
C87   C     C_R   0.348761 0.179731 0.931254 0.133131
C88   C     C_R   0.674132 0.170301 0.038543 0.115770
C89   C     C_2   0.910266 0.771927 0.994572 0.447667
C90   C     C_R   0.840706 0.314558 0.943302 0.089015
C91   C     C_2   0.108321 0.771077 0.991062 0.485270
C92   C     C_2   0.410239 0.271929 0.994607 0.447675
C93   C     C_2   0.608292 0.271084 0.991105 0.485271
C94   C     C_3   0.903433 0.220572 0.003918 -1.068330
C95   C     C_3   0.131967 0.225585 0.957655 -1.069179
C96   C     C_3   0.403445 0.720572 0.003914 -1.068311
C97   C     C_3   0.631991 0.725593 0.957631 -1.069178
C98   C     C_3   0.891583 0.414482 0.396721 -1.066801
C99   C     C_3   0.044953 0.426646 0.653872 -1.110385
C100  C     C_3   0.391582 0.914482 0.396721 -1.066790
H1    H     H_    0.110491 0.323694 0.510066 0.157293
H2    H     H_    0.326260 0.678504 0.314310 0.210288
H3    H     H_    0.155434 0.119927 0.744118 0.205721
H4    H     H_    0.826262 0.178505 0.314308 0.210286
H5    H     H_    0.819417 0.630663 0.518025 0.204380
H6    H     H_    0.161508 0.591679 0.444362 0.190946
H7    H     H_    0.319417 0.130664 0.518026 0.204382
H8    H     H_    0.661511 0.091678 0.444361 0.190945
H9    H     H_    0.746282 0.544923 0.584047 0.191929
H10   H     H_    0.237780 0.603499 0.475184 0.208131
H11   H     H_    0.246284 0.044923 0.584047 0.191930
H12   H     H_    0.709630 0.419919 0.528330 0.132809
H13   H     H_    0.737782 0.103499 0.475182 0.208130
H14   H     H_    0.731183 0.222785 0.105478 0.118882
H15   H     H_    0.296946 0.231266 0.855183 0.136192
H16   H     H_    0.231205 0.722768 0.105438 0.118891
H17   H     H_    0.796967 0.731265 0.855151 0.136192
H18   H     H_    0.286580 0.758930 0.872388 0.130294
H19   H     H_    0.750685 0.785448 0.078471 0.119227
H20   H     H_    0.786537 0.258947 0.872439 0.130258
H21   H     H_    0.250637 0.285407 0.078534 0.119251
H22   H     H_    0.826281 0.287268 0.195303 0.150852
H23   H     H_    0.610493 0.823695 0.510065 0.157293
H24   H     H_    0.087199 0.245769 0.828155 0.151779
H25   H     H_    0.326282 0.787268 0.195302 0.150850
H26   H     H_    0.587201 0.745769 0.828153 0.151779
H27   H     H_    0.847939 0.418899 0.853294 0.128367
H28   H     H_    0.171117 0.429643 0.120010 0.120705
H29   H     H_    0.347954 0.918892 0.853275 0.128380
H30   H     H_    0.671145 0.929661 0.119968 0.120700
H31   H     H_    0.851684 0.548483 0.380426 0.136952
H32   H     H_    0.084685 0.578438 0.642299 0.121587
H33   H     H_    0.351685 0.048484 0.380426 0.136951
H34   H     H_    0.209630 0.919919 0.528330 0.132814
H35   H     H_    0.584686 0.078438 0.642298 0.121585
H36   H     H_    0.826791 0.716244 0.198590 0.077496
H37   H     H_    0.108865 0.753285 0.815128 0.094760
H38   H     H_    0.326791 0.216245 0.198593 0.077499
H39   H     H_    0.608874 0.253284 0.815122 0.094725
H40   H     H_    0.855207 0.573434 0.844522 0.109597
H41   H     H_    0.161434 0.567441 0.134230 0.103516
H42   H     H_    0.355194 0.073429 0.844537 0.109606
H43   H     H_    0.661407 0.067452 0.134267 0.103506
H44   H     H_    0.198095 0.245786 0.352027 0.128000
H45   H     H_    0.729623 0.704662 0.675879 0.203628
H46   H     H_    0.620880 0.342163 0.694956 0.150606
H47   H     H_    0.698095 0.745787 0.352026 0.127998
H48   H     H_    0.120879 0.842163 0.694957 0.150641
H49   H     H_    0.928881 0.778890 0.046483 0.001988
H50   H     H_    0.060957 0.779217 0.980302 -0.003643
H51   H     H_    0.428899 0.278874 0.046470 0.002013
H52   H     H_    0.560964 0.279226 0.980280 -0.003665
H53   H     H_    0.944604 0.227631 0.027793 0.252445
H54   H     H_    0.849719 0.184489 0.067669 0.245349
H55   H     H_    0.938417 0.189221 0.924323 0.264964
H56   H     H_    0.249809 0.666886 0.283664 0.187098
H57   H     H_    0.067112 0.216935 0.987277 0.253109
H58   H     H_    0.176506 0.212012 0.869129 0.244431
H59   H     H_    0.141868 0.183722 0.003536 0.266625
H60   H     H_    0.444619 0.727637 0.027781 0.252445
H61   H     H_    0.349732 0.684492 0.067671 0.245350
H62   H     H_    0.438427 0.689219 0.924320 0.264962
H63   H     H_    0.567135 0.716936 0.987256 0.253107
H64   H     H_    0.676528 0.712020 0.869105 0.244429
H65   H     H_    0.641896 0.683733 0.003511 0.266627
H66   H     H_    0.838984 0.440060 0.475737 0.240417
H67   H     H_    0.229622 0.204661 0.675882 0.203629
H68   H     H_    0.904992 0.355556 0.412329 0.267117
H69   H     H_    0.948088 0.451276 0.361421 0.252188
H70   H     H_    0.092649 0.449140 0.569903 0.248485
H71   H     H_    0.004243 0.382162 0.655311 0.254375
H72   H     H_    0.001780 0.474710 0.706242 0.254036
H73   H     H_    0.338984 0.940060 0.475738 0.240417
H74   H     H_    0.404992 0.855556 0.412329 0.267117
H75   H     H_    0.448087 0.951276 0.361422 0.252187
H76   H     H_    0.592652 0.949140 0.569901 0.248485
H77   H     H_    0.504245 0.882163 0.655309 0.254375
H78   H     H_    0.749811 0.166885 0.283663 0.187099
H79   H     H_    0.501782 0.974711 0.706239 0.254036
H80   H     H_    0.655434 0.619928 0.744118 0.205720
N1    N     N_R   0.908660 0.628630 0.995840 -0.075468
N2    N     N_R   0.096530 0.421430 0.063580 -0.055560
N3    N     N_R   0.403470 0.921430 0.936420 -0.055109
N4    N     N_R   0.596530 0.921430 0.063580 -0.055555
N5    N     N_R   0.927500 0.575670 0.211370 -0.038538
N6    N     N_R   0.072500 0.575670 0.788630 -0.037040
N7    N     N_R   0.427500 0.075670 0.211370 -0.038536
N8    N     N_R   0.572500 0.075670 0.788630 -0.037038
N9    N     N_R   0.908660 0.365680 0.995820 -0.055238
N10   N     N_R   0.091340 0.365680 0.004180 -0.056733
N11   N     N_R   0.408660 0.865680 0.995820 -0.055238
N12   N     N_R   0.091340 0.628630 0.004160 -0.079410
N13   N     N_R   0.591340 0.865680 0.004180 -0.056734
N14   N     N_R   0.922310 0.631420 0.151980 -0.054215
N15   N     N_R   0.077690 0.631420 0.848020 -0.053193
N16   N     N_R   0.422310 0.131420 0.151980 -0.054215
N17   N     N_R   0.577690 0.131420 0.848020 -0.053185
N18   N     N_R   0.927500 0.426330 0.211360 -0.052774
N19   N     N_R   0.072500 0.426330 0.788640 -0.056173
N20   N     N_R   0.427500 0.926330 0.211360 -0.052774
N21   N     N_R   0.572500 0.926330 0.788640 -0.056172
N22   N     N_R   0.903470 0.570760 0.936440 -0.041101
N23   N     N_R   0.408660 0.128630 0.995840 -0.075474
N24   N     N_R   0.096530 0.570760 0.063560 -0.041852
N25   N     N_R   0.403470 0.070760 0.936440 -0.041103
N26   N     N_R   0.596530 0.070760 0.063560 -0.041846
N27   N     N_R   0.591340 0.128630 0.004160 -0.079402
N28   N     N_R   0.922310 0.368460 0.151950 -0.049947
N29   N     N_R   0.077690 0.368460 0.848050 -0.049787
N30   N     N_R   0.422310 0.868460 0.151950 -0.049947
N31   N     N_R   0.577690 0.868460 0.848050 -0.049788
N32   N     N_R   0.903470 0.421430 0.936420 -0.055104
Ni1   Ni    Ni4+2 1.000000 0.630300 0.000000 0.199737
Ni2   Ni    Ni4+2 0.500000 0.130300 0.000000 0.199731
Ni3   Ni    Ni4+2 1.000000 0.369700 0.000000 0.208037
Ni4   Ni    Ni4+2 0.500000 0.869700 0.000000 0.208034
Ni5   Ni    Ni4+2 0.988090 0.497570 0.863760 0.204364
Ni6   Ni    Ni4+2 0.011910 0.497570 0.136240 0.209091
Ni7   Ni    Ni4+2 0.488090 0.997570 0.863760 0.204359
Ni8   Ni    Ni4+2 0.511910 0.997570 0.136240 0.209095
O1    O     O_2   0.916241 0.827764 0.941253 -0.573598
O2    O     O_2   0.136513 0.828725 0.004781 -0.580783
O3    O     O_2   0.416139 0.327791 0.941374 -0.573593
O4    O     O_2   0.636435 0.328730 0.004906 -0.580750

loop_
_geom_bond_atom_site_label_1
_geom_bond_atom_site_label_2
_ccdc_geom_bond_type
C41   H22   S    
C81   H40   S    
C83   C87   A    
C21   C26   A    
C65   N7    A    
C24   N23   A    
C64   N6    A    
C19   H44   S    
C1    C89   S    
C66   N8    A    
N7    N16   A    
C95   H58   S    
C14   C18   A    
N23   Ni2   S    
C11   C47   S    
N1    N22   A    
N19   Ni5   S    
C38   H56   S    
N5    N14   A    
C12   C48   S    
C43   H25   S    
N14   Ni1   S    
C46   C76   A    
C42   H24   S    
C7    C73   A    
C99   H70   S    
C55   H19   S    
C28   C57   S    
C6    C72   A    
C71   C97   S    
C29   C36   A    
C44   H26   S    
C60   N2    A    
N29   Ni3   S    
C13   N12   A    
C95   H59   S    
C21   H47   S    
N22   Ni5   S    
N23   N25   A    
C53   H17   S    
C10   C15   A    
C89   O1    D    
C2    C60   A    
C71   N13   A    
C14   C49   S    
C99   H71   S    
N32   Ni5   S    
C23   H1    S    
C59   H27   S    
N4    N13   A    
C96   H61   S    
C11   C16   A    
C43   N30   A    
C3    H79   S    
C9    C66   A    
N9    Ni3   S    
C25   H12   S    
C100  H75   S    
C6    C15   S    
C92   O3    D    
C98   H69   S    
C64   H32   S    
C45   H5    S    
C94   H55   S    
C97   H63   S    
C13   C86   A    
C67   C94   S    
C16   C22   A    
C41   C46   A    
C31   C33   A    
C63   H31   S    
C30   C32   A    
C2    C69   A    
C50   C56   D    
N10   Ni3   S    
C45   H9    S    
C61   H29   S    
C47   H6    S    
C35   C93   S    
N31   Ni4   S    
C28   C34   A    
C8    C65   A    
C13   C91   S    
C68   C78   A    
C56   H20   S    
N4    Ni8   S    
N18   Ni6   S    
C78   N20   A    
C52   C86   S    
C10   C45   S    
C82   H41   S    
C3    C80   S    
C24   C92   S    
C42   C57   A    
C4    C70   A    
C83   H42   S    
C52   C54   D    
C70   N11   A    
C49   H8    S    
N7    Ni8   S    
C52   H16   S    
C25   C29   A    
C31   C68   S    
N6    Ni5   S    
C74   N16   A    
C61   N3    A    
N5    Ni6   S    
N18   N28   A    
C34   C39   S    
C57   C77   A    
N6    N15   A    
C11   C33   A    
C56   C90   S    
N21   Ni7   S    
C97   H65   S    
C51   C87   S    
C1    N1    A    
N26   N27   A    
C43   C68   A    
C99   H72   S    
C37   H45   S    
C84   H43   S    
C63   N5    A    
C82   C86   A    
C27   C31   A    
C4    C61   A    
N27   Ni2   S    
C51   H15   S    
C66   H35   S    
N24   Ni6   S    
C50   H14   S    
C59   C90   A    
C84   C88   A    
C6    C63   A    
C12   C17   A    
C78   C100  S    
C70   C96   S    
C98   H68   S    
C10   C32   A    
N11   Ni4   S    
C40   H4    S    
N16   Ni2   S    
C35   C88   A    
C9    C18   S    
C80   N21   A    
C36   C40   S    
C94   H54   S    
C97   H64   S    
C92   H51   S    
C8    C74   A    
C49   H13   S    
N12   N24   A    
C5    C71   A    
C51   C58   D    
C32   C37   S    
C91   O2    D    
C77   N19   A    
C38   C47   S    
C98   H66   S    
C42   N29   A    
C65   H33   S    
C30   C79   S    
C35   N27   A    
C7    C16   S    
C96   H60   S    
C22   H48   S    
N2    Ni6   S    
N28   Ni3   S    
C22   C27   A    
C54   H18   S    
C100  H74   S    
N20   Ni8   S    
C20   H46   S    
C82   N24   A    
C1    C85   A    
C23   C28   A    
C26   H23   S    
C53   C55   D    
C37   C45   S    
N12   Ni1   S    
C59   N32   A    
C19   C23   A    
N13   Ni4   S    
N8    Ni7   S    
C37   H80   S    
N25   Ni7   S    
C58   H21   S    
N3    Ni7   S    
C76   N18   A    
C12   C34   A    
C4    C54   S    
C95   H57   S    
C27   H34   S    
C5    C55   S    
C44   C79   A    
C33   C38   S    
C60   H28   S    
C69   C95   S    
N9    N32   A    
N3    N11   A    
C69   N10   A    
C75   N17   A    
N1    Ni1   S    
C67   N9    A    
C39   H3    S    
C81   N22   A    
C50   C88   S    
C47   H10   S    
C9    C75   A    
C62   H30   S    
C29   C46   S    
C44   N31   A    
N26   Ni8   S    
C41   N28   A    
C73   N15   A    
C91   H50   S    
C3    H77   S    
C38   H2    S    
C75   H39   S    
C8    C17   S    
C14   C36   A    
C74   H38   S    
C40   H78   S    
C73   H37   S    
N8    N17   A    
C94   H53   S    
N30   Ni4   S    
C89   H49   S    
C17   C19   A    
C96   H62   S    
C5    C62   A    
C77   C99   S    
C93   O4    D    
C18   C20   A    
C67   C90   A    
C39   H67   S    
C2    C58   S    
C24   C87   A    
N20   N30   A    
C7    C64   A    
N15   Ni1   S    
C72   H36   S    
C62   N4    A    
C79   C80   A    
C48   H7    S    
C84   N26   A    
C3    H76   S    
C15   C21   A    
C48   H11   S    
C83   N25   A    
C20   C25   A    
C100  H73   S    
C72   N14   A    
C93   H52   S    
C53   C85   S    
N2    N10   A    
N19   N29   A    
C76   C98   S    
N21   N31   A    
C81   C85   A    
N17   Ni2   S    
C40   C49   S    
C39   C48   S    
C26   C30   A    
