data_mof_unit_3225.cif
_audit_creation_date              2012-12-10T16:59:15-0500
_audit_creation_method            fapswitch 2.2
_symmetry_space_group_name_H-M    P1
_symmetry_Int_Tables_number       1
_space_group_crystal_system       triclinic
_cell_length_a                    7.724169
_cell_length_b                    8.537134
_cell_length_c                    27.726412
_cell_angle_alpha                 90.993228
_cell_angle_beta                  86.24811
_cell_angle_gamma                 93.834378
_cell_volume                      1820.185745

loop_
_atom_site_label
_atom_site_type_symbol
_atom_type_description
_atom_site_fract_x
_atom_site_fract_y
_atom_site_fract_z
_atom_type_partial_charge
C1    C     C_R   0.546045 0.794920 0.498736 0.977305
C2    C     C_R   0.453955 0.205079 0.501263 0.977456
C3    C     C_R   0.525571 0.508675 0.897623 -0.065604
C4    C     C_R   0.477019 0.501157 0.102218 -0.067668
C5    C     C_R   0.590159 0.645747 0.872093 -0.074681
C6    C     C_R   0.398434 0.368349 0.127605 -0.074109
C7    C     C_R   0.650712 0.781169 0.898488 0.102896
C8    C     C_R   0.325370 0.238205 0.100969 0.102228
C9    C     C_R   0.472736 0.371415 0.871842 -0.010696
C10   C     C_R   0.548389 0.631278 0.128096 -0.015473
C11   C     C_R   0.511074 0.502184 0.646424 -0.038578
C12   C     C_R   0.489344 0.499034 0.353562 -0.039898
C13   C     C_R   0.564424 0.638825 0.026254 0.060338
C14   C     C_R   0.443756 0.370465 0.973636 0.062058
C15   C     C_R   0.421166 0.372891 0.024826 0.000157
C16   C     C_R   0.569162 0.642897 0.974963 0.001595
C17   C     C_R   0.487109 0.504282 0.050977 0.075217
C18   C     C_R   0.513314 0.507450 0.948873 0.075734
C19   C     C_R   0.637904 0.764083 0.053828 -0.239789
C20   C     C_R   0.402277 0.233561 0.946248 -0.252849
C21   C     C_R   0.627680 0.760915 0.103635 -0.155295
C22   C     C_R   0.414332 0.235025 0.896420 -0.162578
C23   C     C_R   0.503139 0.500363 0.593939 0.874734
C24   C     C_R   0.496900 0.499780 0.406058 0.874935
C25   C     C_R   0.629693 0.778649 0.949071 -0.228250
C26   C     C_R   0.332752 0.247320 0.050439 -0.222743
C27   C     C_2   0.570398 0.958470 0.497998 -0.373291
C28   C     C_2   0.429602 0.041529 0.502001 -0.373440
C29   C     C_R   0.587233 0.641167 0.820981 0.491013
C30   C     C_R   0.396922 0.373047 0.178848 0.495058
C31   C     C_R   0.479818 0.372516 0.821616 0.487232
C32   C     C_R   0.542550 0.628571 0.178288 0.487274
C33   C     C_R   0.679646 0.500463 0.716965 -0.101566
C34   C     C_R   0.323597 0.514981 0.282888 -0.095896
C35   C     C_R   0.672150 0.498092 0.667039 -0.212254
C36   C     C_R   0.330366 0.515288 0.332835 -0.216036
C37   C     C_R   0.357922 0.508944 0.676368 -0.208782
C38   C     C_R   0.640994 0.481727 0.323718 -0.208548
C39   C     C_R   0.365883 0.510995 0.726245 -0.099470
C40   C     C_R   0.633699 0.481204 0.273839 -0.101190
C41   C     C_R   0.526544 0.506608 0.746458 0.338559
C42   C     C_R   0.475293 0.498194 0.253469 0.334237
H1    H     H_    0.232262 0.512227 0.661351 0.160825
H2    H     H_    0.765017 0.468775 0.338810 0.162383
H3    H     H_    0.014113 0.383158 0.463420 0.191690
H4    H     H_    0.985886 0.616839 0.536581 0.191239
H5    H     H_    0.247532 0.515728 0.749292 0.132816
H6    H     H_    0.750977 0.468104 0.250903 0.137875
H7    H     H_    0.211602 0.528671 0.355100 0.161869
H8    H     H_    0.792113 0.493255 0.644696 0.159948
H9    H     H_    0.201162 0.528517 0.266977 0.137390
H10   H     H_    0.803808 0.496762 0.732798 0.131154
H11   H     H_    0.685029 0.860776 0.122948 0.189421
H12   H     H_    0.377629 0.127562 0.877197 0.189628
H13   H     H_    0.709308 0.865652 0.038368 0.139114
H14   H     H_    0.364687 0.120955 0.962032 0.142246
H15   H     H_    0.657287 0.886540 0.967996 0.138419
H16   H     H_    0.263795 0.156368 0.031057 0.140554
H17   H     H_    0.703218 0.009914 0.494175 0.180294
H18   H     H_    0.296782 0.990086 0.505823 0.180273
N1    N     N_R   0.533397 0.506348 0.797640 -0.350854
N2    N     N_R   0.469724 0.500544 0.202230 -0.349102
N3    N     N_2   0.950320 0.457960 0.486880 -0.175563
N4    N     N_2   0.049680 0.542040 0.513120 -0.175660
O1    O     O_R   0.389250 0.738570 0.503220 -0.611548
O2    O     O_R   0.610750 0.261430 0.496780 -0.611454
O3    O     O_R   0.678390 0.711630 0.494810 -0.629316
O4    O     O_R   0.321610 0.288370 0.505190 -0.629250
O5    O     O_R   0.355440 0.513440 0.575450 -0.621279
O6    O     O_R   0.644560 0.486560 0.424550 -0.621369
O7    O     O_R   0.644590 0.486500 0.567040 -0.630701
O8    O     O_R   0.355410 0.513500 0.432960 -0.630806
O9    O     O_2   0.631967 0.769913 0.794372 -0.571328
O10   O     O_2   0.325425 0.252517 0.205698 -0.581369
O11   O     O_2   0.609542 0.752993 0.203319 -0.562902
O12   O     O_2   0.431948 0.241180 0.796621 -0.556775
Zn1   Zn    Zn3+2 0.306940 0.517990 0.505620 0.948585
Zn2   Zn    Zn3+2 0.693060 0.482010 0.494380 0.948699
C43   C     C_3   0.740998 0.926023 0.873213 -0.318462
C44   C     C_3   0.832582 0.050791 0.905373 -0.446503
C45   C     C_3   0.932085 0.178996 0.874976 -0.805034
H19   H     H_    0.034841 0.128156 0.850802 0.275074
H20   H     H_    0.841949 0.238472 0.852810 0.266363
H21   H     H_    0.994848 0.267753 0.899133 0.252524
H22   H     H_    0.735446 0.108102 0.929792 0.238781
H23   H     H_    0.925930 0.994722 0.927420 0.229441
H24   H     H_    0.843783 0.884327 0.847066 0.241778
H25   H     H_    0.643826 0.984806 0.853321 0.252509
C46   C     C_3   0.242408 0.089663 0.125884 -0.317171
C47   C     C_3   0.175785 0.953536 0.093268 -0.447212
C48   C     C_3   0.106733 0.811396 0.123153 -0.808765
H26   H     H_    0.211187 0.767871 0.144010 0.265730
H27   H     H_    0.997207 0.842985 0.148634 0.275471
H28   H     H_    0.059412 0.715575 0.098757 0.252514
H29   H     H_    0.283326 0.916684 0.067837 0.240853
H30   H     H_    0.068023 0.991391 0.072431 0.222358
H31   H     H_    0.342020 0.041653 0.147664 0.255144
H32   H     H_    0.130069 0.123364 0.150062 0.240114

loop_
_geom_bond_atom_site_label_1
_geom_bond_atom_site_label_2
_ccdc_geom_bond_type
C21   H11   S    
O6    Zn2   S    
C8    C26   A    
N4    Zn1   S    
C31   N1    A    
O5    Zn1   S    
C34   C42   A    
C41   N1    S    
C20   H14   S    
C32   O11   S    
C43   H24   S    
C45   H19   S    
C47   C48   S    
C24   O6    A    
C47   H29   S    
C39   C41   A    
C33   H10   S    
C34   H9    S    
O8    Zn1   S    
C39   H5    S    
C19   C21   A    
C2    O4    A    
C30   O10   S    
C9    C22   A    
C29   O9    S    
O4    Zn1   S    
C3    C18   A    
C40   H6    S    
C11   C37   A    
C23   O5    A    
C44   H23   S    
C33   C35   A    
C1    O1    A    
C12   C36   A    
C42   N2    S    
C40   C42   A    
O3    Zn2   S    
C25   H15   S    
C43   H25   S    
C45   H20   S    
C5    C29   A    
C28   H18   S    
C10   C21   A    
O2    Zn2   S    
C29   N1    A    
O1    Zn1   S    
C13   C19   A    
C14   C20   A    
C22   H12   S    
C48   H26   S    
C5    C7    A    
C15   C26   A    
C6    C8    A    
C3    C5    A    
H3    N3    S    
N3    N4    D    
H4    N4    S    
C37   H1    S    
C38   H2    S    
C44   H22   S    
C3    C9    A    
C23   O7    A    
C48   H27   S    
C35   H8    S    
C26   H16   S    
C4    C17   A    
C4    C6    A    
C6    C30   A    
C20   C22   A    
C30   N2    A    
C4    C10   A    
C45   H21   S    
C24   O8    A    
C7    C43   S    
C19   H13   S    
C16   C25   A    
C15   C17   A    
C14   C18   A    
C44   C45   S    
C2    O2    A    
C47   H30   S    
C12   C24   S    
C7    C25   A    
C13   C17   A    
C46   H32   S    
C33   C41   A    
C11   C35   A    
C32   N2    A    
C37   C39   A    
C27   H17   S    
C48   H28   S    
C38   C40   A    
C31   O12   S    
C11   C23   S    
C1    O3    A    
C34   C36   A    
C12   C38   A    
C9    C31   A    
C43   C44   S    
C10   C32   A    
C16   C18   A    
C13   C16   A    
C46   H31   S    
C27   C28   D    
C1    C27   S    
C14   C15   A    
C2    C28   S    
C8    C46   S    
C46   C47   S    
O7    Zn2   S    
C36   H7    S    
N3    Zn2   S    
