data_mof_unit_1708.cif
_audit_creation_date              2012-10-26T20:18:16-0400
_audit_creation_method            fapswitch 2.2
_symmetry_space_group_name_H-M    P1
_symmetry_Int_Tables_number       1
_space_group_crystal_system       triclinic
_cell_length_a                    23.554702
_cell_length_b                    8.70381
_cell_length_c                    7.473787
_cell_angle_alpha                 102.879067
_cell_angle_beta                  94.112106
_cell_angle_gamma                 93.392317
_cell_volume                      1485.39374043

loop_
_atom_site_label
_atom_site_type_symbol
_atom_type_description
_atom_site_fract_x
_atom_site_fract_y
_atom_site_fract_z
_atom_type_partial_charge
C1    C     C_R   0.497124 0.200238 0.454632 0.563726
C2    C     C_R   0.708819 0.578785 0.642589 0.218735
C3    C     C_R   0.232403 0.432028 0.363189 -0.069759
C4    C     C_R   0.767598 0.567985 0.636815 -0.069796
C5    C     C_R   0.209601 0.506612 0.524716 0.135180
C6    C     C_R   0.790399 0.493422 0.475280 0.135201
C7    C     C_2   0.487184 0.034262 0.437132 0.158729
C8    C     C_2   0.512818 0.965738 0.562866 0.158752
C9    C     C_R   0.391068 0.499403 0.502399 0.562595
C10   C     C_R   0.608932 0.500601 0.497601 0.562645
C11   C     C_R   0.883157 0.636373 0.511955 0.456685
C12   C     C_R   0.502877 0.799762 0.545367 0.563749
C13   C     C_R   0.116844 0.363662 0.488048 0.456688
C14   C     C_R   0.876682 0.354877 0.444488 0.500278
C15   C     C_R   0.123318 0.645158 0.555501 0.500282
C16   C     C_R   0.936302 0.353218 0.436839 0.014970
C17   C     C_R   0.063699 0.646817 0.563154 0.014967
C18   C     C_R   0.969895 0.498992 0.493997 -0.121013
C19   C     C_R   0.030105 0.501043 0.505998 -0.121013
C20   C     C_R   0.943201 0.642650 0.539707 0.014154
C21   C     C_R   0.056800 0.357386 0.460292 0.014155
C22   C     C_R   0.963140 0.211949 0.374124 0.300738
C23   C     C_R   0.246453 0.580051 0.680749 0.293545
C24   C     C_R   0.036861 0.788086 0.625870 0.300736
C25   C     C_R   0.022956 0.213932 0.385794 0.294901
C26   C     C_R   0.977045 0.786103 0.614204 0.294898
C27   C     C_3   0.353190 0.825151 0.786025 -0.053282
C28   C     C_3   0.646817 0.174876 0.213961 -0.053274
C29   C     C_3   0.300071 0.171707 0.195120 -0.063273
C30   C     C_3   0.699997 0.828276 0.805136 -0.063191
C31   C     C_3   0.425453 0.240166 0.950715 0.007753
C32   C     C_3   0.574543 0.759842 0.049279 0.007765
C33   C     C_R   0.753548 0.419996 0.319243 0.293537
C34   C     C_R   0.305742 0.586265 0.669648 0.233577
C35   C     C_R   0.694260 0.413769 0.330346 0.233567
C36   C     C_R   0.328617 0.502587 0.509336 -0.017097
C37   C     C_R   0.671384 0.497429 0.490666 -0.017062
C38   C     C_R   0.291181 0.421228 0.357419 0.218734
Cl1   Cl    Cl    0.923312 0.032368 0.261542 -0.328933
Cl2   Cl    Cl    0.076689 0.967666 0.738450 -0.328892
Cl3   Cl    Cl    0.053644 0.036329 0.287033 -0.351121
Cl4   Cl    Cl    0.946358 0.963708 0.712964 -0.351132
Cl5   Cl    Cl    0.219305 0.662720 0.892143 -0.443820
Cl6   Cl    Cl    0.780697 0.337347 0.107843 -0.443857
Cl7   Cl    Cl    0.431569 0.938415 0.269927 -0.672499
Cl8   Cl    Cl    0.568435 0.061581 0.730062 -0.672422
Cu1   Cu    Cu3+1 0.506340 0.517380 0.684380 1.155645
Cu2   Cu    Cu3+1 0.493660 0.482620 0.315620 1.155639
H1    H     H_    0.203976 0.376936 0.242542 0.192419
H2    H     H_    0.321132 0.138879 0.318039 0.151179
H3    H     H_    0.317321 0.101272 0.071509 0.144374
H4    H     H_    0.679058 0.861257 0.682131 0.151226
H5    H     H_    0.746687 0.861631 0.818479 0.182881
H6    H     H_    0.682671 0.898668 0.928620 0.144256
H7    H     H_    0.410444 0.233669 0.085646 0.187319
H8    H     H_    0.464239 0.174034 0.925818 0.151236
H9    H     H_    0.391405 0.181327 0.842835 0.090791
H10   H     H_    0.535755 0.825968 0.074154 0.151256
H11   H     H_    0.589557 0.766333 0.914351 0.187342
H12   H     H_    0.796026 0.623045 0.757469 0.192347
H13   H     H_    0.608587 0.818693 0.157168 0.090782
H14   H     H_    0.374951 0.820397 0.657723 0.110773
H15   H     H_    0.382636 0.894636 0.901532 0.176155
H16   H     H_    0.313677 0.888651 0.780559 0.144423
H17   H     H_    0.617377 0.105385 0.098444 0.176167
H18   H     H_    0.625054 0.179620 0.342255 0.110778
H19   H     H_    0.686333 0.111391 0.219439 0.144404
H20   H     H_    0.253392 0.138249 0.182180 0.182880
N1    N     N_R   0.851467 0.494507 0.472838 -0.392077
N2    N     N_R   0.148534 0.505528 0.527158 -0.392079
N3    N     N_2   0.484110 0.456420 0.038520 0.111918
N4    N     N_2   0.515890 0.543580 0.961480 0.111918
O1    O     O_R   0.504120 0.286130 0.619770 -0.471073
O2    O     O_2   0.143883 0.230200 0.478670 -0.373099
O3    O     O_2   0.843955 0.219449 0.429592 -0.352400
O4    O     O_2   0.156045 0.780585 0.570386 -0.352383
O5    O     O_3   0.341205 0.673059 0.817560 -0.463245
O6    O     O_3   0.658798 0.326974 0.182432 -0.463242
O7    O     O_3   0.311920 0.333856 0.201096 -0.530249
O8    O     O_3   0.688071 0.666115 0.798926 -0.530257
O9    O     O_3   0.434785 0.397958 0.938434 -0.424061
O10   O     O_3   0.565213 0.602053 0.061571 -0.424060
O11   O     O_R   0.495880 0.713870 0.380230 -0.471053
O12   O     O_R   0.493410 0.256770 0.308360 -0.536107
O13   O     O_R   0.506590 0.743230 0.691640 -0.536109
O14   O     O_R   0.423230 0.514630 0.655730 -0.442615
O15   O     O_R   0.576770 0.485370 0.344270 -0.442617
O16   O     O_R   0.412530 0.485280 0.344320 -0.449055
O17   O     O_R   0.587470 0.514720 0.655680 -0.449033
O18   O     O_2   0.856116 0.769836 0.521346 -0.373103

loop_
_geom_bond_atom_site_label_1
_geom_bond_atom_site_label_2
_ccdc_geom_bond_type
C6    N1    S    
C28   H18   S    
C2    C37   A    
C32   H10   S    
C3    H1    S    
C7    C8    D    
C1    O12   A    
C30   H6    S    
C12   O13   A    
C10   C37   S    
C7    Cl7   S    
C35   C37   A    
C24   C26   A    
C32   H13   S    
C34   O5    S    
C38   O7    S    
C23   Cl5   S    
C18   C19   A    
C10   O17   A    
C21   C25   A    
C17   C19   A    
C3    C38   A    
C22   C25   A    
C29   O7    S    
C9    C36   S    
Cu2   O16   S    
C31   H8    S    
C28   O6    S    
C34   C36   A    
C30   O8    S    
C15   O4    S    
Cu1   O17   S    
C29   H2    S    
C10   O15   A    
C30   H5    S    
C11   C20   A    
C17   C24   A    
Cu1   O14   S    
C28   H19   S    
Cu1   O1    S    
C4    C6    A    
C25   Cl3   S    
C3    C5    A    
Cu2   O12   S    
C12   O11   A    
C2    C4    A    
C5    N2    S    
C27   H14   S    
C9    O14   A    
C29   H20   S    
Cu1   Cu2   S    
C5    C23   A    
C8    C12   S    
C23   C34   A    
C4    H12   S    
C11   N1    A    
Cu2   O15   S    
C13   C21   A    
C27   H15   S    
C14   N1    A    
C14   C16   A    
Cu2   N3    S    
Cu1   O13   S    
C26   Cl4   S    
C29   H3    S    
C15   C17   A    
C15   N2    A    
C30   H4    S    
C24   Cl2   S    
C16   C22   A    
C19   C21   A    
C1    C7    S    
C33   Cl6   S    
C27   O5    S    
C6    C33   A    
C32   O10   S    
C35   O6    S    
C31   O9    S    
Cu2   O11   S    
C1    O1    A    
C14   O3    S    
C31   H9    S    
C36   C38   A    
C28   H17   S    
N3    N4    D    
C9    O16   A    
C11   O18   S    
C20   C26   A    
C22   Cl1   S    
C33   C35   A    
C18   C20   A    
C8    Cl8   S    
Cu1   N4    S    
C2    O8    S    
C27   H16   S    
C13   O2    S    
C16   C18   A    
C13   N2    A    
C32   H11   S    
C31   H7    S    
N4    O10   S    
N3    O9    S    
