data_mof_unit_4586.cif
_audit_creation_date              2012-12-10T17:03:37-0500
_audit_creation_method            fapswitch 2.2
_symmetry_space_group_name_H-M    P1
_symmetry_Int_Tables_number       1
_space_group_crystal_system       triclinic
_cell_length_a                    10.078528
_cell_length_b                    10.661802
_cell_length_c                    13.135626
_cell_angle_alpha                 90.547992
_cell_angle_beta                  70.138711
_cell_angle_gamma                 91.727084
_cell_volume                      1326.93028628

loop_
_atom_site_label
_atom_site_type_symbol
_atom_type_description
_atom_site_fract_x
_atom_site_fract_y
_atom_site_fract_z
_atom_type_partial_charge
C1    C     C_R   0.502348 0.737477 0.499448 0.957827
C2    C     C_R   0.370741 0.515034 0.821835 -0.118744
C3    C     C_2   0.624649 0.070157 0.449944 -0.284854
C4    C     C_R   0.421656 0.506292 0.703892 0.842184
C5    C     C_2   0.504949 0.131699 0.471252 -0.421965
C6    C     C_2   0.622840 0.934407 0.437369 0.530565
C7    C     C_2   0.508219 0.870410 0.500331 -0.437163
C8    C     C_2   0.110723 0.473124 0.416082 -0.133765
C9    C     C_2   0.959604 0.452308 0.423511 -0.009293
C10   C     C_R   0.500652 0.262605 0.494135 0.973671
C11   C     C_R   0.578564 0.500149 0.296019 0.863814
C12   C     C_R   0.432954 0.522604 0.984623 0.086870
C13   C     C_R   0.774685 0.623165 0.018438 -0.195781
C14   C     C_R   0.626388 0.515447 0.179404 -0.059037
C15   C     C_R   0.237022 0.463969 0.880795 -0.189145
C16   C     C_R   0.198527 0.447321 0.991856 -0.155413
C17   C     C_R   0.296380 0.472795 0.043341 -0.192692
C18   C     C_3   0.799183 0.928227 0.267885 0.059444
C19   C     C_3   0.699546 0.916651 0.201605 -0.354532
C20   C     C_3   0.773387 0.958754 0.084773 -0.946623
C21   C     C_3   0.877865 0.702793 0.535474 0.227703
C22   C     C_3   0.000149 0.780482 0.550105 -0.428988
C23   C     C_R   0.462241 0.558415 0.876210 0.078176
C24   C     C_3   0.992055 0.918497 0.523394 -0.942219
C25   C     C_R   0.541580 0.538199 0.029559 0.077798
C26   C     C_R   0.668239 0.606007 0.972568 0.168585
C27   C     C_R   0.685242 0.657676 0.871847 -0.233247
C28   C     C_R   0.583012 0.634852 0.824475 -0.169889
C29   C     C_R   0.528474 0.486142 0.129173 -0.252656
C30   C     C_R   0.752742 0.579795 0.122863 -0.218667
H1    H     H_    0.829873 0.602893 0.161340 0.160384
H2    H     H_    0.164019 0.433196 0.840618 0.160969
H3    H     H_    0.261114 0.455612 0.129310 0.117591
H4    H     H_    0.094689 0.409165 0.037472 0.142075
H5    H     H_    0.598410 0.678762 0.747396 0.155765
H6    H     H_    0.723596 0.117883 0.444618 0.180052
H7    H     H_    0.897123 0.877844 0.224042 0.164017
H8    H     H_    0.832739 0.027606 0.273469 0.130705
H9    H     H_    0.661665 0.817710 0.202464 0.237377
H10   H     H_    0.606159 0.975580 0.238289 0.214624
H11   H     H_    0.807339 0.059108 0.082310 0.263562
H12   H     H_    0.408736 0.085891 0.467800 0.156650
H13   H     H_    0.699520 0.947224 0.038770 0.269131
H14   H     H_    0.867099 0.901189 0.045417 0.257362
H15   H     H_    0.778392 0.744366 0.587891 0.159320
H16   H     H_    0.885332 0.709803 0.448929 0.173455
H17   H     H_    0.997248 0.772535 0.635171 0.226738
H18   H     H_    0.101976 0.744263 0.495782 0.248575
H19   H     H_    0.997040 0.928787 0.438068 0.273442
H20   H     H_    0.082349 0.972263 0.534339 0.265167
H21   H     H_    0.892290 0.958237 0.577954 0.266605
H22   H     H_    0.416089 0.915403 0.555338 0.115800
H23   H     H_    0.191579 0.462785 0.337497 0.141926
H24   H     H_    0.074784 0.482870 0.574249 0.237451
H25   H     H_    0.940164 0.402786 0.357211 0.081419
H26   H     H_    0.778422 0.714165 0.828932 0.148519
H27   H     H_    0.871648 0.674758 0.975600 0.139104
H28   H     H_    0.439068 0.426299 0.172066 0.141863
N1    N     N_2   0.148270 0.498670 0.498870 -0.188061
N2    N     N_2   0.852610 0.498640 0.498840 0.080280
O1    O     O_R   0.386950 0.680940 0.500020 -0.618802
O2    O     O_3   0.881963 0.578073 0.569693 -0.590979
O3    O     O_R   0.613110 0.680900 0.499980 -0.607357
O4    O     O_R   0.330780 0.500000 0.653640 -0.620348
O5    O     O_R   0.556930 0.499960 0.653610 -0.581028
O6    O     O_R   0.386890 0.319100 0.500020 -0.615511
O7    O     O_R   0.613050 0.319060 0.499980 -0.610766
O8    O     O_R   0.443070 0.500040 0.346390 -0.618076
O9    O     O_R   0.669220 0.500000 0.346360 -0.629191
O10   O     O_3   0.739621 0.870873 0.370877 -0.656073
Zn1   Zn    Zn3+2 0.349000 0.500030 0.500020 0.926978
Zn2   Zn    Zn3+2 0.651000 0.499970 0.499980 0.977323

loop_
_geom_bond_atom_site_label_1
_geom_bond_atom_site_label_2
_ccdc_geom_bond_type
C8    H23   S    
C18   O10   S    
O9    Zn2   S    
C2    C4    S    
C5    H12   S    
C11   O9    A    
O6    Zn1   S    
C23   C28   A    
C6    C7    D    
C9    H25   S    
O5    Zn2   S    
C4    O4    A    
C22   H18   S    
C19   C20   S    
C12   C25   A    
C3    C6    S    
O1    Zn1   S    
C24   H21   S    
C22   H17   S    
C18   H8    S    
C15   H2    S    
C10   O7    A    
C21   C22   S    
C11   O8    A    
C12   C17   A    
C25   C29   A    
C2    C15   A    
C12   C23   A    
C21   O2    S    
C4    O5    A    
C17   H3    S    
C3    H6    S    
C14   C30   A    
O8    Zn1   S    
C1    O3    A    
N2    O2    S    
C20   H14   S    
C18   H7    S    
C7    H22   S    
C20   H11   S    
C21   H15   S    
H24   N1    S    
C10   O6    A    
C8    N1    D    
C24   H20   S    
C30   H1    S    
C11   C14   S    
C22   C24   S    
C13   C26   A    
C13   H27   S    
C19   H10   S    
N2    Zn2   S    
C14   C29   A    
C15   C16   A    
C21   H16   S    
C13   C30   A    
C5    C10   S    
C20   H13   S    
O3    Zn2   S    
C24   H19   S    
C19   H9    S    
C18   C19   S    
O4    Zn1   S    
C27   C28   A    
C6    O10   S    
C27   H26   S    
C16   C17   A    
C26   C27   A    
O7    Zn2   S    
C16   H4    S    
C25   C26   A    
C1    C7    S    
C2    C23   A    
C29   H28   S    
C28   H5    S    
N1    Zn1   S    
C8    C9    S    
C3    C5    D    
C9    N2    D    
C1    O1    A    
