data_mof_unit_4974.cif
_audit_creation_date              2012-12-11T14:23:01-0500
_audit_creation_method            fapswitch 2.2
_symmetry_space_group_name_H-M    P1
_symmetry_Int_Tables_number       1
_space_group_crystal_system       triclinic
_cell_length_a                    11.127562
_cell_length_b                    11.029184
_cell_length_c                    18.676469
_cell_angle_alpha                 90.396714
_cell_angle_beta                  89.823512
_cell_angle_gamma                 59.390023
_cell_volume                      1972.61916275

loop_
_atom_site_label
_atom_site_type_symbol
_atom_type_description
_atom_site_fract_x
_atom_site_fract_y
_atom_site_fract_z
_atom_type_partial_charge
C1    C     C_R   0.240130 0.645012 0.610717 0.542165
C2    C     C_3   0.679458 0.576800 0.800345 -0.100623
C3    C     C_3   0.719398 0.693540 0.807232 -0.007459
C4    C     C_3   0.678038 0.656938 0.672912 0.014642
C5    C     C_3   0.833722 0.606836 0.685494 -0.246779
C6    C     C_3   0.631351 0.576152 0.723525 -0.242422
C7    C     C_R   0.686598 0.170950 0.827399 0.024986
C8    C     C_R   0.802584 0.143399 0.783605 0.018703
C9    C     C_R   0.789565 0.140273 0.708110 0.004684
C10   C     C_R   0.541625 0.233840 0.723500 -0.138579
C11   C     C_R   0.556011 0.225603 0.796375 -0.119096
C12   C     C_R   0.655661 0.625143 0.599142 0.554937
C13   C     C_R   0.929997 0.120299 0.811695 -0.090550
C14   C     C_R   0.043880 0.081959 0.766547 -0.129410
C15   C     C_R   0.034280 0.061185 0.693620 -0.115183
C16   C     C_R   0.909013 0.088975 0.664571 -0.103475
C17   C     C_R   0.657080 0.189168 0.678269 -0.015424
C18   C     C_R   0.192967 0.654964 0.837552 0.019159
C19   C     C_R   0.192964 0.544780 0.798097 0.011114
C20   C     C_R   0.184112 0.554077 0.722485 -0.002592
C21   C     C_R   0.234898 0.743065 0.729020 -0.161451
C22   C     C_R   0.223136 0.746850 0.802441 -0.161264
C23   C     C_R   0.626184 0.231162 0.603481 0.530282
C24   C     C_R   0.200896 0.426386 0.831490 -0.138976
C25   C     C_R   0.198244 0.321410 0.790800 -0.110982
C26   C     C_R   0.179891 0.336339 0.716847 0.005665
C27   C     C_R   0.160921 0.457450 0.684369 -0.144172
C28   C     C_R   0.206014 0.654871 0.687461 0.005363
C29   C     C_R   0.708925 0.692734 0.181518 -0.008023
C30   C     C_R   0.794475 0.557859 0.212951 0.053093
C31   C     C_R   0.738113 0.518891 0.268518 0.029951
C32   C     C_R   0.558149 0.762620 0.285549 -0.132780
C33   C     C_R   0.590866 0.794063 0.218766 -0.154739
C34   C     C_R   0.276873 0.625861 0.391548 0.548300
C35   C     C_R   0.926327 0.453617 0.185580 -0.082469
C36   C     C_R   0.970426 0.312687 0.192916 -0.129500
C37   C     C_R   0.901964 0.273612 0.240322 -0.118593
C38   C     C_R   0.788654 0.375170 0.279454 -0.086858
C39   C     C_R   0.632929 0.624541 0.311217 -0.005129
C40   C     C_R   0.686282 0.073577 0.190539 -0.008495
C41   C     C_R   0.562044 0.113015 0.229609 0.018408
C42   C     C_R   0.572804 0.093098 0.304019 0.047379
C43   C     C_R   0.799908 0.064664 0.304071 -0.173864
C44   C     C_R   0.808661 0.035039 0.230148 -0.159830
C45   C     C_R   0.618222 0.592093 0.385252 0.534088
C46   C     C_R   0.426881 0.177196 0.200350 -0.113916
C47   C     C_R   0.314292 0.201676 0.243366 -0.162314
C48   C     C_R   0.333904 0.154280 0.313473 -0.125687
C49   C     C_R   0.466184 0.087984 0.341693 -0.078457
C50   C     C_R   0.673651 0.111199 0.339669 -0.001368
C51   C     C_R   0.204133 0.640627 0.167314 0.000029
C52   C     C_R   0.255156 0.721774 0.197739 0.034011
C53   C     C_R   0.238198 0.745186 0.271978 0.022106
C54   C     C_R   0.226569 0.531976 0.281932 -0.144212
C55   C     C_R   0.202843 0.536777 0.208558 -0.155365
C56   C     C_R   0.624851 0.213529 0.400913 0.520453
C57   C     C_R   0.289535 0.804736 0.154999 -0.056826
C58   C     C_R   0.263437 0.933810 0.181067 -0.109982
C59   C     C_R   0.212148 0.973768 0.250359 -0.161826
C60   C     C_R   0.205809 0.879577 0.296791 -0.118693
C61   C     C_R   0.238370 0.639715 0.315438 -0.006840
C62   C     C_R   0.701830 0.104574 0.897250 0.561109
C63   C     C_R   0.752138 0.709314 0.882582 0.556469
C64   C     C_R   0.121594 0.702497 0.906989 0.539752
C65   C     C_R   0.698720 0.048628 0.111966 0.538829
C66   C     C_R   0.732201 0.715561 0.106444 0.541934
C67   C     C_3   0.607372 0.838036 0.771994 -0.083741
C68   C     C_R   0.108204 0.700679 0.106420 0.528938
C69   C     C_3   0.592723 0.815573 0.691075 -0.243796
C70   C     C_3   0.854546 0.641722 0.762771 -0.281160
Cr1   Cr    Cr6+3 0.392940 0.397950 0.502230 1.002465
Cr2   Cr    Cr6+3 0.398400 0.708500 0.501260 1.000121
Cr3   Cr    Cr6+3 0.708640 0.393530 0.496460 0.991879
Cr4   Cr    Cr6+3 0.937880 0.938320 0.007620 1.010701
Cr5   Cr    Cr6+3 0.625560 0.937220 0.994510 1.050711
Cr6   Cr    Cr6+3 0.938080 0.625010 0.001190 0.995251
H1    H     H_    0.646470 0.912850 0.776808 0.146712
H2    H     H_    0.676228 0.464672 0.705572 0.147922
H3    H     H_    0.939643 0.545552 0.787220 0.160075
H4    H     H_    0.897414 0.490912 0.676886 0.147259
H5    H     H_    0.438187 0.277370 0.702461 0.187754
H6    H     H_    0.941918 0.137189 0.867569 0.158035
H7    H     H_    0.465707 0.252319 0.828901 0.177904
H8    H     H_    0.141194 0.063544 0.788703 0.146873
H9    H     H_    0.123551 0.022806 0.658468 0.166515
H10   H     H_    0.907214 0.069013 0.607918 0.129948
H11   H     H_    0.269221 0.809079 0.704959 0.139936
H12   H     H_    0.220066 0.408101 0.888212 0.149641
H13   H     H_    0.231025 0.826850 0.832078 0.128605
H14   H     H_    0.209660 0.229502 0.817124 0.183065
H15   H     H_    0.132333 0.471283 0.628596 0.127384
H16   H     H_    0.473305 0.844701 0.316449 0.156489
H17   H     H_    0.988886 0.478414 0.151923 0.147914
H18   H     H_    0.524780 0.896553 0.196144 0.149394
H19   H     H_    0.057589 0.233906 0.161679 0.102726
H20   H     H_    0.941222 0.164425 0.247801 0.118066
H21   H     H_    0.482188 0.857223 0.676036 0.186080
H22   H     H_    0.735450 0.342492 0.314652 0.150853
H23   H     H_    0.887912 0.057220 0.332537 0.117218
H24   H     H_    0.402454 0.220493 0.147338 0.157868
H25   H     H_    0.908590 0.992245 0.203213 0.160208
H26   H     H_    0.211414 0.259218 0.222639 0.102280
H27   H     H_    0.246302 0.173893 0.347108 0.107111
H28   H     H_    0.479996 0.053762 0.396878 0.133072
H29   H     H_    0.227264 0.449441 0.313046 0.163007
H30   H     H_    0.316734 0.779301 0.098917 0.138171
H31   H     H_    0.178656 0.463915 0.184124 0.109096
H32   H     H_    0.630917 0.873626 0.658567 0.126412
H33   H     H_    0.273701 0.006013 0.146201 0.111751
H34   H     H_    0.171412 0.079536 0.268064 0.116265
H35   H     H_    0.160650 0.921552 0.348616 0.148953
H36   H     H_    0.886112 0.722698 0.762619 0.119997
H37   H     H_    0.870253 0.658065 0.647012 0.120360
H38   H     H_    0.776441 0.472591 0.808214 0.169337
H39   H     H_    0.516156 0.625550 0.721465 0.112196
O1    O     O_R   0.507340 0.255690 0.581430 -0.516484
O2    O     O_R   0.524510 0.695820 0.424050 -0.516715
O3    O     O_R   0.736370 0.504260 0.414810 -0.506944
O4    O     O_R   0.691220 0.277270 0.422180 -0.534181
O5    O     O_3   0.499990 0.499990 0.499980 -0.275872
O6    O     O_R   0.089570 0.825450 0.930590 -0.522463
O7    O     O_R   0.818700 0.054260 0.929860 -0.504825
O8    O     O_R   0.606310 0.077010 0.915520 -0.481345
O9    O     O_R   0.646730 0.806540 0.917560 -0.455379
O10   O     O_R   0.837290 0.593240 0.915240 -0.497889
O11   O     O_R   0.065320 0.635310 0.931580 -0.528447
O12   O     O_R   0.280360 0.527380 0.578910 -0.506109
O13   O     O_R   0.068470 0.828620 0.091850 -0.530652
O14   O     O_R   0.799150 0.057200 0.079350 -0.481074
O15   O     O_R   0.585220 0.080180 0.076770 -0.535590
O16   O     O_R   0.627170 0.809480 0.067050 -0.498623
O17   O     O_R   0.816200 0.596410 0.076500 -0.502690
O18   O     O_R   0.045770 0.638240 0.081070 -0.541633
O19   O     O_3   0.833840 0.833520 0.001110 -0.309648
O20   O     O_R   0.260600 0.739610 0.584580 -0.524944
O21   O     O_R   0.532370 0.695050 0.573830 -0.501236
O22   O     O_R   0.744850 0.503430 0.576380 -0.521624
O23   O     O_R   0.699080 0.276500 0.571950 -0.509320
O24   O     O_R   0.498860 0.256520 0.419860 -0.523878
O25   O     O_R   0.272490 0.528150 0.429140 -0.495905
O26   O     O_R   0.252110 0.740440 0.423010 -0.538677
C71   C     C_2   0.464758 0.907783 0.806567 0.271835
H40   H     H_    0.394337 0.870784 0.794320 0.071956
O27   O     O_2   0.425370 0.009751 0.846055 -0.507483
C72   C     C_2   0.200299 0.219759 0.670573 0.203144
H41   H     H_    0.145327 0.240300 0.620124 0.093645
O28   O     O_2   0.287212 0.099322 0.685950 -0.570687
C73   C     C_2   0.575721 0.584940 0.855493 0.244719
H42   H     H_    0.475909 0.679671 0.863209 0.108231
O29   O     O_2   0.604700 0.483730 0.893157 -0.500440

loop_
_geom_bond_atom_site_label_1
_geom_bond_atom_site_label_2
_ccdc_geom_bond_type
C45   O3    A    
C21   H11   S    
C34   O26   A    
C8    C13   A    
Cr3   O4    S    
C58   H33   S    
Cr6   O11   S    
C41   C42   A    
C23   O23   A    
C35   C36   A    
C67   H1    S    
C14   H8    S    
C38   H22   S    
C33   H18   S    
C49   H28   S    
C65   O15   A    
Cr5   O19   S    
C7    C8    A    
C7    C11   A    
C26   C27   A    
C17   C23   S    
Cr1   O5    S    
Cr5   O8    S    
C36   C37   A    
C9    C16   A    
C73   O29   D    
C72   H41   S    
C30   C31   A    
Cr2   O21   S    
Cr3   O23   S    
C10   C17   A    
C2    C73   S    
C15   C16   A    
C29   C33   A    
C59   H34   S    
C18   C19   A    
C32   C39   A    
C62   O8    A    
C23   O1    A    
C54   C55   A    
C53   C61   A    
C69   H32   S    
Cr4   O13   S    
C19   C20   A    
C8    C9    A    
Cr2   O2    S    
C1    C28   S    
C41   C46   A    
C27   H15   S    
C4    C12   S    
C68   O13   A    
Cr5   O15   S    
C39   C45   S    
C68   O18   A    
C57   H30   S    
C59   C60   A    
Cr3   O5    S    
C13   C14   A    
C16   H10   S    
Cr6   O10   S    
Cr1   O12   S    
C2    C6    S    
C4    C69   S    
C72   O28   D    
C53   C60   A    
Cr5   O16   S    
C63   O9    A    
C66   O17   A    
C35   H17   S    
Cr2   O26   S    
C71   H40   S    
C54   C61   A    
Cr5   O9    S    
C3    C70   S    
C73   H42   S    
C4    C6    S    
C10   C11   A    
C56   O24   A    
Cr6   O19   S    
Cr2   O20   S    
Cr1   O24   S    
C20   C28   A    
C11   H7    S    
C58   C59   A    
C48   H27   S    
C13   H6    S    
C34   C61   S    
C50   C56   S    
C51   C52   A    
C37   H20   S    
C55   H31   S    
C67   C69   S    
C37   C38   A    
C26   C72   S    
C43   C44   A    
C7    C62   S    
C29   C30   A    
C47   C48   A    
Cr6   O18   S    
Cr2   O5    S    
C25   H14   S    
C24   C25   A    
C5    H4    S    
C24   H12   S    
C63   O10   A    
C70   H36   S    
C42   C50   A    
C30   C35   A    
C9    C17   A    
C40   C41   A    
Cr4   O7    S    
C21   C28   A    
C64   O11   A    
C40   C65   S    
C56   O4    A    
C71   O27   D    
C62   O7    A    
C52   C53   A    
C66   O16   A    
C45   O2    A    
C46   H24   S    
C46   C47   A    
C48   C49   A    
Cr3   O3    S    
C54   H29   S    
C5    H37   S    
C70   H3    S    
C18   C22   A    
C12   O22   A    
C3    C67   S    
C1    O12   A    
C43   H23   S    
C4    C5    S    
C5    C70   S    
C65   O14   A    
C44   H25   S    
C43   C50   A    
Cr1   O25   S    
C20   C27   A    
C3    C63   S    
C10   H5    S    
C31   C38   A    
C15   H9    S    
C32   C33   A    
C19   C24   A    
C25   C26   A    
C60   H35   S    
C1    O20   A    
Cr6   O17   S    
C2    H38   S    
C36   H19   S    
C18   C64   S    
C57   C58   A    
C32   H16   S    
Cr3   O22   S    
Cr4   O19   S    
C34   O25   A    
C22   H13   S    
C31   C39   A    
Cr1   O1    S    
C2    C3    S    
C51   C55   A    
C51   C68   S    
C6    H39   S    
C6    H2    S    
C52   C57   A    
C42   C49   A    
C29   C66   S    
C40   C44   A    
Cr4   O6    S    
C12   O21   A    
Cr4   O14   S    
C47   H26   S    
C14   C15   A    
C21   C22   A    
C67   C71   S    
C64   O6    A    
C69   H21   S    
