data_mof_unit_982.cif
_audit_creation_date              2013-03-05T15:41:31-0500
_audit_creation_method            fapswitch 2.2
_symmetry_space_group_name_H-M    P1
_symmetry_Int_Tables_number       1
_space_group_crystal_system       triclinic
_cell_length_a                    24.589157
_cell_length_b                    17.425982
_cell_length_c                    15.580985
_cell_angle_alpha                 90.01297
_cell_angle_beta                  129.525677
_cell_angle_gamma                 89.937765
_cell_volume                      5149.68919573

loop_
_atom_site_label
_atom_site_type_symbol
_atom_site_description
_atom_site_fract_x
_atom_site_fract_y
_atom_site_fract_z
_atom_type_partial_charge
C1    C     C_R   0.344637 0.367787 0.221835 0.710634
C2    C     C_R   0.350507 0.640795 0.239566 0.767611
C3    C     C_R   0.833387 0.893443 0.197266 0.734722
C4    C     C_R   0.844061 0.131353 0.220340 0.704822
N1    N     N_R   0.389430 0.421450 0.294590 -0.124610
N2    N     N_R   0.389430 0.578550 0.294590 -0.123258
N3    N     N_R   0.889430 0.921450 0.294590 -0.129026
N4    N     N_R   0.889430 0.078550 0.294590 -0.127010
C5    C     C_R   0.667483 0.391065 0.798067 -0.171465
C6    C     C_R   0.650930 0.638735 0.756917 -0.205556
C7    C     C_R   0.168638 0.895600 0.802094 -0.219793
C8    C     C_R   0.167608 0.108360 0.798442 -0.176676
H1    H     H_    0.719537 0.390555 0.822281 0.139327
H2    H     H_    0.698323 0.652316 0.769469 0.153206
H3    H     H_    0.221304 0.898831 0.829033 0.143499
H4    H     H_    0.219677 0.108528 0.822724 0.139928
N5    N     N_R   0.612200 0.424040 0.705410 -0.079768
N6    N     N_R   0.612200 0.575960 0.705410 -0.089022
N7    N     N_R   0.112200 0.924040 0.705410 -0.085860
N8    N     N_R   0.112200 0.075960 0.705410 -0.083136
C9    C     C_R   0.615626 0.399301 0.408118 -0.160159
C10   C     C_R   0.615778 0.603060 0.408641 -0.151627
C11   C     C_R   0.088481 0.856634 0.408264 -0.127590
C12   C     C_R   0.115481 0.100976 0.408081 -0.150114
H5    H     H_    0.592132 0.398982 0.321538 0.121178
H6    H     H_    0.593762 0.605161 0.322622 0.114485
H7    H     H_    0.060463 0.843018 0.321964 0.127388
H8    H     H_    0.091936 0.101547 0.321482 0.121978
N9    N     N_R   0.581780 0.422390 0.443390 -0.042993
N10   N     N_R   0.581780 0.577610 0.443390 -0.040884
N11   N     N_R   0.081780 0.922390 0.443390 -0.050434
N12   N     N_R   0.081780 0.077610 0.443390 -0.042858
C13   C     C_R   0.408621 0.361629 0.593234 -0.033997
C14   C     C_R   0.384371 0.599457 0.590331 0.116162
C15   C     C_R   0.914342 0.857672 0.593513 -0.034107
C16   C     C_R   0.909572 0.139362 0.593110 -0.029579
H9    H     H_    0.434125 0.351783 0.679369 0.233438
H10   H     H_    0.404781 0.597175 0.675434 0.181305
H11   H     H_    0.944473 0.845435 0.680193 0.242422
H12   H     H_    0.935341 0.149595 0.679257 0.232068
N13   N     N_R   0.419850 0.423100 0.556610 -0.083290
N14   N     N_R   0.419850 0.576900 0.556610 -0.088038
N15   N     N_R   0.919850 0.923100 0.556610 -0.072749
N16   N     N_R   0.919850 0.076900 0.556610 -0.071574
C17   C     C_R   0.690289 0.400920 0.592576 0.022277
C18   C     C_R   0.690014 0.600401 0.593077 -0.045585
C19   C     C_R   0.164401 0.858515 0.593929 -0.084449
C20   C     C_R   0.190175 0.099278 0.592628 0.035589
H13   H     H_    0.737255 0.400465 0.678997 0.098723
H14   H     H_    0.737257 0.597661 0.679119 0.084460
H15   H     H_    0.208420 0.848164 0.680091 0.189789
H16   H     H_    0.237071 0.099979 0.679099 0.098561
N17   N     N_R   0.627410 0.423100 0.556610 -0.052076
N18   N     N_R   0.627410 0.576900 0.556610 -0.050513
N19   N     N_R   0.127410 0.923100 0.556610 -0.069945
N20   N     N_R   0.127410 0.076900 0.556610 -0.051057
C21   C     C_R   0.333039 0.362027 0.407948 0.006235
C22   C     C_R   0.311267 0.599650 0.406869 0.085102
C23   C     C_R   0.839414 0.856406 0.408614 0.054451
C24   C     C_R   0.834188 0.139183 0.407962 0.020910
H17   H     H_    0.287522 0.354795 0.323794 0.219632
H18   H     H_    0.264461 0.593970 0.321540 0.244426
H19   H     H_    0.796231 0.844744 0.323103 0.219881
H20   H     H_    0.789185 0.147357 0.323689 0.216765
N21   N     N_R   0.374220 0.422390 0.443390 -0.086937
N22   N     N_R   0.374220 0.577610 0.443390 -0.096127
N23   N     N_R   0.874220 0.922390 0.443390 -0.065801
N24   N     N_R   0.874220 0.077610 0.443390 -0.072412
C25   C     C_R   0.578430 0.392532 0.802272 0.754083
C26   C     C_R   0.560882 0.639804 0.759294 0.780426
C27   C     C_R   0.079275 0.895852 0.804587 0.749305
C28   C     C_R   0.078592 0.106960 0.802648 0.763617
N25   N     N_R   0.555000 0.424040 0.705410 -0.126081
N26   N     N_R   0.555000 0.575960 0.705410 -0.131984
N27   N     N_R   0.055000 0.924040 0.705410 -0.132147
N28   N     N_R   0.055000 0.075960 0.705410 -0.130572
C29   C     C_R   0.439253 0.363893 0.231019 -0.176562
C30   C     C_R   0.442342 0.641680 0.241151 -0.181588
C31   C     C_R   0.923720 0.891941 0.196869 -0.232662
C32   C     C_R   0.938704 0.135320 0.229649 -0.180593
H21   H     H_    0.475779 0.349577 0.216940 0.159761
H22   H     H_    0.478927 0.657237 0.227714 0.161404
H23   H     H_    0.952744 0.894141 0.166319 0.165085
H24   H     H_    0.975102 0.149396 0.215267 0.161652
N29   N     N_R   0.446630 0.421450 0.294590 -0.080978
N30   N     N_R   0.446630 0.578550 0.294590 -0.082661
N31   N     N_R   0.946630 0.921450 0.294590 -0.081179
N32   N     N_R   0.946630 0.078550 0.294590 -0.085152
C33   C     C_R   0.376701 0.327477 0.187724 -0.032593
C34   C     C_R   0.383300 0.682864 0.207978 -0.057007
C35   C     C_R   0.852879 0.874256 0.133821 -0.032771
C36   C     C_R   0.875798 0.171265 0.185469 -0.036179
C37   C     C_R   0.648418 0.371923 0.861942 -0.072539
C38   C     C_R   0.619066 0.681162 0.789608 -0.060972
C39   C     C_R   0.149924 0.877706 0.866668 -0.047060
C40   C     C_R   0.148650 0.127198 0.862551 -0.080448
C41   C     C_R   0.684849 0.386744 0.500579 0.168721
C42   C     C_R   0.684499 0.617068 0.501681 0.209938
C43   C     C_R   0.140661 0.814258 0.501909 0.211296
C44   C     C_R   0.184590 0.113854 0.500601 0.176201
C45   C     C_R   0.354967 0.320039 0.500162 0.192434
C46   C     C_R   0.315609 0.614611 0.497361 0.096168
C47   C     C_R   0.863092 0.813300 0.501939 0.136170
C48   C     C_R   0.856389 0.181532 0.500067 0.170296
Ni1   Ni    Ni4+2 0.382890 0.500000 0.370170 0.316151
Ni2   Ni    Ni4+2 0.882890 0.000000 0.370170 0.353250
Ni3   Ni    Ni4+2 0.618740 0.500000 0.629830 0.209409
Ni4   Ni    Ni4+2 0.118740 0.000000 0.629830 0.202126
Ni5   Ni    Ni4+2 0.514090 0.500000 0.370170 0.227020
Ni6   Ni    Ni4+2 0.014090 0.000000 0.370170 0.219416
Ni7   Ni    Ni4+2 0.487550 0.500000 0.629830 0.298205
Ni8   Ni    Ni4+2 0.987550 0.000000 0.629830 0.330132
C49   C     C_3   0.360089 0.199274 0.597091 0.904458
C50   C     C_3   0.289777 0.748661 0.506691 0.906361
C51   C     C_3   0.861905 0.710702 0.619409 0.888139
C52   C     C_3   0.860883 0.302290 0.596878 0.898738
C53   C     C_3   0.809861 0.659965 0.618952 -0.548314
C54   C     C_3   0.811866 0.355020 0.602496 -0.561563
C55   C     C_3   0.311324 0.146252 0.602647 -0.557594
C56   C     C_3   0.244133 0.801920 0.516374 -0.549004
H25   H     H_    0.827470 0.599435 0.642893 0.206075
H26   H     H_    0.823375 0.417098 0.606183 0.214573
H27   H     H_    0.323179 0.084260 0.606461 0.220100
H28   H     H_    0.221750 0.849795 0.455221 0.206264
H29   H     H_    0.320467 0.158531 0.680980 0.242119
H30   H     H_    0.277769 0.829957 0.599652 0.241277
H31   H     H_    0.807151 0.682465 0.683009 0.243048
H32   H     H_    0.821122 0.342599 0.680886 0.243727
H33   H     H_    0.302779 0.323293 0.610804 0.175095
H34   H     H_    0.324310 0.659950 0.677059 0.173574
H35   H     H_    0.783791 0.836687 0.565413 0.185161
H36   H     H_    0.804153 0.177783 0.610508 0.171637
C57   C     C_3   0.267369 0.302310 0.523301 0.491892
C58   C     C_3   0.270697 0.645484 0.599449 0.452318
C59   C     C_3   0.759769 0.800929 0.489809 0.463299
C60   C     C_3   0.768637 0.198886 0.523029 0.471100
C61   C     C_3   0.263100 0.214141 0.384523 0.888508
C62   C     C_3   0.185883 0.651458 0.387953 0.918945
C63   C     C_3   0.786764 0.691594 0.408052 0.941435
C64   C     C_3   0.763935 0.287523 0.384342 0.892952
C65   C     C_3   0.312236 0.260137 0.499451 -0.535366
C66   C     C_3   0.265448 0.662947 0.495763 -0.505121
C67   C     C_3   0.819324 0.754692 0.503283 -0.516533
C68   C     C_3   0.813366 0.241421 0.499255 -0.516963
C69   C     C_3   0.735325 0.662918 0.503618 -0.152324
C70   C     C_3   0.733809 0.338345 0.501732 -0.152770
C71   C     C_3   0.233197 0.162719 0.501796 -0.168296
C72   C     C_3   0.184542 0.756316 0.501616 -0.140995
C73   C     C_3   0.706766 0.746382 0.476848 0.522696
C74   C     C_3   0.715317 0.254066 0.508367 0.515910
C75   C     C_3   0.214230 0.246835 0.508410 0.516893
C76   C     C_3   0.216995 0.694858 0.595590 0.503281
C77   C     C_3   0.742339 0.634065 0.416940 -0.665688
C78   C     C_3   0.726103 0.351711 0.395829 -0.632487
C79   C     C_3   0.225552 0.149723 0.395898 -0.620234
C80   C     C_3   0.140585 0.712909 0.388602 -0.670316
H37   H     H_    0.767886 0.576485 0.442471 0.262919
H38   H     H_    0.748545 0.408703 0.401210 0.260765
H39   H     H_    0.248252 0.092871 0.401221 0.267096
H40   H     H_    0.122215 0.754236 0.320660 0.263143
H41   H     H_    0.689779 0.625421 0.334361 0.201675
H42   H     H_    0.670576 0.354090 0.318597 0.197711
H43   H     H_    0.170041 0.147342 0.318638 0.196597
H44   H     H_    0.091951 0.688815 0.368857 0.221745
H45   H     H_    0.656197 0.749216 0.389931 0.139344
H46   H     H_    0.661306 0.240105 0.431443 0.152753
H47   H     H_    0.160189 0.260720 0.431395 0.155606
H48   H     H_    0.174045 0.657982 0.578054 0.159109
H49   H     H_    0.293434 0.786303 0.183909 0.227801
H50   H     H_    0.295476 0.222790 0.177051 0.225237
H51   H     H_    0.796183 0.276840 0.177264 0.223643
H52   H     H_    0.710397 0.878029 0.978035 0.225834
H53   H     H_    0.789071 0.370966 0.001742 0.145045
H54   H     H_    0.717113 0.774469 0.822420 0.168661
H55   H     H_    0.291171 0.873800 0.007158 0.149250
H56   H     H_    0.289353 0.129028 0.001866 0.142286
C81   C     C_2   0.695854 0.344101 0.976440 -0.012111
C82   C     C_2   0.644289 0.754162 0.849621 -0.024576
C83   C     C_2   0.197611 0.852691 0.983127 -0.019361
C84   C     C_2   0.196133 0.154723 0.977219 -0.002831
C85   C     C_2   0.765444 0.343396 0.033351 -0.145292
C86   C     C_2   0.696463 0.792585 0.863408 -0.142433
C87   C     C_2   0.267365 0.849974 0.040602 -0.169325
C88   C     C_2   0.265695 0.156054 0.033808 -0.162955
H57   H     H_    0.374202 0.767085 0.094849 0.163282
H58   H     H_    0.362653 0.246739 0.066521 0.163552
H59   H     H_    0.860829 0.251433 0.063008 0.163360
H60   H     H_    0.832840 0.815358 0.991869 0.159731
C89   C     C_2   0.357996 0.754241 0.143955 -0.123301
C90   C     C_2   0.349992 0.258091 0.120682 -0.134549
C91   C     C_2   0.848923 0.240517 0.118211 -0.137339
C92   C     C_2   0.807572 0.846046 0.018941 -0.137287
C93   C     C_2   0.309808 0.797897 0.134929 -0.002637
C94   C     C_2   0.307658 0.211540 0.122439 0.011940
C95   C     C_2   0.807575 0.287709 0.121593 0.016262
C96   C     C_2   0.737241 0.847426 0.954230 -0.027609
H61   H     H_    0.673030 0.315329 0.008795 0.216270
H62   H     H_    0.624817 0.772454 0.892452 0.197080
H63   H     H_    0.174577 0.827643 0.017408 0.200143
H64   H     H_    0.173271 0.182893 0.009955 0.215596
F1    F     F_    0.274611 0.367079 0.168534 -0.660991
F2    F     F_    0.286303 0.654519 0.209686 -0.681288
F3    F     F_    0.766772 0.902269 0.160071 -0.679894
F4    F     F_    0.773992 0.131586 0.166870 -0.655797
N33   N     N_R   0.405096 0.155979 0.582113 0.286426
O1    O     O_R   0.394057 0.083849 0.553891 -0.325598
O2    O     O_R   0.458060 0.190213 0.598621 -0.314181
N34   N     N_R   0.287994 0.772117 0.413856 0.255478
O3    O     O_R   0.230225 0.796731 0.319982 -0.344556
O4    O     O_R   0.346582 0.776567 0.429479 -0.323135
N35   N     N_R   0.921353 0.666091 0.643464 0.286722
O5    O     O_R   0.919806 0.591505 0.637094 -0.288583
O6    O     O_R   0.977637 0.701478 0.673489 -0.328792
N36   N     N_R   0.905624 0.345947 0.581822 0.288695
O7    O     O_R   0.893928 0.417969 0.552900 -0.288229
O8    O     O_R   0.958814 0.312058 0.598460 -0.303245
F5    F     F_    0.692947 0.769954 0.546506 -0.666917
F6    F     F_    0.715362 0.243993 0.596854 -0.666292
F7    F     F_    0.214096 0.256548 0.596769 -0.656219
F8    F     F_    0.251244 0.727054 0.699630 -0.691402
N37   N     N_R   0.742444 0.723042 0.294218 0.222176
O9    O     O_R   0.680342 0.751567 0.247702 -0.351194
O10   O     O_R   0.760375 0.711791 0.232525 -0.320903
N38   N     N_R   0.709515 0.241447 0.285306 0.228670
O11   O     O_R   0.658378 0.208933 0.275908 -0.345247
O12   O     O_R   0.702563 0.248124 0.195594 -0.326093
N39   N     N_R   0.208519 0.260189 0.285421 0.227788
O13   O     O_R   0.157346 0.292716 0.276058 -0.337407
O14   O     O_R   0.201572 0.253559 0.195699 -0.321802
N40   N     N_R   0.161761 0.572729 0.382387 0.277765
O15   O     O_R   0.121266 0.557290 0.406963 -0.317826
O16   O     O_R   0.180844 0.516724 0.351389 -0.242804
F9    F     F_    0.305531 0.180873 0.364629 -0.656548
F10   F     F_    0.176373 0.663520 0.291312 -0.642055
F11   F     F_    0.841665 0.651426 0.424893 -0.609336
F12   F     F_    0.806134 0.321105 0.364294 -0.653328
F13   F     F_    0.233504 0.366886 0.457567 -0.582449
F14   F     F_    0.260485 0.568267 0.606551 -0.609144
F15   F     F_    0.724714 0.851898 0.401180 -0.617939
F16   F     F_    0.734985 0.134316 0.457176 -0.608223
F17   F     F_    0.545772 0.400496 0.846335 -0.676974
F18   F     F_    0.517705 0.659857 0.781323 -0.671177
F19   F     F_    0.046193 0.905638 0.847722 -0.653477
F20   F     F_    0.045943 0.098798 0.846684 -0.656335
F21   F     F_    0.404429 0.234805 0.700083 -0.693227
F22   F     F_    0.358920 0.756609 0.604899 -0.655383
F23   F     F_    0.889244 0.761492 0.706809 -0.697539
F24   F     F_    0.905436 0.266681 0.699849 -0.691455

loop_
_geom_bond_atom_site_label_1
_geom_bond_atom_site_label_2
_geom_bond_distance
_ccdc_geom_bond_type
C22   H18   1.074499 S    
C11   C43   1.391411 A    
C43   C72   1.479046 S    
C32   C36   1.378992 A    
C10   C42   1.378121 A    
C3    F3    1.354193 S    
C41   C70   1.459884 S    
C28   F20   1.355352 S    
C71   C75   1.560879 S    
C2    F2    1.352786 S    
C4    N4    1.336067 A    
C1    F1    1.354486 S    
N38   O11   1.300266 A    
H54   C86   1.085197 S    
C31   N31   1.344830 A    
C10   H6    1.080343 S    
N7    N27   1.406500 A    
N31   Ni6   1.878777 S    
N1    Ni1   1.877795 S    
N33   O1    1.302107 A    
C30   C34   1.390210 A    
C46   C66   1.479891 S    
C64   C78   1.535622 S    
N10   N18   1.360752 A    
C7    N7    1.333684 A    
N27   Ni8   1.843788 S    
C14   C46   1.381506 A    
C54   H32   1.112023 S    
N18   Ni3   1.858387 S    
C1    N1    1.336095 A    
C92   C96   1.337317 D    
N9    Ni5   1.865422 S    
C26   C38   1.389731 A    
C78   H38   1.113624 S    
C3    N3    1.333408 A    
N5    Ni3   1.845797 S    
N16   N24   1.360752 A    
C38   C82   1.462960 S    
C60   C68   1.554592 S    
C28   C40   1.384810 A    
C81   C85   1.335344 D    
H36   C60   1.113608 S    
C4    F4    1.354826 S    
C27   C39   1.383326 A    
C6    C38   1.387978 A    
C44   C71   1.458705 S    
C55   C71   1.548781 S    
C74   H46   1.110850 S    
C19   C43   1.387955 A    
N8    N28   1.406500 A    
C3    C35   1.386086 A    
C54   H26   1.110668 S    
N38   O12   1.300970 A    
C2    C34   1.391567 A    
C5    H1    1.079818 S    
N6    Ni3   1.845162 S    
N20   Ni4   1.858387 S    
C53   H25   1.110329 S    
C29   N29   1.338360 A    
C23   N23   1.326568 A    
C70   C74   1.560669 S    
C45   C65   1.476930 S    
N11   Ni6   1.865422 S    
N3    N31   1.406500 A    
C8    H4    1.079727 S    
C59   F15   1.386588 S    
N34   O3    1.302107 A    
C51   C53   1.552503 S    
C61   C79   1.534458 S    
C14   N14   1.332013 A    
C26   N26   1.344963 A    
C33   C90   1.453403 S    
C48   C68   1.479549 S    
C77   H37   1.113717 S    
C25   N25   1.343146 A    
C22   C46   1.369521 A    
C29   H21   1.080405 S    
C27   F19   1.355741 S    
C42   C69   1.468103 S    
C15   N15   1.322361 A    
H59   C91   1.087392 S    
C36   C91   1.452099 S    
C32   H24   1.080359 S    
N1    N29   1.406500 A    
N7    Ni4   1.845797 S    
C30   N30   1.342769 A    
C59   C67   1.563315 S    
C82   H62   1.087408 S    
H53   C85   1.084325 S    
N6    N26   1.406500 A    
C81   H61   1.086888 S    
N5    N25   1.406500 A    
C58   F14   1.386390 S    
C8    N8    1.328045 A    
H34   C58   1.111404 S    
N24   Ni2   1.866624 S    
C50   C56   1.535243 S    
N21   Ni1   1.867335 S    
C76   H48   1.112211 S    
C22   N22   1.321030 A    
N25   Ni7   1.843788 S    
C90   C94   1.334356 D    
C83   C87   1.338214 D    
C11   H7    1.077068 S    
N33   O2    1.301311 A    
C20   C44   1.374339 A    
C51   C67   1.595370 S    
C27   N27   1.345776 A    
N10   Ni5   1.867666 S    
C79   H39   1.113470 S    
C52   F24   1.386016 S    
C62   N40   1.475717 S    
N30   Ni5   1.876538 S    
C73   H45   1.113139 S    
C83   H63   1.087356 S    
C52   C68   1.594899 S    
C52   N36   1.474637 S    
C6    H2    1.078335 S    
N26   Ni7   1.845990 S    
H50   C94   1.084647 S    
C37   C81   1.459012 S    
N36   O7    1.302089 A    
C64   N38   1.479821 S    
C54   C70   1.548772 S    
H49   C93   1.084745 S    
H51   C95   1.084530 S    
C79   H43   1.105713 S    
C59   C73   1.520015 S    
C9    N9    1.318295 A    
C13   H9    1.073529 S    
C2    N2    1.334654 A    
C47   C67   1.494274 S    
N4    N32   1.406500 A    
C49   N33   1.474869 S    
H58   C90   1.087376 S    
C15   C47   1.390949 A    
C15   H11   1.069832 S    
N14   Ni7   1.856603 S    
C12   N12   1.317671 A    
N35   O5    1.302252 A    
N37   O9    1.301552 A    
C84   H64   1.086930 S    
C58   C66   1.566507 S    
C9    C41   1.377920 A    
C30   H22   1.080235 S    
H35   C59   1.113381 S    
C60   C74   1.520482 S    
N39   O13   1.300277 A    
C70   C78   1.554029 S    
C16   H12   1.073552 S    
N28   Ni8   1.845990 S    
C58   C76   1.544044 S    
H56   C88   1.084299 S    
C18   N18   1.322192 A    
C17   H13   1.080526 S    
C74   F6    1.389184 S    
N3    Ni2   1.877795 S    
C28   N28   1.343639 A    
C49   C55   1.560003 S    
C40   C84   1.459805 S    
N40   O16   1.301215 A    
N17   Ni3   1.857681 S    
C53   H31   1.112992 S    
C80   H44   1.110749 S    
C82   C86   1.338418 D    
C56   H30   1.114013 S    
N12   Ni6   1.867666 S    
H57   C89   1.087496 S    
C52   C54   1.560950 S    
H33   C57   1.113602 S    
N16   Ni8   1.856603 S    
C49   F21   1.386088 S    
C39   C83   1.465796 S    
N35   O6    1.300801 A    
N37   O10   1.302297 A    
C56   C72   1.550831 S    
C7    H3    1.079185 S    
C61   C65   1.598881 S    
C60   F16   1.387219 S    
C4    C36   1.388872 A    
C63   F11   1.388654 S    
C53   C69   1.548772 S    
C75   F7    1.389134 S    
C23   H19   1.069363 S    
C62   F10   1.384933 S    
C86   C96   1.454843 S    
N15   Ni8   1.858841 S    
N22   Ni1   1.866624 S    
C61   F9    1.389589 S    
C88   C94   1.447235 S    
C5    C37   1.384159 A    
C71   C79   1.553796 S    
C55   H29   1.112063 S    
C12   H8    1.077769 S    
C19   N19   1.325507 A    
C73   F5    1.389628 S    
C25   C37   1.384647 A    
C5    N5    1.327792 A    
C69   C77   1.549985 S    
C20   N20   1.322000 A    
C9    H5    1.077781 S    
C1    C33   1.389061 A    
C10   N10   1.328810 A    
N39   O14   1.301084 A    
C14   H10   1.079176 S    
H55   C87   1.084193 S    
C31   C35   1.384642 A    
C78   H42   1.105696 S    
C16   N16   1.324438 A    
N14   N22   1.360752 A    
C72   C76   1.561821 S    
C21   N21   1.314171 A    
H60   C92   1.087509 S    
N4    Ni2   1.878437 S    
C19   H15   1.075398 S    
C12   C44   1.377965 A    
C50   C66   1.577989 S    
N23   Ni2   1.867335 S    
C21   H17   1.058338 S    
C29   C33   1.380134 A    
C80   H40   1.110992 S    
C55   H27   1.110302 S    
C23   C47   1.392683 A    
C21   C45   1.379860 A    
C35   C92   1.466053 S    
C18   H14   1.080111 S    
N29   Ni5   1.878777 S    
N2    N30   1.406500 A    
C51   N35   1.477129 S    
N19   Ni4   1.857681 S    
C24   H20   1.057937 S    
C13   N13   1.323183 A    
C13   C45   1.391101 A    
C64   C68   1.599063 S    
N32   Ni6   1.876538 S    
N13   N21   1.360767 A    
C32   N32   1.337715 A    
N34   O4    1.301745 A    
C17   C41   1.374566 A    
C26   F18   1.352794 S    
C31   H23   1.081578 S    
C25   F17   1.355329 S    
C16   C48   1.391798 A    
C50   F22   1.392927 S    
N9    N17   1.360767 A    
C6    N6    1.332933 A    
C75   H47   1.110883 S    
C76   F8    1.383742 S    
C62   C66   1.583363 S    
C87   C93   1.455659 S    
N2    Ni1   1.878437 S    
C50   N34   1.476731 S    
C63   N37   1.473981 S    
N36   O8    1.301301 A    
C49   C65   1.594781 S    
C18   C42   1.372927 A    
N40   O15   1.302482 A    
C85   C95   1.445930 S    
C91   C95   1.333836 D    
H52   C96   1.080935 S    
C56   H28   1.112950 S    
C62   C80   1.548951 S    
C17   N17   1.322843 A    
C57   F13   1.386225 S    
C89   C93   1.337353 D    
C20   H16   1.080551 S    
C7    C39   1.382405 A    
C24   N24   1.315771 A    
N15   N23   1.360767 A    
N13   Ni7   1.858841 S    
C77   H41   1.110054 S    
C61   N39   1.479812 S    
C64   F12   1.389504 S    
C63   C77   1.553222 S    
C8    C40   1.383850 A    
C63   C67   1.593976 S    
C57   C65   1.554106 S    
C72   C80   1.555534 S    
N11   N19   1.360767 A    
C24   C48   1.380330 A    
N12   N20   1.360752 A    
C51   F23   1.387518 S    
C69   C73   1.551697 S    
C84   C88   1.335697 D    
C11   N11   1.324300 A    
C57   C75   1.520670 S    
N8    Ni4   1.845162 S    
C34   C89   1.462244 S    
