data_mof_unit_4904.cif
_audit_creation_date              2012-12-10T18:11:51-0500
_audit_creation_method            fapswitch 2.2
_symmetry_space_group_name_H-M    P1
_symmetry_Int_Tables_number       1
_space_group_crystal_system       triclinic
_cell_length_a                    15.842016
_cell_length_b                    10.734093
_cell_length_c                    9.568558
_cell_angle_alpha                 90.772404
_cell_angle_beta                  89.858592
_cell_angle_gamma                 89.466992
_cell_volume                      1626.90643411

loop_
_atom_site_label
_atom_site_type_symbol
_atom_type_description
_atom_site_fract_x
_atom_site_fract_y
_atom_site_fract_z
_atom_type_partial_charge
C1    C     C_R   0.499157 0.260294 0.499047 0.744962
C2    C     C_3   0.083036 0.499699 0.501500 0.061939
C3    C     C_3   0.970682 0.598000 0.580129 -0.333881
C4    C     C_3   0.917075 0.499117 0.504471 0.105822
C5    C     C_3   0.026375 0.605465 0.448230 0.407217
C6    C     C_3   0.972012 0.508053 0.373265 0.457434
C7    C     C_1   0.174801 0.500034 0.500871 -0.037178
C8    C     C_1   0.825263 0.498902 0.502663 -0.003647
C9    C     C_3   0.583890 0.071497 0.554017 -0.383554
C10   C     C_3   0.587768 0.928510 0.536943 -0.381957
C11   C     C_3   0.425927 0.073453 0.588530 -0.395298
C12   C     C_R   0.340184 0.500169 0.500152 0.826171
C13   C     C_3   0.486129 0.070281 0.346404 -0.357770
C14   C     C_3   0.498798 0.122134 0.497019 0.161089
C15   C     C_3   0.499723 0.878032 0.495517 0.168587
C16   C     C_3   0.428613 0.930114 0.591097 -0.380746
C17   C     C_3   0.481590 0.927107 0.346887 -0.377224
C18   C     C_3   0.534154 0.618000 0.088407 -0.280028
C19   C     C_3   0.537035 0.620960 0.922080 0.396084
C20   C     C_3   0.556429 0.400447 0.080276 -0.252059
C21   C     C_3   0.416382 0.480213 0.085226 -0.333200
C22   C     C_3   0.555252 0.401164 0.914106 -0.376327
C23   C     C_R   0.500016 0.739773 0.499565 0.743999
C24   C     C_3   0.413042 0.486286 0.916864 0.969569
C25   C     C_R   0.659825 0.499728 0.499985 0.806117
C26   C     C_3   0.972949 0.392687 0.559499 -0.179202
C27   C     C_3   0.028483 0.400972 0.425873 -0.290634
C28   C     C_1   0.250419 0.500211 0.500527 -0.192553
C29   C     C_1   0.749628 0.499215 0.500660 -0.193527
C30   C     C_3   0.028606 0.491229 0.634961 -0.199679
Cu1   Cu    Cu3+1 0.500040 0.499860 0.642410 0.998011
Cu2   Cu    Cu3+1 0.499960 0.500140 0.357590 0.893357
H1    H     H_    0.053125 0.321646 0.361767 0.146069
H2    H     H_    0.613820 0.884131 0.630679 0.142754
H3    H     H_    0.430291 0.110957 0.696866 0.202594
H4    H     H_    0.438881 0.897805 0.697542 0.212741
H5    H     H_    0.427268 0.108941 0.299906 0.165610
H6    H     H_    0.540328 0.099211 0.281106 0.171500
H7    H     H_    0.529092 0.888824 0.271547 0.168068
H8    H     H_    0.417750 0.896770 0.312836 0.153875
H9    H     H_    0.364396 0.105168 0.545086 0.151187
H10   H     H_    0.366411 0.892973 0.557223 0.146211
H11   H     H_    0.598538 0.634910 0.130463 0.133544
H12   H     H_    0.949204 0.305715 0.606480 0.143076
H13   H     H_    0.494404 0.695227 0.129967 0.169616
H14   H     H_    0.604346 0.628057 0.888235 0.069061
H15   H     H_    0.622525 0.411111 0.117224 0.171205
H16   H     H_    0.621016 0.409866 0.874812 0.158401
H17   H     H_    0.395252 0.386904 0.119726 0.155141
H18   H     H_    0.371403 0.542894 0.138643 0.153115
H19   H     H_    0.536079 0.307916 0.117321 0.174859
H20   H     H_    0.533790 0.309529 0.874791 0.212431
H21   H     H_    0.944100 0.679392 0.638146 0.143844
H22   H     H_    0.053794 0.483671 0.742736 0.142657
H23   H     H_    0.590959 0.097384 0.666166 0.162570
H24   H     H_    0.637642 0.113358 0.496700 0.144906
H25   H     H_    0.633951 0.904076 0.452781 0.153419
N1    N     N_3   0.501840 0.500250 0.143650 -0.157236
N2    N     N_3   0.501160 0.503300 0.856280 -0.172099
O1    O     O_R   0.500050 0.317570 0.620260 -0.570722
O2    O     O_R   0.499980 0.317810 0.379740 -0.597791
O3    O     O_R   0.379110 0.499870 0.620240 -0.494352
O4    O     O_R   0.379040 0.500110 0.379720 -0.596998
O5    O     O_R   0.500020 0.682190 0.620260 -0.520194
O6    O     O_R   0.499950 0.682430 0.379740 -0.608798
O7    O     O_R   0.620960 0.499890 0.620280 -0.597922
O8    O     O_R   0.620890 0.500130 0.379760 -0.572820
O9    O     O_3   0.493652 0.729020 0.876280 -0.588799
C31   C     C_3   0.533548 0.840907 0.920861 -0.008889
H26   H     H_    0.565285 0.882077 0.831222 0.172578
H27   H     H_    0.583619 0.828830 0.001215 0.100556
C32   C     C_3   0.467456 0.934113 0.976915 -0.353315
H28   H     H_    0.410909 0.938785 0.909673 0.207798
H29   H     H_    0.444234 0.903480 0.079112 0.194486
C33   C     C_3   0.504432 0.064015 0.989490 -0.945339
H30   H     H_    0.563016 0.062355 0.052589 0.244727
H31   H     H_    0.457403 0.128588 0.038046 0.259968
H32   H     H_    0.520718 0.098168 0.884492 0.252269
O10   O     O_3   0.357647 0.580091 0.859433 -0.594090
C34   C     C_3   0.326195 0.679468 0.944033 0.050939
H33   H     H_    0.320724 0.761423 0.874927 0.186858
H34   H     H_    0.368898 0.709622 0.028345 0.138199
C35   C     C_3   0.237382 0.653209 0.998959 -0.454172
H35   H     H_    0.194711 0.633613 0.909495 0.217791
H36   H     H_    0.237608 0.570883 0.067527 0.204387
C36   C     C_3   0.203706 0.765164 0.082564 -0.885082
H37   H     H_    0.248441 0.789947 0.167399 0.250812
H38   H     H_    0.142080 0.742513 0.130415 0.293900
H39   H     H_    0.195120 0.846563 0.013381 0.247183
O11   O     O_3   0.384210 0.367780 0.867194 -0.593959
C37   C     C_3   0.296037 0.351317 0.884934 0.076878
H40   H     H_    0.259689 0.412777 0.813868 0.193064
H41   H     H_    0.275620 0.369636 0.994349 0.103141
C38   C     C_3   0.273576 0.217482 0.848362 -0.857673
H42   H     H_    0.312308 0.151959 0.910800 0.251346
H43   H     H_    0.205785 0.201557 0.871117 0.204670
H44   H     H_    0.284807 0.199424 0.735476 0.242837
O12   O     O_3   0.931591 0.510407 0.242237 -0.625832
C39   C     C_3   0.985066 0.554953 0.136530 0.070831
H45   H     H_    0.980792 0.488338 0.046953 0.159098
H46   H     H_    0.053181 0.558378 0.165366 0.135276
C40   C     C_3   0.953213 0.683621 0.091254 -0.301870
H47   H     H_    0.883109 0.687310 0.097474 0.229500
H48   H     H_    0.978136 0.756978 0.162271 0.241984
C41   C     C_3   0.978934 0.711500 0.941669 -0.989751
H49   H     H_    0.048346 0.704950 0.928559 0.267516
H50   H     H_    0.957507 0.806722 0.913760 0.256416
H51   H     H_    0.948400 0.643288 0.870700 0.265372
O13   O     O_3   0.058649 0.713713 0.386008 -0.615433
C42   C     C_3   0.083395 0.799687 0.490867 0.081400
H52   H     H_    0.118003 0.754001 0.578009 0.149034
H53   H     H_    0.026700 0.848950 0.533563 0.145537
C43   C     C_3   0.141806 0.895711 0.428044 -0.828356
H54   H     H_    0.111670 0.939237 0.335832 0.255217
H55   H     H_    0.155699 0.969412 0.507035 0.199385
H56   H     H_    0.202148 0.850353 0.395925 0.240196

loop_
_geom_bond_atom_site_label_1
_geom_bond_atom_site_label_2
_ccdc_geom_bond_type
Cu1   O7    S    
C22   H16   S    
C31   C32   S    
C32   H29   S    
C2    C7    S    
C25   O8    A    
Cu2   N1    S    
C9    C14   S    
C21   H17   S    
C19   H14   S    
C26   H12   S    
C27   H1    S    
C30   H22   S    
C26   C27   S    
C12   C28   S    
C35   H35   S    
C8    C29   T    
C6    O12   S    
Cu2   O2    S    
C20   H19   S    
C10   C15   S    
C32   C33   S    
C5    C6    S    
C11   C14   S    
C36   H38   S    
C15   C16   S    
C12   O3    A    
C40   C41   S    
C18   C19   S    
C17   H7    S    
Cu1   N2    S    
C31   H27   S    
C42   H52   S    
C18   N1    S    
Cu1   Cu2   S    
O9    C31   S    
C2    C27   S    
C9    H23   S    
C9    C10   S    
C13   H5    S    
C4    C8    S    
C43   H56   S    
C15   C23   S    
C13   C14   S    
Cu1   O3    S    
C31   H26   S    
C34   C35   S    
C21   H18   S    
C25   C29   S    
C41   H51   S    
C40   H47   S    
C10   H25   S    
C34   H34   S    
C1    O1    A    
C37   H40   S    
C12   O4    A    
C36   H37   S    
C32   H28   S    
C38   H44   S    
C19   N2    S    
C7    C28   T    
C1    O2    A    
C17   H8    S    
Cu1   O1    S    
C3    C30   S    
C38   H43   S    
C33   H30   S    
C37   H41   S    
C41   H50   S    
C11   C16   S    
C24   O10   S    
C6    C27   S    
C35   C36   S    
C19   O9    S    
C10   H2    S    
C9    H24   S    
C40   H48   S    
C33   H31   S    
C42   C43   S    
C13   H6    S    
Cu2   O8    S    
C4    C6    S    
C23   O5    A    
C39   H46   S    
C20   C22   S    
C26   C30   S    
C2    C5    S    
C20   N1    S    
C3    C4    S    
C18   H13   S    
C16   H10   S    
C22   N2    S    
C22   H20   S    
C43   H54   S    
C15   C17   S    
C35   H36   S    
Cu1   O5    S    
C25   O7    A    
Cu2   O4    S    
C34   H33   S    
C3    C5    S    
C36   H39   S    
C24   O11   S    
C4    C26   S    
C41   H49   S    
C39   H45   S    
C13   C17   S    
C2    C30   S    
C23   O6    A    
C11   H3    S    
C21   N1    S    
C18   H11   S    
C16   H4    S    
C37   C38   S    
C3    H21   S    
O11   C37   S    
C5    O13   S    
C24   N2    S    
C11   H9    S    
C38   H42   S    
C33   H32   S    
C42   H53   S    
C20   H15   S    
O10   C34   S    
C39   C40   S    
O12   C39   S    
C21   C24   S    
C1    C14   S    
O13   C42   S    
Cu2   O6    S    
C43   H55   S    
