data_mof_unit_2118.cif
_audit_creation_date              2012-12-10T18:00:44-0500
_audit_creation_method            fapswitch 2.2
_symmetry_space_group_name_H-M    P1
_symmetry_Int_Tables_number       1
_space_group_crystal_system       triclinic
_cell_length_a                    15.852769
_cell_length_b                    10.879298
_cell_length_c                    9.529207
_cell_angle_alpha                 88.976729
_cell_angle_beta                  90.714115
_cell_angle_gamma                 90.800555
_cell_volume                      1642.92861457

loop_
_atom_site_label
_atom_site_type_symbol
_atom_type_description
_atom_site_fract_x
_atom_site_fract_y
_atom_site_fract_z
_atom_type_partial_charge
C1    C     C_R   0.503128 0.262296 0.501730 0.867960
C2    C     C_R   0.498284 0.737879 0.498505 0.867446
C3    C     C_R   0.531282 0.939481 0.381248 0.155687
C4    C     C_R   0.475918 0.060838 0.622291 0.155645
C5    C     C_R   0.496504 0.872247 0.495718 -0.185015
C6    C     C_R   0.507962 0.128193 0.506018 -0.183243
C7    C     C_R   0.440925 0.432597 0.073988 0.352850
C8    C     C_R   0.558776 0.567808 0.925943 0.354561
C9    C     C_R   0.441072 0.433748 0.924941 -0.140252
C10   C     C_R   0.558139 0.567637 0.075010 -0.138968
C11   C     C_R   0.339801 0.500149 0.499249 0.814317
C12   C     C_R   0.660182 0.499851 0.500774 0.814083
C13   C     C_3   0.972845 0.409787 0.590234 -0.309532
C14   C     C_3   0.027017 0.589941 0.410677 -0.308281
C15   C     C_3   0.026764 0.392810 0.458520 0.544202
C16   C     C_3   0.973095 0.606897 0.542389 0.542473
C17   C     C_1   0.250101 0.501093 0.497909 -0.181548
C18   C     C_1   0.749843 0.498782 0.502283 -0.185286
C19   C     C_3   0.029649 0.521253 0.632052 -0.300978
C20   C     C_3   0.970230 0.478469 0.368856 -0.299887
C21   C     C_3   0.082873 0.502164 0.499526 0.074601
C22   C     C_3   0.917017 0.497545 0.501359 0.075647
C23   C     C_1   0.174540 0.501828 0.498123 -0.004232
C24   C     C_1   0.825381 0.497946 0.502431 -0.008604
C25   C     C_R   0.540886 0.067352 0.389923 0.152405
C26   C     C_R   0.466129 0.933255 0.613991 0.157827
Cu1   Cu    Cu3+1 0.500000 0.500020 0.640660 0.974700
Cu2   Cu    Cu3+1 0.500000 0.499980 0.359340 0.975874
H1    H     H_    0.949385 0.335840 0.662054 0.145165
H2    H     H_    0.050436 0.663937 0.338887 0.145267
H3    H     H_    0.944664 0.459412 0.262346 0.147051
H4    H     H_    0.055192 0.540317 0.738572 0.147207
H5    H     H_    0.393620 0.381890 0.867765 0.162089
H6    H     H_    0.603600 0.623073 0.132191 0.164620
N1    N     N_R   0.500020 0.500030 0.852070 -0.179898
N2    N     N_R   0.499980 0.499970 0.147930 -0.180980
O1    O     O_R   0.500000 0.319660 0.618740 -0.561076
O2    O     O_R   0.500000 0.680340 0.381260 -0.564786
O3    O     O_R   0.499990 0.319630 0.381170 -0.530389
O4    O     O_R   0.500010 0.680370 0.618830 -0.538650
O5    O     O_R   0.379080 0.500000 0.618760 -0.583820
O6    O     O_R   0.620920 0.500000 0.381240 -0.581025
O7    O     O_R   0.379080 0.499970 0.381190 -0.560076
O8    O     O_R   0.620920 0.500030 0.618810 -0.551407
O9    O     O_3   0.061863 0.281813 0.414091 -0.575303
C27   C     C_3   0.996631 0.195726 0.387066 0.065264
H7    H     H_    0.952670 0.230567 0.303942 0.136662
H8    H     H_    0.960703 0.173927 0.484151 0.136801
C28   C     C_3   0.035036 0.077436 0.336243 -0.798075
H9    H     H_    0.079839 0.040677 0.416545 0.246636
H10   H     H_    0.984458 0.007797 0.317391 0.202006
H11   H     H_    0.069307 0.095331 0.236842 0.248004
O10   O     O_3   0.937843 0.717785 0.586811 -0.578844
C29   C     C_3   0.002952 0.803962 0.614172 0.064100
H12   H     H_    0.039022 0.825863 0.517260 0.137529
H13   H     H_    0.046798 0.769153 0.697481 0.137212
C30   C     C_3   0.964340 0.922139 0.664896 -0.799709
H14   H     H_    0.929908 0.904103 0.764114 0.247184
H15   H     H_    0.014818 0.991868 0.684044 0.202809
H16   H     H_    0.919637 0.958856 0.584411 0.246864
N3    N     N_2   0.586379 0.135289 0.284936 -0.408379
H17   H     H_    0.580512 0.104452 0.183749 0.249759
C31   C     C_3   0.672614 0.165712 0.323602 -0.679715
H18   H     H_    0.710283 0.080644 0.334822 0.209175
H19   H     H_    0.674992 0.216220 0.423905 0.217120
H20   H     H_    0.700992 0.225655 0.240765 0.224329
N4    N     N_2   0.424736 0.865555 0.723679 -0.402197
H21   H     H_    0.437119 0.893860 0.824471 0.250843
C32   C     C_3   0.336303 0.839728 0.696861 -0.682836
H22   H     H_    0.300257 0.926604 0.692581 0.208836
H23   H     H_    0.310942 0.779827 0.782418 0.223779
H24   H     H_    0.327731 0.790869 0.596163 0.219824
N5    N     N_2   0.557746 0.878289 0.258591 -0.404811
H25   H     H_    0.616466 0.904821 0.222840 0.247687
C33   C     C_3   0.494094 0.873207 0.148230 -0.688579
H26   H     H_    0.437006 0.822802 0.185521 0.250974
H27   H     H_    0.475612 0.967062 0.113509 0.201903
H28   H     H_    0.519224 0.824632 0.056748 0.204058
N6    N     N_2   0.455699 0.121315 0.748791 -0.404081
H29   H     H_    0.399991 0.093242 0.794732 0.244799
C34   C     C_3   0.525889 0.129749 0.847261 -0.677679
H30   H     H_    0.508001 0.185676 0.937807 0.221143
H31   H     H_    0.544223 0.036959 0.886059 0.198627
H32   H     H_    0.581342 0.174870 0.796851 0.244905
N7    N     N_2   0.375606 0.368534 0.146469 -0.369448
H33   H     H_    0.317067 0.405359 0.125722 0.236604
C35   C     C_3   0.374724 0.236334 0.133059 -0.706262
H34   H     H_    0.437298 0.198449 0.161032 0.249121
H35   H     H_    0.357077 0.210230 0.024344 0.197389
H36   H     H_    0.327641 0.195252 0.205993 0.235469
N8    N     N_2   0.617925 0.643318 0.852795 -0.377489
H37   H     H_    0.607521 0.735790 0.865405 0.228305
C36   C     C_3   0.705494 0.611974 0.876328 -0.677330
H38   H     H_    0.745517 0.665323 0.801569 0.245905
H39   H     H_    0.715132 0.512472 0.858598 0.239688
H40   H     H_    0.725796 0.634750 0.984903 0.195679

loop_
_geom_bond_atom_site_label_1
_geom_bond_atom_site_label_2
_ccdc_geom_bond_type
C35   H34   S    
C31   H19   S    
C36   H38   S    
C5    C26   A    
C7    N2    A    
C34   H30   S    
O9    C27   S    
C27   C28   S    
C17   C23   T    
C18   C24   T    
C26   N4    S    
C14   C21   S    
C13   H1    S    
C19   C21   S    
N7    H33   S    
C30   H15   S    
C6    C25   A    
N3    C31   S    
N5    H25   S    
C32   H23   S    
C2    O2    A    
C16   O10   S    
C12   O6    A    
C27   H7    S    
Cu1   O8    S    
C28   H10   S    
C11   O7    A    
C1    O1    A    
C31   H20   S    
C36   H39   S    
C9    H5    S    
N5    C33   S    
N3    H17   S    
C14   H2    S    
C19   H4    S    
C34   H31   S    
C27   H8    S    
N7    C35   S    
C15   C20   S    
C29   H13   S    
C13   C19   S    
N4    H21   S    
C14   C20   S    
C3    C25   A    
C4    N6    S    
C4    C6    A    
N8    H37   S    
N6    C34   S    
C30   H16   S    
Cu2   O3    S    
Cu1   N1    S    
O10   C29   S    
N6    H29   S    
N4    C32   S    
C8    N1    A    
C32   H24   S    
C33   H26   S    
N8    C36   S    
Cu1   O5    S    
Cu2   O2    S    
Cu1   O4    S    
C28   H11   S    
C10   H6    S    
C8    N8    S    
C25   N3    S    
C33   H27   S    
C20   C22   S    
C36   H40   S    
C13   C15   S    
C14   C16   S    
C2    C5    S    
C15   O9    S    
Cu1   Cu2   S    
C34   H32   S    
C7    C9    A    
C29   H12   S    
C11   C17   S    
C16   C22   S    
C3    C5    A    
C4    C26   A    
Cu2   O7    S    
C21   C23   S    
C12   O8    A    
C30   H14   S    
C7    N7    S    
Cu1   O1    S    
C16   C19   S    
Cu2   O6    S    
C13   C22   S    
C11   O5    A    
C22   C24   S    
C32   H22   S    
C3    N5    S    
C33   H28   S    
C1    O3    A    
C31   H18   S    
C2    O4    A    
C15   C21   S    
Cu2   N2    S    
C8    C10   A    
C28   H9    S    
C35   H36   S    
C12   C18   S    
C1    C6    S    
C9    N1    A    
C35   H35   S    
C10   N2    A    
C20   H3    S    
C29   C30   S    
