data_mof_unit_3757.cif
_audit_creation_date              2012-12-11T15:32:41-0500
_audit_creation_method            fapswitch 2.2
_symmetry_space_group_name_H-M    P1
_symmetry_Int_Tables_number       1
_space_group_crystal_system       triclinic
_cell_length_a                    6.981212
_cell_length_b                    20.295312
_cell_length_c                    24.4895
_cell_angle_alpha                 89.764153
_cell_angle_beta                  91.34503
_cell_angle_gamma                 88.857953
_cell_volume                      3468.13466604

loop_
_atom_site_label
_atom_site_type_symbol
_atom_type_description
_atom_site_fract_x
_atom_site_fract_y
_atom_site_fract_z
_atom_type_partial_charge
O1    O     O_R   0.507320 0.423560 0.460500 -0.533485
O2    O     O_R   0.170760 0.556250 0.437010 -0.541573
O3    O     O_R   0.004030 0.576440 0.539500 -0.536453
C1    C     C_R   0.336744 0.576890 0.421331 0.717307
O4    O     O_R   0.177370 0.422820 0.454110 -0.536922
O5    O     O_R   0.010680 0.442050 0.556720 -0.535549
C2    C     C_R   0.346535 0.398881 0.443225 0.703103
O6    O     O_R   0.500680 0.557950 0.443280 -0.534000
O7    O     O_3   0.340380 0.506470 0.533650 -0.364536
V1    V     V_3+5 0.064130 0.498800 0.493760 1.427800
O8    O     O_R   0.681160 0.443750 0.562990 -0.531051
C3    C     C_R   0.852460 0.423721 0.578699 0.721012
O9    O     O_R   0.674560 0.577180 0.545890 -0.536949
C4    C     C_R   0.843110 0.600643 0.557277 0.699887
V2    V     V_3+5 0.564560 0.501200 0.506240 1.445723
O10   O     O_3   0.838180 0.493530 0.466350 -0.369138
C5    C     C_R   0.976715 0.836678 0.911065 -0.141765
C6    C     C_R   0.850675 0.660790 0.590978 -0.070876
C7    C     C_R   0.048051 0.719729 0.904217 -0.167417
C8    C     C_R   0.047732 0.777531 0.934444 0.369740
C9    C     C_R   0.918751 0.837154 0.855436 -0.268917
C10   C     C_R   0.911082 0.778138 0.824165 0.091543
C11   C     C_R   0.982213 0.719459 0.849821 0.051015
C12   C     C_R   0.844683 0.775325 0.767801 0.004166
C13   C     C_R   0.878996 0.716144 0.737630 0.024963
C14   C     C_R   0.951427 0.659651 0.765294 -0.152641
C15   C     C_R   0.996505 0.660992 0.820553 -0.159890
C16   C     C_R   0.731819 0.826055 0.740735 0.062812
C17   C     C_R   0.736992 0.830357 0.682252 0.022028
C18   C     C_R   0.823455 0.777319 0.652809 0.037498
C19   C     C_R   0.849815 0.716032 0.679984 0.046027
C20   C     C_R   0.869305 0.780120 0.596337 0.092521
C21   C     C_R   0.868858 0.721774 0.565805 -0.185452
C22   C     C_R   0.851472 0.657537 0.648131 -0.200330
H1    H     H_    0.053018 0.616346 0.839970 0.143339
H2    H     H_    0.847261 0.609230 0.666656 0.109497
H3    H     H_    0.887744 0.723550 0.522338 0.106405
H4    H     H_    0.106361 0.674923 0.922960 0.165604
H5    H     H_    0.895426 0.884515 0.836632 0.117071
H6    H     H_    0.982174 0.613950 0.744649 0.135812
C23   C     C_3   0.845961 0.307082 0.767372 0.370995
C24   C     C_3   0.031124 0.271721 0.788179 0.077075
H7    H     H_    0.232881 0.263341 0.711729 0.187786
C25   C     C_1   0.955059 0.120905 0.875043 -0.190362
C26   C     C_1   0.868960 0.378113 0.624291 -0.151818
C27   C     C_3   0.736102 0.241696 0.770489 -0.236503
C28   C     C_3   0.923154 0.206412 0.790705 0.024244
C29   C     C_3   0.793687 0.226872 0.711085 0.402155
C30   C     C_3   0.901227 0.292060 0.708214 0.007336
C31   C     C_3   0.979220 0.190646 0.731452 -0.156943
C32   C     C_3   0.088369 0.256764 0.728685 -0.246313
C33   C     C_1   0.939840 0.159061 0.836838 -0.009083
C34   C     C_1   0.884079 0.339482 0.662164 0.097374
H8    H     H_    0.032021 0.142154 0.716549 0.151429
H9    H     H_    0.591424 0.235451 0.787415 0.148991
C35   C     C_3   0.528495 0.721638 0.217665 0.322348
C36   C     C_3   0.325994 0.698917 0.232947 0.069997
C37   C     C_1   0.340142 0.624082 0.376236 -0.201217
C38   C     C_1   0.483317 0.878876 0.125904 -0.157098
C39   C     C_3   0.576078 0.735667 0.278627 -0.018178
C40   C     C_3   0.374320 0.712668 0.293846 -0.002722
C41   C     C_3   0.497394 0.807189 0.271298 0.368346
C42   C     C_3   0.450979 0.793471 0.210724 -0.011516
C43   C     C_3   0.295722 0.784662 0.287594 -0.234261
C44   C     C_3   0.249503 0.770884 0.226413 -0.001123
C45   C     C_1   0.349444 0.664144 0.339142 -0.028492
C46   C     C_1   0.476429 0.840608 0.164402 0.100307
H10   H     H_    0.199880 0.811579 0.315705 0.170498
C47   C     C_R   0.472688 0.162273 0.089322 -0.133244
C48   C     C_R   0.356376 0.337255 0.411358 -0.081883
C49   C     C_R   0.525018 0.279668 0.094347 0.400114
C50   C     C_R   0.520621 0.221380 0.064489 -0.197949
C51   C     C_R   0.435912 0.161196 0.145496 -0.144857
C52   C     C_R   0.461825 0.218010 0.178584 0.059709
C53   C     C_R   0.493005 0.278690 0.151226 0.043788
C54   C     C_R   0.450076 0.217359 0.237375 -0.012914
C55   C     C_R   0.433398 0.278682 0.266238 0.029895
C56   C     C_R   0.452978 0.337657 0.236297 -0.175733
C57   C     C_R   0.488605 0.337380 0.180834 -0.130033
C58   C     C_R   0.465292 0.158635 0.269078 0.371320
C59   C     C_R   0.426670 0.159497 0.324551 -0.213188
C60   C     C_R   0.391089 0.218302 0.352924 0.020458
C61   C     C_R   0.403223 0.279242 0.324291 0.072052
C62   C     C_R   0.353059 0.217115 0.410062 0.115769
C63   C     C_R   0.336554 0.277284 0.438124 -0.154784
C64   C     C_R   0.386769 0.338425 0.355059 -0.193039
H11   H     H_    0.507651 0.384501 0.161064 0.186230
H12   H     H_    0.397336 0.386559 0.336930 0.094703
H13   H     H_    0.311305 0.278644 0.481480 0.105619
H14   H     H_    0.435703 0.112760 0.345865 0.177349
H15   H     H_    0.551034 0.222391 0.021289 0.145488
H16   H     H_    0.382569 0.116045 0.162022 0.179537
H17   H     H_    0.446601 0.385669 0.254646 0.121574
O11   O     O_R   0.323550 0.942140 0.056770 -0.528295
O12   O     O_R   0.647080 0.077200 0.045890 -0.529216
O13   O     O_R   0.813610 0.057920 0.943260 -0.538626
C65   C     C_R   0.478179 0.101084 0.056900 0.736769
O14   O     O_R   0.653470 0.943760 0.063000 -0.540590
O15   O     O_R   0.820050 0.923540 0.960490 -0.540322
C66   C     C_R   0.487185 0.923932 0.079265 0.763352
O16   O     O_R   0.317110 0.076520 0.039540 -0.536428
O17   O     O_3   0.483830 0.993580 0.966380 -0.375871
V3    V     V_3+5 0.760140 0.001190 0.006240 1.456582
O18   O     O_R   0.149510 0.922740 0.954070 -0.528058
C67   C     C_R   0.981453 0.898743 0.943060 0.749178
O19   O     O_R   0.143120 0.056170 0.936970 -0.540805
C68   C     C_R   0.971758 0.075937 0.921073 0.711632
V4    V     V_3+5 0.259690 0.998700 0.993700 1.450921
O20   O     O_3   0.986130 0.006420 0.033620 -0.364446
C69   C     C_3   0.947413 0.841243 0.569448 -0.388932
C70   C     C_3   0.156092 0.830323 0.552204 -0.301216
C71   C     C_3   0.240192 0.893779 0.530257 -0.765822
H18   H     H_    0.155050 0.911944 0.494176 0.245817
H19   H     H_    0.240838 0.932348 0.562307 0.226655
H20   H     H_    0.390068 0.884199 0.517781 0.219687
H21   H     H_    0.244889 0.813063 0.587968 0.198437
H22   H     H_    0.164174 0.792185 0.519895 0.196670
H23   H     H_    0.855796 0.855003 0.533267 0.176234
H24   H     H_    0.948545 0.882978 0.598086 0.197298
C72   C     C_3   0.162102 0.294545 0.834981 -0.344926
C73   C     C_3   0.259827 0.359259 0.821635 -0.310354
C74   C     C_3   0.374382 0.383833 0.871084 -0.585684
H25   H     H_    0.278752 0.392049 0.906140 0.230905
H26   H     H_    0.488712 0.347362 0.883057 0.249288
H27   H     H_    0.441604 0.431310 0.860908 0.252454
H28   H     H_    0.356924 0.351551 0.786856 0.234668
H29   H     H_    0.151673 0.397723 0.809650 0.248245
H30   H     H_    0.074278 0.300777 0.871953 0.206556
H31   H     H_    0.272987 0.255582 0.843549 0.170272
Cl1   Cl    Cl    0.759451 0.385403 0.789416 -0.718010
Cl2   Cl    Cl    0.633930 0.197101 0.659518 -0.714040
C75   C     C_3   0.217268 0.636973 0.215545 -0.350838
C76   C     C_3   0.255903 0.615437 0.156795 -0.265726
C77   C     C_3   0.113712 0.563931 0.137360 -0.672405
H32   H     H_    0.119794 0.520424 0.165079 0.222807
H33   H     H_    0.965924 0.585023 0.136029 0.279406
H34   H     H_    0.150245 0.547542 0.095604 0.241409
H35   H     H_    0.248171 0.658223 0.128501 0.230934
H36   H     H_    0.401492 0.592777 0.155043 0.253341
H37   H     H_    0.260123 0.595598 0.243359 0.173507
H38   H     H_    0.061907 0.646987 0.220761 0.220245
Cl3   Cl    Cl    0.683553 0.680058 0.172425 -0.767288
C78   C     C_3   0.070460 0.800120 0.197580 -0.340885
C79   C     C_3   0.057408 0.783123 0.136587 -0.279468
C80   C     C_3   0.943196 0.836009 0.104628 -0.563196
H39   H     H_    0.849399 0.864570 0.131885 0.211203
H40   H     H_    0.041618 0.871205 0.085802 0.235084
H41   H     H_    0.853720 0.813286 0.071984 0.242621
H42   H     H_    0.200530 0.777416 0.118505 0.228549
H43   H     H_    0.988154 0.735065 0.131237 0.262022
H44   H     H_    0.939088 0.783882 0.217333 0.208425
H45   H     H_    0.076657 0.854447 0.202913 0.212462
Cl4   Cl    Cl    0.603495 0.882324 0.292662 -0.611567
C81   C     C_3   0.756439 0.714018 0.311805 -0.303933
C82   C     C_3   0.758733 0.743999 0.369359 -0.292602
C83   C     C_3   0.940993 0.725239 0.401307 -0.787908
H46   H     H_    0.943877 0.671854 0.411455 0.239135
H47   H     H_    0.067859 0.737799 0.377649 0.241604
H48   H     H_    0.948134 0.754599 0.439180 0.209697
H49   H     H_    0.751698 0.798401 0.366719 0.253584
H50   H     H_    0.633819 0.727596 0.392669 0.200375
H51   H     H_    0.760766 0.659369 0.314888 0.188664
H52   H     H_    0.886111 0.728987 0.290487 0.184837
Cl5   Cl    Cl    0.574852 0.352654 0.058398 -0.645040
Cl6   Cl    Cl    0.573089 0.084333 0.246428 -0.604789
C84   C     C_3   0.332223 0.151479 0.440177 -0.385452
C85   C     C_3   0.275466 0.155410 0.500443 -0.292192
C86   C     C_3   0.249164 0.086744 0.524549 -0.723003
H53   H     H_    0.131479 0.061156 0.502524 0.229076
H54   H     H_    0.383607 0.056917 0.521570 0.232289
H55   H     H_    0.212081 0.090966 0.568264 0.231956
H56   H     H_    0.389577 0.180172 0.524699 0.228203
H57   H     H_    0.138334 0.183725 0.503920 0.204379
H58   H     H_    0.220816 0.122809 0.418076 0.195841
H59   H     H_    0.470967 0.123775 0.438496 0.188315
C87   C     C_3   0.624297 0.884729 0.651052 -0.368075
C88   C     C_3   0.701699 0.954004 0.662781 -0.326375
C89   C     C_3   0.625130 0.004102 0.620655 -0.718183
H60   H     H_    0.669759 0.989815 0.579023 0.218109
H61   H     H_    0.466262 0.007320 0.621685 0.228758
H62   H     H_    0.683486 0.053332 0.630082 0.269692
H63   H     H_    0.658471 0.971024 0.703708 0.197132
H64   H     H_    0.860713 0.953582 0.662622 0.190529
H65   H     H_    0.621587 0.875760 0.606537 0.183437
H66   H     H_    0.469717 0.882902 0.660158 0.164887
Cl7   Cl    Cl    0.158472 0.774776 0.999506 -0.717632
C90   C     C_3   0.586787 0.868297 0.772350 -0.341414
C91   C     C_3   0.470580 0.829384 0.814132 -0.321447
C92   C     C_3   0.420223 0.872363 0.862783 -0.659390
H67   H     H_    0.549353 0.896428 0.879994 0.229558
H68   H     H_    0.312234 0.910793 0.850327 0.203894
H69   H     H_    0.362685 0.840989 0.895320 0.239391
H70   H     H_    0.336094 0.811878 0.794256 0.190906
H71   H     H_    0.546754 0.784710 0.829908 0.216627
H72   H     H_    0.476137 0.891562 0.745448 0.163735
H73   H     H_    0.657153 0.911639 0.790305 0.155033

loop_
_geom_bond_atom_site_label_1
_geom_bond_atom_site_label_2
_ccdc_geom_bond_type
C13   C19   A    
O15   V3    S    
C42   C44   S    
C90   H73   S    
C47   C50   A    
C23   C24   S    
C4    C6    S    
C36   C75   S    
C7    C11   A    
C7    C8    A    
C1    O6    A    
C14   H6    S    
C69   H23   S    
C77   H34   S    
C71   H19   S    
C59   C60   A    
C87   H66   S    
C55   C56   A    
C82   H50   S    
O11   V4    S    
C84   H59   S    
C17   C18   A    
C52   C54   A    
C43   H10   S    
C9    C10   A    
C16   C17   A    
C73   H29   S    
O5    C3    A    
C23   Cl1   S    
C44   C78   S    
C64   H12   S    
O19   C68   A    
C55   C61   A    
C56   H17   S    
O4    V1    S    
V2    O10   S    
C5    C8    A    
C35   C36   S    
C39   C41   S    
C51   C52   A    
C92   H68   S    
C69   C70   S    
O18   C67   A    
C83   H47   S    
C41   C43   S    
C38   C46   T    
O8    V2    S    
C40   C45   S    
C37   C45   T    
C86   H55   S    
C70   C71   S    
C75   C76   S    
C30   C32   S    
C27   H9    S    
C79   H43   S    
C23   C27   S    
C29   Cl2   S    
O17   V4    S    
C70   H21   S    
O1    V2    S    
C11   C15   A    
C18   C20   A    
O7    V1    S    
C24   C32   S    
C85   H57   S    
C35   Cl3   S    
C25   C33   T    
O16   V4    S    
C29   C31   S    
C26   C34   T    
C76   H35   S    
C57   H11   S    
C91   H71   S    
C38   C66   S    
C39   C81   S    
C84   C85   S    
O17   V3    S    
C2    C48   S    
C23   C30   S    
C71   H18   S    
C80   H40   S    
O12   V3    S    
C80   H39   S    
C28   C31   S    
C42   C46   S    
O15   C67   A    
C27   C29   S    
C84   H58   S    
C49   Cl5   S    
C72   H31   S    
C89   H62   S    
C54   C58   A    
C81   H52   S    
C62   C63   A    
C54   C55   A    
C52   C53   A    
C16   C90   S    
C85   C86   S    
O4    C2    A    
C50   H15   S    
C63   H13   S    
C56   C57   A    
C79   C80   S    
C77   H33   S    
C15   H1    S    
C13   C14   A    
C88   H64   S    
C5    C9    A    
C35   C39   S    
C91   C92   S    
C92   H69   S    
O2    C1    A    
C79   H42   S    
C7    H4    S    
C5    C67   S    
C9    H5    S    
O11   C66   A    
C65   O16   A    
C41   C42   S    
O12   C65   A    
C31   C32   S    
C14   C15   A    
C35   C42   S    
C31   H8    S    
C12   C13   A    
C47   C51   A    
C6    C22   A    
C81   C82   S    
C73   C74   S    
C77   H32   S    
O3    C4    A    
C20   C69   S    
C88   C89   S    
C59   H14   S    
C86   H53   S    
O13   C68   A    
C91   H70   S    
C76   H36   S    
O6    V2    S    
C60   C62   A    
O9    V2    S    
C76   C77   S    
C10   C12   A    
C17   C87   S    
C74   H26   S    
C48   C64   A    
C58   Cl6   S    
O18   V4    S    
C80   H41   S    
C19   C22   A    
C72   C73   S    
C88   H63   S    
C25   C68   S    
C75   H38   S    
C87   H65   S    
C27   C28   S    
C83   H46   S    
C78   H44   S    
C90   H72   S    
C82   H49   S    
O1    C2    A    
C81   H51   S    
C83   H48   S    
C12   C16   A    
C51   H16   S    
C36   C44   S    
C58   C59   A    
C69   H24   S    
O5    V1    S    
C89   H61   S    
O8    C3    A    
C72   H30   S    
C36   C40   S    
C85   H56   S    
C3    C26   S    
C75   H37   S    
O14   C66   A    
C41   Cl4   S    
V3    O20   S    
C70   H22   S    
C20   C21   A    
C74   H27   S    
C87   C88   S    
C78   C79   S    
O7    V2    S    
C73   H28   S    
O3    V1    S    
V1    O10   S    
C43   C44   S    
C40   C43   S    
C49   C53   A    
H7    C32   S    
C18   C19   A    
O19   V4    S    
C29   C30   S    
C86   H54   S    
C22   H2    S    
C24   C28   S    
C92   H67   S    
C6    C21   A    
C21   H3    S    
C30   C34   S    
C62   C84   S    
C1    C37   S    
C8    Cl7   S    
V4    O20   S    
C61   C64   A    
C49   C50   A    
C60   C61   A    
O13   V3    S    
C28   C33   S    
C82   C83   S    
C24   C72   S    
C10   C11   A    
C39   C40   S    
C90   C91   S    
C74   H25   S    
O9    C4    A    
C48   C63   A    
C53   C57   A    
C71   H20   S    
C78   H45   S    
O14   V3    S    
C47   C65   S    
C89   H60   S    
O2    V1    S    
