data_mof_unit_4893.cif
_audit_creation_date              2012-12-10T19:00:13-0500
_audit_creation_method            fapswitch 2.2
_symmetry_space_group_name_H-M    P1
_symmetry_Int_Tables_number       1
_space_group_crystal_system       triclinic
_cell_length_a                    9.60227
_cell_length_b                    10.907437
_cell_length_c                    13.55449
_cell_angle_alpha                 92.107245
_cell_angle_beta                  74.250548
_cell_angle_gamma                 91.34673
_cell_volume                      1365.28966911

loop_
_atom_site_label
_atom_site_type_symbol
_atom_type_description
_atom_site_fract_x
_atom_site_fract_y
_atom_site_fract_z
_atom_type_partial_charge
C1    C     C_R   0.500058 0.737147 0.503633 0.782159
C2    C     C_R   0.442374 0.559387 0.977130 0.089246
C3    C     C_R   0.487554 0.558243 0.868452 0.090187
C4    C     C_R   0.548464 0.546319 0.031751 0.058789
C5    C     C_R   0.696229 0.540643 0.976298 0.136174
C6    C     C_R   0.738402 0.562802 0.872299 -0.230666
C7    C     C_R   0.634600 0.577982 0.821174 -0.195612
C8    C     C_R   0.513262 0.535175 0.138540 -0.259709
C9    C     C_R   0.768002 0.517325 0.132036 0.239025
C10   C     C_R   0.383791 0.545001 0.810996 -0.104348
C11   C     C_R   0.372386 0.931727 0.514965 -0.002131
C12   C     C_R   0.424452 0.513696 0.698944 0.778776
C13   C     C_R   0.497472 0.869807 0.514575 -0.079476
C14   C     C_R   0.617726 0.939083 0.526130 -0.225107
C15   C     C_R   0.616001 0.067613 0.524936 -0.210733
C16   C     C_R   0.495701 0.128580 0.509392 -0.078553
C17   C     C_R   0.373269 0.057310 0.507966 0.040448
C18   C     C_3   0.270354 0.047928 0.441348 0.009801
C19   C     C_3   0.261166 0.909633 0.457554 0.060934
C20   C     C_R   0.955393 0.447547 0.420531 0.274677
C21   C     C_R   0.903008 0.573123 0.566386 -0.095545
C22   C     C_R   0.050059 0.569269 0.569496 -0.068310
C23   C     C_R   0.498527 0.262170 0.501221 0.814257
C24   C     C_R   0.103338 0.452960 0.417068 0.160087
C25   C     C_3   0.122980 0.326389 0.370042 -0.255169
C26   C     C_3   0.960507 0.319312 0.380375 -0.532323
C27   C     C_R   0.576913 0.505261 0.301075 0.845483
C28   C     C_R   0.802293 0.520552 0.025673 -0.264727
C29   C     C_R   0.620980 0.519337 0.189202 -0.072175
C30   C     C_R   0.238128 0.564780 0.862217 -0.193095
C31   C     C_R   0.197000 0.589516 0.967343 -0.162500
C32   C     C_R   0.294872 0.579344 0.025505 -0.179941
Cu1   Cu    Cu3+1 0.359330 0.500020 0.500010 0.968841
Cu2   Cu    Cu3+1 0.640670 0.499980 0.499990 0.945011
H1    H     H_    0.711244 0.118277 0.531924 0.158287
H2    H     H_    0.164138 0.089662 0.478349 0.084914
H3    H     H_    0.156598 0.878441 0.509780 0.110989
H4    H     H_    0.832871 0.638385 0.615171 0.115101
H5    H     H_    0.084947 0.624148 0.626743 0.127125
H6    H     H_    0.158571 0.265018 0.420248 0.170741
H7    H     H_    0.927356 0.311358 0.308053 0.248376
H8    H     H_    0.851738 0.572471 0.831024 0.134679
H9    H     H_    0.902796 0.254912 0.439933 0.185890
H10   H     H_    0.912590 0.509224 0.980556 0.133127
H11   H     H_    0.402308 0.537706 0.183693 0.174838
H12   H     H_    0.156317 0.565181 0.820744 0.145497
H13   H     H_    0.253328 0.593584 0.107153 0.131086
H14   H     H_    0.088518 0.616825 0.004296 0.144110
H15   H     H_    0.669364 0.614663 0.747002 0.163926
H16   H     H_    0.714610 0.894506 0.532064 0.156438
N1    N     N_R   0.852320 0.499070 0.499340 -0.180744
N2    N     N_R   0.148230 0.499110 0.499340 -0.186893
O1    O     O_R   0.381190 0.680360 0.500000 -0.560646
O2    O     O_R   0.618780 0.680320 0.499990 -0.608813
O3    O     O_R   0.323230 0.500000 0.650990 -0.588313
O4    O     O_R   0.560820 0.499960 0.650980 -0.585348
O5    O     O_R   0.381220 0.319680 0.500010 -0.564617
O6    O     O_R   0.618810 0.319640 0.500000 -0.586090
O7    O     O_R   0.439180 0.500040 0.349020 -0.557535
O8    O     O_R   0.676770 0.500000 0.349010 -0.558320
N3    N     N_2   0.882445 0.514651 0.180055 -0.405197
H17   H     H_    0.972071 0.468362 0.137132 0.284684
C33   C     C_3   0.920544 0.633532 0.217500 -0.669857
H18   H     H_    0.959887 0.697261 0.153685 0.201835
H19   H     H_    0.006871 0.621829 0.256244 0.216285
H20   H     H_    0.826331 0.676304 0.273312 0.243751
N4    N     N_2   0.330619 0.081771 0.334559 -0.391846
H21   H     H_    0.265891 0.060883 0.286639 0.260174
C34   C     C_3   0.485503 0.085966 0.285704 -0.549414
H22   H     H_    0.505717 0.073500 0.201325 0.210541
H23   H     H_    0.544025 0.013712 0.312888 0.196168
H24   H     H_    0.530695 0.176782 0.301255 0.238417
N5    N     N_2   0.309418 0.831071 0.365977 -0.370814
H25   H     H_    0.409329 0.847327 0.316143 0.262746
C35   C     C_3   0.198207 0.788499 0.319123 -0.678978
H26   H     H_    0.244441 0.720012 0.257153 0.208620
H27   H     H_    0.155354 0.865988 0.285959 0.215443
H28   H     H_    0.108482 0.743734 0.376772 0.223959
C36   C     C_2   0.216582 0.323797 0.260521 0.878648
O9    O     O_2   0.347283 0.315060 0.243893 -0.595450
O10   O     O_R   0.155712 0.327773 0.178034 -0.803287
H29   H     H_    0.231076 0.324253 0.109187 0.331994

loop_
_geom_bond_atom_site_label_1
_geom_bond_atom_site_label_2
_ccdc_geom_bond_type
C24   N2    A    
C23   O6    A    
C33   H19   S    
Cu1   O3    S    
C27   C29   S    
N5    H25   S    
C4    C8    A    
O10   H29   S    
Cu1   N2    S    
Cu2   O4    S    
C11   C19   S    
Cu2   N1    S    
C9    N3    S    
C8    C29   A    
C20   N1    A    
C3    C7    A    
C27   O8    A    
C25   H6    S    
C5    C6    A    
C15   C16   A    
C2    C32   A    
C18   C19   S    
N3    C33   S    
C1    O1    A    
C8    H11   S    
C19   H3    S    
C21   H4    S    
C20   C24   A    
C16   C17   A    
C9    C29   A    
C33   H20   S    
Cu1   O7    S    
C13   C14   A    
Cu2   O8    S    
N5    C35   S    
C34   H22   S    
C15   H1    S    
C26   H9    S    
Cu1   Cu2   S    
Cu1   O1    S    
C34   H23   S    
N4    H21   S    
C19   N5    S    
C24   C25   S    
C7    H15   S    
C36   O10   S    
C25   C26   S    
C28   H10   S    
C33   H18   S    
N4    C34   S    
C34   H24   S    
C2    C4    A    
C35   H26   S    
C5    C28   A    
C10   C30   A    
C31   C32   A    
C30   C31   A    
C17   C18   S    
C35   H27   S    
C12   O4    A    
C10   C12   S    
C1    O2    A    
Cu2   O2    S    
C16   C23   S    
C31   H14   S    
C32   H13   S    
C1    C13   S    
C21   N1    A    
C22   N2    A    
C23   O5    A    
C11   C17   A    
Cu1   O5    S    
C25   C36   S    
C30   H12   S    
C4    C5    A    
C6    C7    A    
C2    C3    A    
C18   N4    S    
C3    C10   A    
C27   O7    A    
C11   C13   A    
C14   H16   S    
C20   C26   S    
C22   H5    S    
N3    H17   S    
C35   H28   S    
C12   O3    A    
C36   O9    D    
C9    C28   A    
C6    H8    S    
Cu2   O6    S    
C14   C15   A    
C21   C22   A    
C18   H2    S    
C26   H7    S    
