data_mof_unit_3977.cif
_audit_creation_date              2012-12-10T18:09:54-0500
_audit_creation_method            fapswitch 2.2
_symmetry_space_group_name_H-M    P1
_symmetry_Int_Tables_number       1
_space_group_crystal_system       triclinic
_cell_length_a                    10.63057
_cell_length_b                    12.587398
_cell_length_c                    13.11421
_cell_angle_alpha                 81.85464
_cell_angle_beta                  90.491312
_cell_angle_gamma                 102.565222
_cell_volume                      1695.06983908

loop_
_atom_site_label
_atom_site_type_symbol
_atom_type_description
_atom_site_fract_x
_atom_site_fract_y
_atom_site_fract_z
_atom_type_partial_charge
C1    C     C_R   0.477660 0.437858 0.691669 0.863047
C2    C     C_R   0.466208 0.450259 0.973475 0.088758
C3    C     C_R   0.434101 0.470053 0.869342 0.058450
C4    C     C_R   0.741948 0.500637 0.500392 0.832993
C5    C     C_R   0.471607 0.534779 0.034681 0.091240
C6    C     C_R   0.424406 0.629755 0.997198 0.173487
C7    C     C_R   0.376707 0.641271 0.897988 -0.260158
C8    C     C_R   0.381096 0.562368 0.834843 -0.185174
C9    C     C_R   0.522102 0.526710 0.132916 -0.263992
C10   C     C_R   0.459764 0.693320 0.163135 -0.212010
C11   C     C_R   0.454542 0.396424 0.802420 -0.223435
C12   C     C_3   0.121315 0.500240 0.500322 0.186564
C13   C     C_R   0.322069 0.089100 0.345915 -0.314213
C14   C     C_R   0.654392 0.799613 0.628467 0.022167
C15   C     C_R   0.690545 0.905397 0.653320 -0.251604
C16   C     C_R   0.513731 0.561647 0.308609 0.859145
C17   C     C_R   0.634476 0.987662 0.602736 -0.219396
C18   C     C_R   0.540237 0.963733 0.527614 0.016849
C19   C     C_R   0.509323 0.855214 0.503318 0.242503
C20   C     C_R   0.476276 0.042699 0.475418 -0.015816
C21   C     C_R   0.385996 0.012456 0.398243 0.204840
C22   C     C_R   0.360382 0.906093 0.373955 -0.309839
C23   C     C_3   0.065817 0.480510 0.393442 -0.403739
C24   C     C_R   0.421281 0.828746 0.425901 -0.231184
C25   C     C_R   0.497037 0.150922 0.497051 -0.064871
C26   C     C_R   0.347568 0.194863 0.370632 0.004050
C27   C     C_R   0.258013 0.499671 0.500051 0.805862
C28   C     C_3   0.905047 0.409291 0.584437 -0.394654
C29   C     C_3   0.049378 0.408631 0.584230 -0.406118
C30   C     C_3   0.921641 0.481651 0.393498 -0.399541
C31   C     C_3   0.957909 0.613887 0.524249 -0.397094
C32   C     C_3   0.878806 0.501557 0.500690 0.177950
C33   C     C_3   0.497387 0.103195 0.817281 -0.843171
C34   C     C_3   0.100608 0.613336 0.523736 -0.381906
C35   C     C_R   0.421852 0.709903 0.061074 -0.204928
C36   C     C_R   0.506101 0.599235 0.199407 -0.055573
C37   C     C_R   0.468170 0.288829 0.844003 0.230395
C38   C     C_R   0.483559 0.265305 0.950548 -0.172130
C39   C     C_R   0.487342 0.345497 0.013500 -0.263328
H1    H     H_    0.848879 0.327525 0.569731 0.178319
H2    H     H_    0.493828 0.185014 0.986572 0.154960
H3    H     H_    0.874361 0.422617 0.661731 0.158493
H4    H     H_    0.339058 0.572847 0.759637 0.165367
H5    H     H_    0.299675 0.255750 0.330863 0.133641
H6    H     H_    0.292446 0.882286 0.314767 0.148122
H7    H     H_    0.253372 0.067430 0.286681 0.142086
H8    H     H_    0.562389 0.181318 0.554737 0.141126
H9    H     H_    0.697972 0.735231 0.666998 0.136622
H10   H     H_    0.667345 0.068737 0.623599 0.143048
H11   H     H_    0.762139 0.923734 0.711196 0.148953
H12   H     H_    0.151290 0.680929 0.464353 0.178694
H13   H     H_    0.397939 0.748786 0.403395 0.210539
H14   H     H_    0.089238 0.421964 0.661335 0.152119
H15   H     H_    0.062252 0.326665 0.569439 0.180422
H16   H     H_    0.865605 0.401708 0.374273 0.182099
H17   H     H_    0.078747 0.399918 0.374769 0.178008
H18   H     H_    0.940360 0.681819 0.465411 0.180436
H19   H     H_    0.928883 0.630144 0.601001 0.172833
H20   H     H_    0.140508 0.630154 0.600112 0.176281
H21   H     H_    0.377761 0.194231 0.736121 0.241221
H22   H     H_    0.494440 0.053330 0.753753 0.249042
H23   H     H_    0.903285 0.547485 0.332773 0.155304
H24   H     H_    0.428541 0.054598 0.878676 0.233366
H25   H     H_    0.597117 0.119844 0.846508 0.251164
H26   H     H_    0.117773 0.545618 0.332522 0.154897
H27   H     H_    0.447083 0.750646 0.214363 0.150586
H28   H     H_    0.336381 0.711430 0.869002 0.146531
H29   H     H_    0.384694 0.782205 0.033704 0.133482
H30   H     H_    0.569433 0.461191 0.161690 0.148521
H31   H     H_    0.498993 0.320556 0.094547 0.149821
N1    N     N_R   0.433240 0.222190 0.444680 -0.102570
N2    N     N_R   0.566070 0.776970 0.554790 -0.131047
N3    N     N_2   0.460283 0.205356 0.778884 -0.286836
O1    O     O_R   0.468120 0.366740 0.627160 -0.604039
O2    O     O_R   0.510770 0.544830 0.662520 -0.611648
O3    O     O_R   0.663880 0.410950 0.482330 -0.622960
O4    O     O_R   0.706530 0.589040 0.517700 -0.626139
O5    O     O_R   0.489230 0.455170 0.337480 -0.612567
O6    O     O_R   0.531880 0.633260 0.372840 -0.631273
O7    O     O_R   0.293470 0.410960 0.482300 -0.623405
O8    O     O_R   0.336120 0.589050 0.517670 -0.651909
Zn1   Zn    Zn3+2 0.471520 0.381090 0.476390 0.928362
Zn2   Zn    Zn3+2 0.528480 0.618910 0.523610 0.915502

loop_
_geom_bond_atom_site_label_1
_geom_bond_atom_site_label_2
_ccdc_geom_bond_type
C24   H13   S    
O6    Zn2   S    
C12   C29   S    
C1    C11   S    
C8    H4    S    
C26   H5    S    
C7    C8    A    
C12   C23   S    
C34   H12   S    
C1    O1    A    
C31   H19   S    
C28   C29   S    
C9    H30   S    
C5    C6    A    
C20   C25   A    
C28   H1    S    
H21   N3    S    
C6    C35   A    
C18   C19   A    
C15   H11   S    
C11   C37   A    
C2    C39   A    
C9    C36   A    
C10   C35   A    
C25   N1    A    
C25   H8    S    
C18   C20   A    
N1    Zn1   S    
C21   C22   A    
C26   N1    A    
C19   N2    A    
O1    Zn1   S    
O8    Zn2   S    
C10   H27   S    
C23   H26   S    
C12   C27   S    
C1    O2    A    
C23   C30   S    
C27   O8    A    
C38   H2    S    
O7    Zn1   S    
C27   O7    A    
O3    Zn1   S    
C14   H9    S    
C5    C9    A    
C37   C38   A    
O5    Zn1   S    
C31   C32   S    
C28   C32   S    
C33   H24   S    
C17   C18   A    
C31   C34   S    
C13   C21   A    
C23   H17   S    
C4    C32   S    
C33   N3    S    
C3    C8    A    
C30   H23   S    
C34   H20   S    
C22   C24   A    
C13   C26   A    
C2    C5    A    
C17   H10   S    
C13   H7    S    
C15   C17   A    
C37   N3    S    
C14   N2    A    
C6    C7    A    
C30   H16   S    
C16   O6    A    
C31   H18   S    
C19   C24   A    
C4    O4    A    
C16   C36   S    
C30   C32   S    
O2    Zn2   S    
C38   C39   A    
C29   H14   S    
C35   H29   S    
C33   H25   S    
C28   H3    S    
C39   H31   S    
C2    C3    A    
C16   O5    A    
C4    O3    A    
N2    Zn2   S    
C3    C11   A    
C7    H28   S    
C22   H6    S    
C20   C21   A    
C33   H22   S    
C29   H15   S    
O4    Zn2   S    
C14   C15   A    
C10   C36   A    
C12   C34   S    
