data_mof_unit_78.cif
_audit_creation_date              2012-12-10T17:32:36-0500
_audit_creation_method            fapswitch 2.2
_symmetry_space_group_name_H-M    P1
_symmetry_Int_Tables_number       1
_space_group_crystal_system       triclinic
_cell_length_a                    12.058689
_cell_length_b                    12.772814
_cell_length_c                    14.13457
_cell_angle_alpha                 90.48841
_cell_angle_beta                  87.284898
_cell_angle_gamma                 94.962465
_cell_volume                      2166.43771644

loop_
_atom_site_label
_atom_site_type_symbol
_atom_type_description
_atom_site_fract_x
_atom_site_fract_y
_atom_site_fract_z
_atom_type_partial_charge
C1    C     C_R   0.523571 0.700326 0.497732 1.016738
C2    C     C_R   0.140363 0.480552 0.446555 0.572482
C3    C     C_R   0.976547 0.521739 0.543601 -0.237135
C4    C     C_R   0.022666 0.474207 0.461667 -0.281597
C5    C     C_R   0.500751 0.500162 0.670629 0.917925
C6    C     C_R   0.499485 0.500398 0.329367 0.891924
C7    C     C_1   0.502252 0.500843 0.772053 -0.151196
C8    C     C_1   0.499184 0.501791 0.227915 -0.177644
C9    C     C_1   0.502478 0.501566 0.857344 0.008107
C10   C     C_1   0.500113 0.502542 0.142580 -0.009799
C11   C     C_1   0.501941 0.502316 0.957294 0.020991
C12   C     C_R   0.476441 0.299910 0.502053 0.955715
C13   C     C_1   0.501158 0.502665 0.042628 0.020765
C14   C     C_R   0.459352 0.188260 0.509049 -0.330395
C15   C     C_R   0.541432 0.812490 0.493835 -0.330412
C16   C     C_R   0.603260 0.967100 0.403645 0.405423
C17   C     C_R   0.423868 0.040319 0.614667 0.390700
C18   C     C_R   0.606620 0.859808 0.418831 0.323259
C19   C     C_R   0.410127 0.145111 0.593088 0.284850
C20   C     C_R   0.482209 0.870250 0.559827 0.385683
C21   C     C_R   0.514156 0.128353 0.441390 0.376518
C22   C     C_3   0.243290 0.200705 0.643046 0.095115
C23   C     C_R   0.480150 0.978719 0.547300 -0.173822
C24   C     C_3   0.187771 0.280754 0.705214 -0.773219
C25   C     C_3   0.776528 0.818605 0.354178 0.174871
C26   C     C_3   0.831748 0.721074 0.321236 -0.849790
C27   C     C_3   0.184192 0.521845 0.292214 0.170154
C28   C     C_3   0.204076 0.472136 0.195293 -0.771617
C29   C     C_3   0.819264 0.688872 0.608066 0.127870
C30   C     C_3   0.741911 0.742608 0.677562 -0.747600
C31   C     C_3   0.990070 0.256348 0.353438 0.148753
C32   C     C_3   0.042593 0.192485 0.274723 -0.796762
C33   C     C_3   0.072380 0.658403 0.756117 0.088470
C34   C     C_R   0.533788 0.025573 0.463931 -0.177146
C35   C     C_3   0.004060 0.710299 0.833523 -0.783287
C36   C     C_R   0.949941 0.420107 0.398151 0.416096
C37   C     C_R   0.048344 0.560518 0.615315 0.429603
C38   C     C_R   0.835130 0.426335 0.410433 -0.210760
C39   C     C_R   0.164743 0.556901 0.598476 -0.266385
C40   C     C_R   0.858833 0.528129 0.550766 0.588577
H1    H     H_    0.222457 0.581815 0.651792 0.170556
H2    H     H_    0.805765 0.841026 0.425848 0.076681
H3    H     H_    0.804943 0.882938 0.304072 0.193087
H4    H     H_    0.810530 0.701324 0.247214 0.269049
H5    H     H_    0.923660 0.735387 0.324397 0.187229
H6    H     H_    0.802456 0.653515 0.367295 0.264714
H7    H     H_    0.708772 0.075450 0.353168 0.347127
H8    H     H_    0.360923 0.053458 0.744631 0.366372
H9    H     H_    0.249830 0.587025 0.302513 0.137507
H10   H     H_    0.102309 0.556337 0.292105 0.120935
H11   H     H_    0.130557 0.418618 0.177262 0.276554
H12   H     H_    0.779659 0.387603 0.360555 0.194041
H13   H     H_    0.218059 0.534271 0.140499 0.197260
H14   H     H_    0.277788 0.425941 0.195164 0.253921
H15   H     H_    0.797206 0.706959 0.535156 0.128041
H16   H     H_    0.905842 0.723274 0.617303 0.141113
H17   H     H_    0.750292 0.828697 0.665018 0.190871
H18   H     H_    0.654053 0.712256 0.668548 0.259273
H19   H     H_    0.763037 0.727236 0.751418 0.256329
H20   H     H_    0.903446 0.221140 0.369245 0.121821
H21   H     H_    0.039899 0.251046 0.417475 0.134317
H22   H     H_    0.129991 0.224578 0.258751 0.269309
H23   H     H_    0.506032 0.230201 0.339413 0.320109
H24   H     H_    0.042351 0.109351 0.297168 0.193648
H25   H     H_    0.994649 0.195514 0.209764 0.259189
H26   H     H_    0.116080 0.721943 0.711157 0.126720
H27   H     H_    0.133741 0.613330 0.791126 0.153557
H28   H     H_    0.953497 0.649668 0.876623 0.268860
H29   H     H_    0.060519 0.757645 0.880418 0.209590
H30   H     H_    0.948120 0.763279 0.801582 0.240477
H31   H     H_    0.342762 0.833931 0.627591 0.354612
H32   H     H_    0.204836 0.120807 0.662060 0.132935
H33   H     H_    0.226538 0.217029 0.567898 0.152385
H34   H     H_    0.225041 0.361226 0.687958 0.270551
H35   H     H_    0.097211 0.276202 0.692856 0.201613
H36   H     H_    0.199338 0.264667 0.781043 0.251825
N1    N     N_R   0.207800 0.519340 0.515940 -0.150518
N2    N     N_R   0.792200 0.480660 0.484060 -0.171474
O1    O     O_R   0.421690 0.658830 0.504250 -0.603275
O2    O     O_3   0.421058 0.816868 0.632103 -0.712450
O3    O     O_3   0.358724 0.208980 0.658233 -0.607964
O4    O     O_3   0.659452 0.797417 0.352856 -0.572980
O5    O     O_3   0.666454 0.011804 0.328417 -0.707433
O6    O     O_3   0.389743 0.998724 0.702536 -0.737256
O7    O     O_3   0.188204 0.444626 0.363106 -0.568998
O8    O     O_3   0.809020 0.579568 0.625760 -0.537042
O9    O     O_3   0.989598 0.361446 0.323409 -0.582515
O10   O     O_3   0.001039 0.589366 0.702951 -0.566672
O11   O     O_R   0.578310 0.341170 0.495750 -0.604642
O12   O     O_R   0.609320 0.646410 0.494030 -0.608472
O13   O     O_R   0.390680 0.353590 0.505970 -0.585299
O14   O     O_R   0.406170 0.506210 0.631400 -0.612653
O15   O     O_R   0.593830 0.493790 0.368600 -0.602062
O16   O     O_R   0.593790 0.493790 0.621170 -0.549885
O17   O     O_R   0.406210 0.506210 0.378830 -0.580793
O18   O     O_3   0.547326 0.168596 0.352742 -0.722860
Zn1   Zn    Zn3+2 0.374720 0.508290 0.506830 0.969033
Zn2   Zn    Zn3+2 0.625280 0.491710 0.493170 0.982006

loop_
_geom_bond_atom_site_label_1
_geom_bond_atom_site_label_2
_ccdc_geom_bond_type
C15   C18   A    
C4    C36   A    
C1    O12   A    
C31   H21   S    
C37   O10   S    
C25   H3    S    
C5    O16   A    
C26   H4    S    
C39   H1    S    
C17   C23   A    
C39   N1    A    
C14   C21   A    
C33   O10   S    
C33   C35   S    
C28   H11   S    
C38   H12   S    
O16   Zn2   S    
C30   H17   S    
O14   Zn1   S    
C2    O7    S    
C40   O8    S    
C27   O7    S    
C12   O13   A    
C26   H5    S    
C18   O4    S    
C35   H30   S    
N2    Zn2   S    
N1    Zn1   S    
C1    C15   S    
H7    O5    S    
C27   H10   S    
C16   C34   A    
C6    O15   A    
C22   H32   S    
H31   O2    S    
C33   H26   S    
C36   O9    S    
C15   C20   A    
C31   O9    S    
C20   O2    S    
C22   O3    S    
C12   O11   A    
C32   H24   S    
C5    C7    S    
C28   H14   S    
C24   H36   S    
C6    C8    S    
C21   C34   A    
C29   H15   S    
C25   C26   S    
H23   O18   S    
C16   O5    S    
H8    O6    S    
C31   H20   S    
C2    C4    A    
C29   C30   S    
C31   C32   S    
C20   C23   A    
C23   C34   A    
C30   H19   S    
O13   Zn1   S    
C9    C11   S    
C3    C37   A    
C29   O8    S    
C16   C18   A    
C29   H16   S    
C12   C14   S    
C3    C40   A    
C25   O4    S    
C1    O1    A    
C40   N2    A    
C3    C4    A    
C33   H27   S    
C7    C9    T    
C14   C19   A    
O1    Zn1   S    
C10   C13   S    
C25   H2    S    
C28   H13   S    
O17   Zn1   S    
C24   H35   S    
C21   O18   S    
C38   N2    A    
O11   Zn2   S    
C17   O6    S    
C36   C38   A    
C32   H22   S    
C37   C39   A    
C2    N1    A    
C11   C13   T    
C24   H34   S    
C35   H28   S    
C30   H18   S    
C17   C19   A    
C22   C24   S    
C5    O14   A    
C26   H6    S    
C35   H29   S    
C8    C10   T    
C6    O17   A    
C27   C28   S    
C22   H33   S    
C19   O3    S    
O15   Zn2   S    
O12   Zn2   S    
C27   H9    S    
C32   H25   S    
