data_mof_unit_2120.cif
_audit_creation_date              2012-12-11T14:21:23-0500
_audit_creation_method            fapswitch 2.2
_symmetry_space_group_name_H-M    P1
_symmetry_Int_Tables_number       1
_space_group_crystal_system       triclinic
_cell_length_a                    11.890749
_cell_length_b                    11.749423
_cell_length_c                    19.438929
_cell_angle_alpha                 90.609018
_cell_angle_beta                  90.681432
_cell_angle_gamma                 59.019483
_cell_volume                      2328.17521346

loop_
_atom_site_label
_atom_site_type_symbol
_atom_type_description
_atom_site_fract_x
_atom_site_fract_y
_atom_site_fract_z
_atom_type_partial_charge
C1    C     C_R   0.640307 0.117161 0.598877 0.575879
C2    C     C_1   0.653261 0.149434 0.668276 0.013625
C3    C     C_R   0.671555 0.670053 0.192227 0.031095
C4    C     C_R   0.612114 0.747257 0.598261 0.542554
C5    C     C_R   0.546886 0.756170 0.217899 -0.050722
C6    C     C_R   0.521818 0.735957 0.285340 0.022017
C7    C     C_R   0.759620 0.625003 0.307479 -0.104551
C8    C     C_R   0.778451 0.602311 0.237615 -0.093631
C9    C     C_R   0.444138 0.836248 0.173612 -0.126594
C10   C     C_R   0.320695 0.860246 0.186739 -0.204499
C11   C     C_R   0.300714 0.796206 0.241525 -0.042374
C12   C     C_1   0.641832 0.704380 0.667727 0.014814
C13   C     C_R   0.399692 0.737517 0.295378 0.259016
C14   C     C_R   0.631913 0.691485 0.332381 0.074192
C15   C     C_R   0.152496 0.182528 0.188961 -0.015994
C16   C     C_R   0.243012 0.145148 0.598093 0.554477
C17   C     C_R   0.266173 0.185932 0.201432 -0.010036
C18   C     C_R   0.301377 0.185863 0.271236 -0.013352
C19   C     C_R   0.158261 0.108225 0.305432 -0.141866
C20   C     C_R   0.095839 0.147937 0.242144 -0.050935
C21   C     C_R   0.321970 0.225488 0.149431 0.063326
C22   C     C_R   0.364668 0.310698 0.168795 -0.078153
C23   C     C_1   0.125946 0.198153 0.859605 0.011568
C24   C     C_R   0.370917 0.335415 0.238074 -0.122402
C25   C     C_R   0.355159 0.263209 0.288437 -0.151732
C26   C     C_R   0.258737 0.130854 0.321937 -0.007983
C27   C     C_R   0.669081 0.181538 0.192400 -0.008317
C28   C     C_R   0.629300 0.084576 0.394196 0.506167
C29   C     C_R   0.707682 0.047726 0.206839 -0.029204
C30   C     C_R   0.734407 0.006190 0.277048 -0.029288
C31   C     C_R   0.658054 0.230621 0.316227 0.034575
C32   C     C_R   0.645645 0.271645 0.247527 0.028118
C33   C     C_R   0.740770 0.949033 0.154218 0.248807
C34   C     C_1   0.172568 0.170776 0.727670 -0.022366
C35   C     C_R   0.828116 0.817480 0.169810 -0.096138
C36   C     C_R   0.879808 0.780459 0.234943 -0.100424
C37   C     C_R   0.835667 0.869554 0.290150 0.236566
C38   C     C_R   0.671904 0.108024 0.328286 -0.029179
C39   C     C_R   0.080269 0.231386 0.928820 0.557747
C40   C     C_R   0.611654 0.743040 0.401820 0.524271
C41   C     C_R   0.683659 0.602736 0.929785 0.534398
C42   C     C_R   0.708725 0.206856 0.930393 0.608391
C43   C     C_R   0.079169 0.236441 0.125580 0.588208
C44   C     C_R   0.684459 0.611308 0.124782 0.575110
C45   C     C_1   0.150243 0.181967 0.799121 -0.022742
C46   C     C_R   0.708948 0.211182 0.126901 0.662009
C47   C     C_R   0.301112 0.114936 0.394109 0.507046
C48   C     C_1   0.668289 0.646195 0.860486 0.028251
C49   C     C_1   0.654638 0.683950 0.728422 -0.024025
C50   C     C_1   0.661794 0.666901 0.799898 -0.020005
C51   C     C_2   0.696869 0.291761 0.372860 0.701759
C52   C     C_2   0.598150 0.412151 0.233826 0.609713
C53   C     C_2   0.200547 0.758854 0.225747 0.654745
C54   C     C_2   0.324984 0.190712 0.075385 0.649725
C55   C     C_2   0.960764 0.175778 0.237902 0.594409
C56   C     C_1   0.196965 0.161694 0.667241 0.013329
C57   C     C_1   0.678330 0.191393 0.861073 0.025520
C58   C     C_1   0.658627 0.167138 0.728878 -0.023825
C59   C     C_1   0.665364 0.180936 0.800412 -0.024757
Cr1   Cr    Cr6+3 0.404720 0.198220 0.499960 1.062565
Cr2   Cr    Cr6+3 0.698290 0.897110 0.500380 1.134943
Cr3   Cr    Cr6+3 0.396970 0.904720 0.499610 1.128687
Cr4   Cr    Cr6+3 0.926180 0.151990 0.028120 1.121147
Cr5   Cr    Cr6+3 0.921330 0.451820 0.027470 1.068794
Cr6   Cr    Cr6+3 0.626260 0.446870 0.028710 1.107508
H1    H     H_    0.843427 0.585478 0.342024 0.141719
H2    H     H_    0.114829 0.080856 0.345854 0.182494
H3    H     H_    0.815503 0.358632 0.404064 0.337369
H4    H     H_    0.685421 0.804956 0.022572 0.358674
H5    H     H_    0.462497 0.579669 0.186879 0.358900
H6    H     H_    0.079331 0.597701 0.344382 0.339569
H7    H     H_    0.068149 0.933510 0.179554 0.306870
H8    H     H_    0.333043 0.500140 0.388601 0.367550
H9    H     H_    0.326748 0.240605 0.976530 0.352356
H10   H     H_    0.001924 0.010038 0.288719 0.342790
H11   H     H_    0.391459 0.358921 0.130745 0.213625
H12   H     H_    0.392895 0.407206 0.253790 0.247656
H13   H     H_    0.370002 0.283395 0.340447 0.172381
H14   H     H_    0.862885 0.742216 0.129875 0.163484
H15   H     H_    0.957742 0.678556 0.241265 0.159587
H16   H     H_    0.462755 0.862103 0.123713 0.227158
H17   H     H_    0.876062 0.532060 0.219156 0.152652
H18   H     H_    0.250227 0.905683 0.145322 0.149903
O1    O     O_R   0.267740 0.231960 0.575440 -0.496751
O2    O     O_R   0.596130 0.579390 0.952730 -0.500286
O3    O     O_R   0.639060 0.321160 0.958670 -0.490824
O4    O     O_R   0.527280 0.186640 0.570530 -0.478353
O5    O     O_R   0.821240 0.124200 0.104370 -0.454702
O6    O     O_R   0.036890 0.167040 0.097840 -0.498580
O7    O     O_R   0.056180 0.349610 0.102880 -0.500317
O8    O     O_R   0.797660 0.564870 0.097950 -0.526149
O9    O     O_R   0.595880 0.584250 0.104270 -0.489031
O10   O     O_R   0.638830 0.325670 0.099150 -0.447958
O11   O     O_3   0.824590 0.350230 0.028100 -0.294555
O12   O     O_R   0.685970 0.784660 0.430010 -0.490962
O13   O     O_R   0.728090 0.003450 0.576380 -0.477441
O14   O     O_R   0.682970 0.789190 0.570490 -0.490599
O15   O     O_R   0.499290 0.771880 0.575530 -0.479309
O16   O     O_R   0.285330 0.030870 0.569730 -0.480386
O17   O     O_R   0.270980 0.227080 0.423890 -0.516816
O18   O     O_R   0.530280 0.182120 0.430050 -0.496522
O19   O     O_R   0.731330 0.998570 0.424830 -0.396787
O20   O     O_2   0.650516 0.308125 0.430364 -0.453448
O21   O     O_R   0.795853 0.320218 0.361848 -0.615397
O22   O     O_2   0.586976 0.115963 0.050252 -0.273483
O23   O     O_R   0.502530 0.767000 0.423990 -0.443466
O24   O     O_2   0.803246 0.927816 0.021659 -0.275309
O25   O     O_3   0.618821 0.881793 0.049466 -0.537390
O26   O     O_2   0.645273 0.467576 0.264715 -0.455592
O27   O     O_R   0.494941 0.482542 0.187662 -0.695818
O28   O     O_2   0.977503 0.910160 0.389026 -0.213645
O29   O     O_2   0.904651 0.758203 0.419954 -0.270435
O30   O     O_3   0.088780 0.675506 0.336143 -0.438040
O31   O     O_2   0.230710 0.643593 0.230317 -0.399188
O32   O     O_R   0.081310 0.844832 0.192846 -0.667326
O33   O     O_2   0.507812 0.563541 0.402624 -0.249353
O34   O     O_R   0.288330 0.026350 0.429250 -0.473954
O35   O     O_2   0.282178 0.749681 0.414955 -0.208565
O36   O     O_3   0.331027 0.543908 0.344911 -0.497353
O37   O     O_2   0.330853 0.087236 0.058556 -0.503754
O38   O     O_R   0.321332 0.276455 0.024818 -0.654011
O39   O     O_2   0.877146 0.276819 0.209808 -0.465133
O40   O     O_R   0.925140 0.093035 0.269020 -0.668871
O41   O     O_3   0.499990 0.000020 0.499980 -0.340266
O42   O     O_R   0.821500 0.119340 0.952830 -0.459638
O43   O     O_R   0.037130 0.162530 0.957360 -0.494946
O44   O     O_R   0.056440 0.344740 0.951340 -0.491280
O45   O     O_R   0.797900 0.560360 0.957470 -0.507127
S1    S     S_3+6 0.685837 0.974597 0.067064 0.005590
S2    S     S_3+6 0.948971 0.807516 0.361642 0.057042
S3    S     S_3+6 0.380283 0.648976 0.365674 0.091767

loop_
_geom_bond_atom_site_label_1
_geom_bond_atom_site_label_2
_ccdc_geom_bond_type
C1    O4    A    
Cr6   O9    S    
C34   C56   T    
C23   C45   T    
C4    O15   A    
Cr4   O5    S    
C27   C29   A    
C11   C13   A    
C19   C20   A    
C18   C26   A    
Cr5   O7    S    
O24   S1    D    
Cr3   O41   S    
C12   C49   T    
Cr2   O13   S    
C7    C8    A    
C46   O10   A    
H7    O32   S    
C30   C38   A    
C43   O6    A    
Cr2   O41   S    
H10   O40   S    
C36   C37   A    
C54   O37   D    
C5    C6    A    
C57   C59   T    
C51   O20   D    
C29   C33   A    
C10   H18   S    
C16   O1    A    
C37   S2    S    
H6    O30   S    
C1    C2    S    
Cr1   O41   S    
C19   C26   A    
C32   C52   S    
Cr3   O34   S    
O35   S3    D    
H5    O27   S    
C42   O42   A    
Cr3   O15   S    
C28   O18   A    
Cr1   O4    S    
C7    C14   A    
C35   C36   A    
Cr5   O45   S    
O36   S3    S    
C19   H2    S    
C42   O3    A    
C22   H11   S    
C4    C12   S    
C9    C10   A    
C11   C53   S    
C48   C50   T    
C55   O39   D    
C39   O43   A    
C21   C22   A    
Cr5   O11   S    
C41   O45   A    
C18   C25   A    
C20   C55   S    
C42   C57   S    
H4    O25   S    
C46   O5    A    
C15   C20   A    
C55   O40   S    
C3    C44   S    
C43   O7    A    
C39   O44   A    
O30   S2    S    
C25   H13   S    
Cr6   O3    S    
C24   C25   A    
C3    C8    A    
C36   H15   S    
O22   S1    D    
Cr1   O17   S    
C51   O21   S    
C17   C21   A    
C47   O17   A    
Cr3   O16   S    
C30   C37   A    
C16   C56   S    
C5    C9    A    
C29   C30   A    
C6    C14   A    
O28   S2    D    
C31   C32   A    
Cr4   O11   S    
C52   O27   S    
Cr5   O44   S    
Cr4   O6    S    
Cr2   O12   S    
C17   C18   A    
C13   S3    S    
C34   C45   S    
O25   S1    S    
Cr4   O42   S    
C44   O8    A    
C26   C47   S    
C27   C46   S    
Cr6   O11   S    
C54   O38   S    
C8    H17   S    
C40   O12   A    
Cr1   O18   S    
C53   O31   D    
C40   O23   A    
C33   S1    S    
C15   C17   A    
C27   C32   A    
Cr2   O14   S    
H3    O21   S    
C31   C51   S    
C3    C5    A    
C44   O9    A    
C2    C58   T    
C16   O16   A    
Cr6   O2    S    
Cr3   O23   S    
C41   O2    A    
C31   C38   A    
Cr2   O19   S    
C58   C59   S    
C15   C43   S    
C7    H1    S    
Cr1   O1    S    
C21   C54   S    
O33   S3    D    
C52   O26   D    
C1    O13   A    
C23   C39   S    
C35   H14   S    
Cr6   O10   S    
C33   C35   A    
C41   C48   S    
C22   C24   A    
Cr4   O43   S    
C10   C11   A    
C14   C40   S    
H8    O36   S    
C28   O19   A    
C24   H12   S    
C47   O34   A    
H9    O38   S    
C49   C50   S    
Cr5   O8    S    
O29   S2    D    
C28   C38   S    
C4    O14   A    
C53   O32   S    
C9    H16   S    
C6    C13   A    
