data_mof_unit_2896.cif
_audit_creation_date              2012-12-10T20:51:42-0500
_audit_creation_method            fapswitch 2.2
_symmetry_space_group_name_H-M    P1
_symmetry_Int_Tables_number       1
_space_group_crystal_system       triclinic
_cell_length_a                    8.103811
_cell_length_b                    8.926542
_cell_length_c                    16.763962
_cell_angle_alpha                 89.512327
_cell_angle_beta                  96.195662
_cell_angle_gamma                 90.088801
_cell_volume                      1205.5613434

loop_
_atom_site_label
_atom_site_type_symbol
_atom_type_description
_atom_site_fract_x
_atom_site_fract_y
_atom_site_fract_z
_atom_type_partial_charge
C1    C     C_R   0.499873 0.217991 0.499901 0.972515
C2    C     C_R   0.500111 0.782014 0.500028 0.955785
C3    C     C_R   0.524027 0.495766 0.653722 1.007440
C4    C     C_R   0.475903 0.500482 0.345973 0.984757
C5    C     C_R   0.544980 0.476723 0.739828 -0.220277
C6    C     C_R   0.454271 0.482211 0.259512 -0.242183
C7    C     C_R   0.478968 0.583685 0.787433 0.313562
C8    C     C_R   0.547721 0.372330 0.225213 0.324000
C9    C     C_R   0.489306 0.560647 0.869100 -0.247012
C10   C     C_R   0.529929 0.354523 0.143176 -0.234525
C11   C     C_R   0.561776 0.429724 0.904792 0.213234
C12   C     C_R   0.419482 0.444800 0.093763 0.174962
C13   C     C_R   0.640212 0.324746 0.858088 0.066513
C14   C     C_R   0.314446 0.546627 0.127533 0.079336
C15   C     C_R   0.628417 0.349383 0.774374 0.253252
C16   C     C_R   0.333982 0.567078 0.211310 0.293386
C17   C     C_1   0.499871 0.065209 0.499957 -0.084041
C18   C     C_1   0.500137 0.934807 0.500008 -0.097477
H1    H     H_    0.605627 0.271637 0.117872 0.198173
H2    H     H_    0.438036 0.644964 0.905472 0.193379
N1    N     N_1   0.073640 0.500030 0.499990 0.011372
N2    N     N_1   0.926360 0.499970 0.500010 0.013956
N3    N     N_2   0.557336 0.408390 0.987736 -0.161686
N4    N     N_2   0.421253 0.445497 0.009742 -0.160291
O1    O     O_R   0.636850 0.285340 0.500000 -0.579816
O2    O     O_R   0.363150 0.714660 0.500000 -0.595511
O3    O     O_R   0.363100 0.285350 0.500000 -0.626677
O4    O     O_R   0.636900 0.714650 0.500000 -0.620920
O5    O     O_R   0.652140 0.498630 0.616140 -0.592699
O6    O     O_R   0.347860 0.501370 0.383860 -0.583633
O7    O     O_R   0.378390 0.498650 0.616130 -0.594486
O8    O     O_R   0.621610 0.501350 0.383870 -0.582679
Zn1   Zn    Zn3+2 0.682780 0.499990 0.500010 1.099435
Zn2   Zn    Zn3+2 0.317220 0.500010 0.499990 1.093470
Cl1   Cl    Cl    0.685791 0.250296 0.282672 -0.559870
Cl2   Cl    Cl    0.383968 0.749233 0.746808 -0.569130
C19   C     C_3   0.733281 0.184012 0.890831 -0.312384
C20   C     C_3   0.751196 0.153537 0.981010 -0.841425
H3    H     H_    0.815457 0.247816 0.014162 0.269206
H4    H     H_    0.627812 0.130861 0.001523 0.272871
H5    H     H_    0.828102 0.051593 0.994150 0.257892
H6    H     H_    0.670938 0.084552 0.861582 0.258853
H7    H     H_    0.861082 0.189187 0.872571 0.242277
C21   C     C_3   0.187357 0.635515 0.072897 -0.335052
C22   C     C_3   0.037414 0.538363 0.044590 -0.791492
H8    H     H_    0.075531 0.441132 0.009983 0.262607
H9    H     H_    0.976651 0.497002 0.096891 0.279364
H10   H     H_    0.945988 0.605555 0.005219 0.252134
H11   H     H_    0.142799 0.735869 0.102499 0.256573
H12   H     H_    0.244468 0.679301 0.020040 0.205041
Cl3   Cl    Cl    0.710870 0.215691 0.711496 -0.595056
Cl4   Cl    Cl    0.213391 0.702326 0.255856 -0.577021

loop_
_geom_bond_atom_site_label_1
_geom_bond_atom_site_label_2
_ccdc_geom_bond_type
C21   H11   S    
C19   H7    S    
C3    O7    A    
N3    N4    D    
C7    C9    A    
C19   C20   S    
C15   Cl3   S    
C2    C18   S    
C9    C11   A    
C7    Cl2   S    
C12   N4    S    
C9    H2    S    
C13   C19   S    
C10   H1    S    
O8    Zn1   S    
C13   C15   A    
C17   C18   T    
O7    Zn2   S    
C2    O2    A    
N1    N2    T    
C1    O1    A    
C11   C13   A    
C4    O8    A    
C10   C12   A    
C11   N3    S    
C20   H4    S    
C12   C14   A    
O4    Zn1   S    
C14   C21   S    
C5    C7    A    
C22   H9    S    
O3    Zn2   S    
C20   H3    S    
C14   C16   A    
C5    C15   A    
C4    C6    S    
C2    O4    A    
O6    Zn2   S    
C6    C16   A    
O5    Zn1   S    
C21   C22   S    
C20   H5    S    
C3    O5    A    
C22   H10   S    
C21   H12   S    
C19   H6    S    
C1    O3    A    
N2    Zn1   S    
C6    C8    A    
N1    Zn2   S    
C22   H8    S    
C1    C17   S    
O2    Zn2   S    
C8    C10   A    
C4    O6    A    
C16   Cl4   S    
O1    Zn1   S    
C3    C5    S    
C8    Cl1   S    
