data_mof_unit_4573.cif
_audit_creation_date              2012-12-10T18:59:58-0500
_audit_creation_method            fapswitch 2.2
_symmetry_space_group_name_H-M    P1
_symmetry_Int_Tables_number       1
_space_group_crystal_system       triclinic
_cell_length_a                    10.807426
_cell_length_b                    10.635098
_cell_length_c                    9.879307
_cell_angle_alpha                 90.336388
_cell_angle_beta                  91.111171
_cell_angle_gamma                 89.940988
_cell_volume                      1135.27455499

loop_
_atom_site_label
_atom_site_type_symbol
_atom_type_description
_atom_site_fract_x
_atom_site_fract_y
_atom_site_fract_z
_atom_type_partial_charge
C1    C     C_R   0.496360 0.260390 0.499405 0.890091
C2    C     C_R   0.503640 0.739610 0.500595 0.890093
C3    C     C_R   0.872616 0.500896 0.504560 -0.101800
C4    C     C_R   0.127385 0.499115 0.495439 -0.101781
C5    C     C_R   0.942301 0.511995 0.626019 -0.001675
C6    C     C_R   0.057698 0.488019 0.373979 -0.001674
C7    C     C_R   0.578314 0.067003 0.415694 -0.193366
C8    C     C_R   0.421687 0.932997 0.584306 -0.193359
C9    C     C_R   0.587985 0.938336 0.418613 0.458211
C10   C     C_R   0.412016 0.061664 0.581387 0.458209
C11   C     C_R   0.506927 0.872078 0.502284 -0.249833
C12   C     C_R   0.493074 0.127922 0.497716 -0.249834
C13   C     C_R   0.489935 0.609867 0.072137 -0.066469
C14   C     C_R   0.510065 0.390133 0.927863 -0.066471
C15   C     C_R   0.490356 0.609849 0.928726 -0.017171
C16   C     C_R   0.509645 0.390151 0.071274 -0.017174
C17   C     C_R   0.259972 0.499443 0.498295 0.876076
C18   C     C_R   0.740028 0.500560 0.501705 0.876064
C19   C     C_R   0.169103 0.565994 0.021487 0.397939
C20   C     C_R   0.830911 0.434017 0.978515 0.397947
C21   C     C_R   0.122534 0.583268 0.151873 0.434714
C22   C     C_R   0.877478 0.416746 0.848128 0.434714
C23   C     C_R   0.110902 0.477255 0.237652 -0.047220
C24   C     C_R   0.889096 0.522757 0.762345 -0.047209
C25   C     C_R   0.145097 0.357626 0.190799 -0.102473
C26   C     C_R   0.854889 0.642383 0.809195 -0.102472
C27   C     C_R   0.191460 0.342367 0.061114 -0.139216
C28   C     C_R   0.808527 0.657640 0.938881 -0.139244
C29   C     C_R   0.203690 0.446099 0.976929 -0.299500
C30   C     C_R   0.796311 0.553908 0.023071 -0.299512
C31   C     C_R   0.931159 0.488803 0.380656 -0.192490
C32   C     C_R   0.068840 0.511209 0.619342 -0.192438
H1    H     H_    0.241792 0.432865 0.877581 0.195585
H2    H     H_    0.758209 0.567139 0.122419 0.195581
H3    H     H_    0.482578 0.698105 0.875556 0.168381
H4    H     H_    0.517424 0.301895 0.124444 0.168378
H5    H     H_    0.135594 0.276122 0.255031 0.171930
H6    H     H_    0.864381 0.723886 0.744960 0.171919
H7    H     H_    0.218508 0.249971 0.025889 0.195907
H8    H     H_    0.781467 0.750032 0.974103 0.195898
H9    H     H_    0.878647 0.479406 0.287413 0.205836
H10   H     H_    0.121352 0.520603 0.712585 0.205831
H11   H     H_    0.641040 0.120048 0.353367 0.210510
H12   H     H_    0.358961 0.879952 0.646633 0.210513
H13   H     H_    0.481747 0.698158 0.125911 0.175785
H14   H     H_    0.518254 0.301842 0.874089 0.175780
N1    N     N_R   0.499970 0.499970 0.857200 -0.102744
N2    N     N_R   0.500030 0.500030 0.142800 -0.102746
O1    O     O_R   0.499990 0.316750 0.614620 -0.613942
O2    O     O_R   0.500010 0.683250 0.385380 -0.613938
O3    O     O_R   0.499990 0.316780 0.385290 -0.621717
O4    O     O_R   0.500010 0.683220 0.614710 -0.621718
O5    O     O_R   0.316760 0.500000 0.614660 -0.621769
O6    O     O_R   0.683240 0.500000 0.385340 -0.621765
O7    O     O_R   0.316760 0.500020 0.385330 -0.613529
O8    O     O_R   0.683240 0.499980 0.614670 -0.613537
Zn1   Zn    Zn3+2 0.500000 0.499980 0.653120 0.971490
Zn2   Zn    Zn3+2 0.500000 0.500020 0.346880 0.971495
Cl1   Cl    Cl    0.185984 0.695675 0.913737 -0.596066
Cl2   Cl    Cl    0.814037 0.304335 0.086264 -0.596072
O9    O     O_3   0.090330 0.703893 0.190783 -0.703828
H15   H     H_    0.065129 0.704893 0.286429 0.341582
O10   O     O_3   0.909696 0.296125 0.809220 -0.703844
H16   H     H_    0.934821 0.295110 0.713550 0.341586
O11   O     O_3   0.678524 0.882388 0.341738 -0.738088
H17   H     H_    0.697554 0.797838 0.377929 0.328856
O12   O     O_3   0.321476 0.117612 0.658262 -0.738080
H18   H     H_    0.302446 0.202161 0.622070 0.328861

loop_
_geom_bond_atom_site_label_1
_geom_bond_atom_site_label_2
_ccdc_geom_bond_type
C13   N2    A    
C13   H13   S    
N2    Zn2   S    
C14   N1    A    
C7    H11   S    
N1    Zn1   S    
C1    O3    A    
C17   O7    A    
C26   C28   A    
C19   C29   A    
C15   N1    A    
C5    C32   A    
C25   H5    S    
C16   N2    A    
C28   C30   A    
C6    C31   A    
C20   Cl2   S    
C14   H14   S    
O3    Zn2   S    
C20   C30   A    
C10   O12   S    
C16   H4    S    
C3    C31   A    
C18   O8    A    
C9    C11   A    
C30   H2    S    
C4    C32   A    
C1    C12   S    
C2    O4    A    
C8    C11   A    
C6    C23   S    
C10   C12   A    
C22   C24   A    
C4    C6    A    
C19   C21   A    
C20   C22   A    
C18   O6    A    
C14   C16   A    
C13   C15   A    
O5    Zn1   S    
O9    H15   S    
C9    O11   S    
C7    C12   A    
C25   C27   A    
O4    Zn1   S    
C28   H8    S    
C31   H9    S    
C27   H7    S    
O12   H18   S    
O2    Zn2   S    
C17   O5    A    
C23   C25   A    
O1    Zn1   S    
O8    Zn1   S    
C3    C18   S    
C8    C10   A    
O11   H17   S    
O6    Zn2   S    
O7    Zn2   S    
C15   H3    S    
C27   C29   A    
C7    C9    A    
C32   H10   S    
C5    C24   S    
C2    C11   S    
C2    O2    A    
C19   Cl1   S    
C22   O10   S    
C1    O1    A    
C21   C23   A    
C21   O9    S    
C26   H6    S    
C8    H12   S    
C29   H1    S    
C24   C26   A    
O10   H16   S    
C3    C5    A    
C4    C17   S    
