data_mof_unit_1580.cif
_audit_creation_date              2012-12-10T20:45:32-0500
_audit_creation_method            fapswitch 2.2
_symmetry_space_group_name_H-M    P1
_symmetry_Int_Tables_number       1
_space_group_crystal_system       triclinic
_cell_length_a                    10.688011
_cell_length_b                    10.665384
_cell_length_c                    9.882647
_cell_angle_alpha                 90.375581
_cell_angle_beta                  90.549382
_cell_angle_gamma                 90.675557
_cell_volume                      1126.38500579

loop_
_atom_site_label
_atom_site_type_symbol
_atom_type_description
_atom_site_fract_x
_atom_site_fract_y
_atom_site_fract_z
_atom_type_partial_charge
C1    C     C_R   0.502453 0.260131 0.499825 0.873840
C2    C     C_R   0.229007 0.808457 0.098411 -0.113530
C3    C     C_R   0.932283 0.562301 0.399174 -0.251842
C4    C     C_R   0.872297 0.496781 0.502300 -0.077200
C5    C     C_R   0.939419 0.438350 0.607139 -0.009076
C6    C     C_R   0.067680 0.443496 0.603132 -0.261039
C7    C     C_R   0.127847 0.508074 0.499420 -0.080524
C8    C     C_R   0.060848 0.571527 0.397808 -0.001773
C9    C     C_R   0.891517 0.423155 0.853496 -0.154200
C10   C     C_R   0.831942 0.364714 0.961933 -0.131735
C11   C     C_R   0.761739 0.254930 0.940282 -0.125206
C12   C     C_R   0.260348 0.503964 0.499447 0.868837
C13   C     C_R   0.751426 0.203179 0.810277 -0.119551
C14   C     C_R   0.809837 0.261966 0.701173 -0.111996
C15   C     C_R   0.879800 0.372825 0.722138 0.138203
C16   C     C_R   0.495755 0.064448 0.621048 0.130333
C17   C     C_R   0.517778 0.128658 0.501470 -0.101691
C18   C     C_R   0.560964 0.064818 0.387009 -0.244049
C19   C     C_R   0.562048 0.935046 0.387684 -0.243296
C20   C     C_R   0.519113 0.871602 0.502482 -0.098878
C21   C     C_R   0.496047 0.936888 0.621526 0.118363
C22   C     C_3   0.386446 0.929143 0.714236 -0.496677
C23   C     C_R   0.503311 0.739854 0.500376 0.869534
C24   C     C_3   0.387213 0.071210 0.714830 -0.492359
C25   C     C_R   0.440563 0.406254 0.069712 0.191981
C26   C     C_R   0.570270 0.583615 0.075169 -0.136830
C27   C     C_R   0.571498 0.584472 0.931480 0.230282
C28   C     C_R   0.438955 0.407403 0.927383 0.191042
C29   C     C_3   0.302157 0.378087 0.922219 -0.521944
C30   C     C_3   0.305276 0.372424 0.075649 -0.488183
C31   C     C_R   0.739728 0.497338 0.500799 0.863144
C32   C     C_R   0.255783 0.828618 0.235543 -0.121033
C33   C     C_R   0.201625 0.751420 0.333281 -0.092870
C34   C     C_R   0.120201 0.652882 0.294283 0.133376
C35   C     C_R   0.091139 0.635596 0.156233 -0.195196
C36   C     C_R   0.146523 0.712181 0.058778 -0.140155
H1    H     H_    0.271373 0.868094 0.023006 0.122585
H2    H     H_    0.715534 0.209825 0.024273 0.118481
H3    H     H_    0.698107 0.117498 0.794265 0.128559
H4    H     H_    0.800172 0.221726 0.600647 0.105980
H5    H     H_    0.587182 0.114107 0.295849 0.165547
H6    H     H_    0.588805 0.885117 0.296813 0.164776
H7    H     H_    0.301899 0.886999 0.664711 0.197553
H8    H     H_    0.411251 0.888959 0.814221 0.197202
H9    H     H_    0.302647 0.112258 0.666836 0.198217
H10   H     H_    0.414705 0.112253 0.814572 0.199961
H11   H     H_    0.623896 0.652323 0.133140 0.144397
H12   H     H_    0.318101 0.904467 0.266116 0.138413
H13   H     H_    0.246276 0.457611 0.883214 0.215118
H14   H     H_    0.280856 0.286075 0.873675 0.197249
H15   H     H_    0.249031 0.445809 0.125101 0.234708
H16   H     H_    0.290106 0.276245 0.115432 0.196325
H17   H     H_    0.222594 0.768780 0.439225 0.087994
H18   H     H_    0.027599 0.561186 0.123952 0.124425
H19   H     H_    0.125348 0.696938 0.952557 0.128551
H20   H     H_    0.878393 0.611412 0.322874 0.154708
H21   H     H_    0.120760 0.394681 0.680190 0.156990
H22   H     H_    0.944931 0.508728 0.871289 0.118314
H23   H     H_    0.839786 0.404756 0.062636 0.133001
N1    N     N_R   0.499160 0.499140 0.142800 -0.119940
N2    N     N_R   0.499160 0.499180 0.857150 -0.105036
O1    O     O_R   0.500020 0.316790 0.614690 -0.608915
O2    O     O_R   0.500000 0.316760 0.385350 -0.622633
O3    O     O_R   0.316770 0.500030 0.614670 -0.626130
O4    O     O_R   0.316750 0.499990 0.385330 -0.607574
O5    O     O_R   0.500000 0.683240 0.614650 -0.618495
O6    O     O_R   0.499980 0.683210 0.385310 -0.620699
O7    O     O_R   0.683250 0.500010 0.614670 -0.615804
O8    O     O_R   0.683230 0.499970 0.385330 -0.629853
Zn1   Zn    Zn3+2 0.500010 0.500020 0.653130 0.947153
Zn2   Zn    Zn3+2 0.499990 0.499980 0.346870 0.942136
C37   C     C_3   0.650470 0.683975 0.865792 -0.845800
H24   H     H_    0.714345 0.643581 0.790958 0.269271
H25   H     H_    0.590507 0.756171 0.820383 0.247898
H26   H     H_    0.711245 0.733652 0.941120 0.187266

loop_
_geom_bond_atom_site_label_1
_geom_bond_atom_site_label_2
_ccdc_geom_bond_type
N2    Zn1   S    
C30   H15   S    
C16   C21   A    
C35   C36   A    
C1    O1    A    
C7    C8    A    
C29   H13   S    
C25   C28   A    
C26   C27   A    
C24   H9    S    
C23   O5    A    
C28   C29   S    
C18   C19   A    
C5    C6    A    
C12   O3    A    
O1    Zn1   S    
C2    C32   A    
C34   C35   A    
C23   O6    A    
O8    Zn2   S    
C27   N2    A    
C22   H8    S    
C19   C20   A    
C16   C17   A    
C25   N1    A    
O3    Zn1   S    
C9    C10   A    
C19   H6    S    
C28   N2    A    
C16   C24   S    
C21   C22   S    
C35   H18   S    
C32   H12   S    
C6    H21   S    
C31   O7    A    
C37   H26   S    
C1    O2    A    
C17   C18   A    
C29   H14   S    
C33   H17   S    
C7    C12   S    
C5    C15   S    
C37   H25   S    
C3    C8    A    
C18   H5    S    
C37   H24   S    
N1    Zn2   S    
O4    Zn2   S    
C11   H2    S    
C29   C30   S    
C3    H20   S    
C22   H7    S    
C20   C23   S    
C33   C34   A    
C8    C34   S    
C26   H11   S    
O2    Zn2   S    
C22   C24   S    
C3    C4    A    
C2    C36   A    
C25   C30   S    
C30   H16   S    
C9    H22   S    
C4    C5    A    
C6    C7    A    
C12   O4    A    
C1    C17   S    
C24   H10   S    
C32   C33   A    
C10   H23   S    
C9    C15   A    
C36   H19   S    
C11   C13   A    
C2    H1    S    
O5    Zn1   S    
O6    Zn2   S    
C13   H3    S    
C4    C31   S    
C10   C11   A    
C14   H4    S    
C31   O8    A    
C20   C21   A    
O7    Zn1   S    
C14   C15   A    
C13   C14   A    
C26   N1    A    
C27   C37   S    
