data_mof_unit_913.cif
_audit_creation_date              2012-12-11T14:39:18-0500
_audit_creation_method            fapswitch 2.2
_symmetry_space_group_name_H-M    P1
_symmetry_Int_Tables_number       1
_space_group_crystal_system       triclinic
_cell_length_a                    7.221031
_cell_length_b                    13.946437
_cell_length_c                    16.456653
_cell_angle_alpha                 90.014209
_cell_angle_beta                  97.337088
_cell_angle_gamma                 90.12394
_cell_volume                      1643.73675276

loop_
_atom_site_label
_atom_site_type_symbol
_atom_type_description
_atom_site_fract_x
_atom_site_fract_y
_atom_site_fract_z
_atom_type_partial_charge
O1    O     O_R   0.525340 0.338340 0.164530 -0.556776
O2    O     O_R   0.474660 0.661660 0.835470 -0.555436
O3    O     O_R   0.974660 0.838340 0.835470 -0.557628
O4    O     O_R   0.025340 0.161660 0.164530 -0.557140
O5    O     O_R   0.253520 0.352000 0.336710 -0.551799
O6    O     O_R   0.746480 0.648000 0.663290 -0.538490
O7    O     O_R   0.246480 0.852000 0.663290 -0.549397
O8    O     O_R   0.753520 0.148000 0.336710 -0.537766
O9    O     O_R   0.083330 0.168380 0.337300 -0.550049
O10   O     O_R   0.916670 0.831620 0.662700 -0.538695
O11   O     O_R   0.416670 0.668380 0.662700 -0.550218
O12   O     O_R   0.583330 0.331620 0.337300 -0.536010
C1    C     C_R   0.432718 0.370698 0.362229 0.774647
C2    C     C_R   0.567860 0.628053 0.638749 0.769845
C3    C     C_R   0.067561 0.871243 0.638192 0.773520
C4    C     C_R   0.931787 0.128508 0.361710 0.766671
O13   O     O_R   0.195840 0.349670 0.165140 -0.506552
O14   O     O_R   0.804160 0.650330 0.834860 -0.512873
O15   O     O_R   0.304160 0.849670 0.834860 -0.505175
O16   O     O_R   0.695840 0.150330 0.165140 -0.510091
C5    C     C_R   0.356149 0.368968 0.135612 0.751421
C6    C     C_R   0.643531 0.630353 0.863786 0.743098
C7    C     C_R   0.142735 0.873257 0.861302 0.747746
C8    C     C_R   0.857301 0.126948 0.138350 0.740678
O17   O     O_3   0.387830 0.193120 0.250910 -0.391039
O18   O     O_3   0.612170 0.806880 0.749090 -0.386226
O19   O     O_3   0.112170 0.693120 0.749090 -0.387988
O20   O     O_3   0.887830 0.306880 0.250910 -0.388743
V1    V     V_3+5 0.113010 0.264540 0.250910 1.467984
V2    V     V_3+5 0.886990 0.735460 0.749090 1.472776
V3    V     V_3+5 0.386990 0.764540 0.749090 1.484276
V4    V     V_3+5 0.613010 0.235460 0.250910 1.469025
H1    H     H_    0.872767 0.785663 0.271940 0.152642
H2    H     H_    0.063141 0.212363 0.730396 0.153992
H3    H     H_    0.603482 0.284177 0.729479 0.145352
H4    H     H_    0.444519 0.710351 0.270232 0.145203
C9    C     C_R   0.017245 0.200961 0.523850 -0.146316
C10   C     C_R   0.012705 0.799011 0.475368 -0.144145
C11   C     C_R   0.479806 0.699759 0.476699 -0.146314
C12   C     C_R   0.485388 0.297914 0.524814 -0.145275
C13   C     C_R   0.045118 0.239938 0.602088 -0.184240
C14   C     C_R   0.972910 0.759590 0.397629 -0.175614
C15   C     C_R   0.453362 0.738337 0.398299 -0.179403
C16   C     C_R   0.518696 0.258373 0.602600 -0.169822
C17   C     C_R   0.049948 0.180720 0.669833 -0.172179
C18   C     C_R   0.911631 0.817856 0.331582 -0.177060
C19   C     C_R   0.453682 0.679018 0.330793 -0.177834
C20   C     C_R   0.573442 0.316602 0.669478 -0.180127
C21   C     C_R   0.029195 0.081200 0.660307 0.438807
C22   C     C_R   0.892558 0.916975 0.342055 0.418670
C23   C     C_R   0.475498 0.579776 0.340835 0.430402
C24   C     C_R   0.595841 0.415833 0.659745 0.418996
C25   C     C_R   0.022052 0.038820 0.580937 -0.034290
C26   C     C_R   0.951774 0.960342 0.419778 -0.030309
C27   C     C_R   0.479330 0.537702 0.420060 -0.029148
C28   C     C_R   0.543829 0.459337 0.581407 -0.023713
C29   C     C_R   0.003268 0.100428 0.511556 -0.002032
C30   C     C_R   0.000080 0.899177 0.488288 -0.003298
C31   C     C_R   0.495741 0.599353 0.489284 -0.003833
C32   C     C_R   0.498556 0.398141 0.512445 -0.004733
C33   C     C_R   0.030295 0.937991 0.568545 -0.151712
C34   C     C_R   0.963920 0.061551 0.431507 -0.150964
C35   C     C_R   0.470745 0.437009 0.432235 -0.152520
C36   C     C_R   0.534267 0.560642 0.569387 -0.150804
H5    H     H_    0.006924 0.250991 0.473275 0.118665
H6    H     H_    0.054089 0.749730 0.525121 0.114507
H7    H     H_    0.487296 0.749967 0.527109 0.118426
H8    H     H_    0.447552 0.248662 0.474595 0.114230
H9    H     H_    0.057432 0.316836 0.610116 0.137199
H10   H     H_    0.984491 0.682966 0.388996 0.137717
H11   H     H_    0.439370 0.815073 0.390095 0.133328
H12   H     H_    0.505419 0.181742 0.610854 0.139962
H13   H     H_    0.111360 0.090459 0.038875 0.183635
H14   H     H_    0.903022 0.904000 0.967334 0.183190
H15   H     H_    0.381684 0.517612 0.912190 0.169735
H16   H     H_    0.623988 0.472054 0.080930 0.167403
C37   C     C_2   0.146845 0.951690 0.922528 0.264167
C38   C     C_2   0.853010 0.050224 0.075238 0.251687
C39   C     C_2   0.345485 0.425546 0.058603 0.245839
C40   C     C_2   0.653635 0.572761 0.939908 0.239687
C41   C     C_2   0.009593 0.959373 0.971264 -0.156077
C42   C     C_2   0.997365 0.039128 0.030662 -0.132345
C43   C     C_2   0.497893 0.471830 0.037660 -0.119055
C44   C     C_2   0.503936 0.521731 0.957886 -0.119701
O21   O     O_3   0.006640 0.027087 0.728656 -0.569167
C45   C     C_3   0.821013 0.038984 0.745739 -0.164166
H17   H     H_    0.718563 0.014742 0.693349 0.118728
H18   H     H_    0.792430 0.114510 0.761941 0.130565
H19   H     H_    0.798953 0.994665 0.799466 0.185094
O22   O     O_3   0.806991 0.969475 0.276741 -0.566426
C46   C     C_3   0.612223 0.953745 0.271403 -0.113839
H20   H     H_    0.539548 0.003322 0.225475 0.205708
H21   H     H_    0.558349 0.968905 0.330604 0.087873
H22   H     H_    0.575010 0.879555 0.250543 0.130313
O23   O     O_3   0.508567 0.525970 0.273767 -0.576987
C47   C     C_3   0.699741 0.535835 0.264633 -0.195653
H23   H     H_    0.792058 0.518381 0.322290 0.117163
H24   H     H_    0.730700 0.609167 0.243398 0.143735
H25   H     H_    0.734994 0.484738 0.217678 0.184484
O24   O     O_3   0.670300 0.468788 0.727190 -0.579607
C48   C     C_3   0.862874 0.447425 0.744106 -0.173016
H26   H     H_    0.937825 0.465353 0.690976 0.113064
H27   H     H_    0.887222 0.371214 0.762105 0.133226
H28   H     H_    0.925413 0.491069 0.796778 0.204707
Cl1   Cl    Cl    0.662237 0.969876 0.064632 -0.597295
Cl2   Cl    Cl    0.320837 0.040668 0.921541 -0.573165
Cl3   Cl    Cl    0.852271 0.589861 0.012880 -0.595439
Cl4   Cl    Cl    0.139401 0.415012 0.989000 -0.604076

loop_
_geom_bond_atom_site_label_1
_geom_bond_atom_site_label_2
_ccdc_geom_bond_type
O1    C5    A    
C48   H26   S    
C12   C32   A    
C27   C31   A    
O13   V1    S    
O3    C7    A    
O23   C47   S    
C40   C44   D    
O15   V3    S    
C41   C42   S    
C29   C34   A    
O21   C45   S    
C40   Cl3   S    
C31   C36   A    
C22   C26   A    
C32   C35   A    
C37   Cl2   S    
O9    C4    A    
C10   C14   A    
O10   C3    A    
O16   V4    S    
O4    C8    A    
O11   C2    A    
C45   H18   S    
H15   C44   S    
O6    C2    A    
C47   H25   S    
C14   H10   S    
H4    C19   S    
C14   C18   A    
O10   V2    S    
C10   C30   A    
C25   C33   A    
C22   O22   S    
C10   H6    S    
C9    H5    S    
C47   H24   S    
O2    C6    A    
C28   C36   A    
O14   V2    S    
C37   C41   D    
C12   C16   A    
O5    C1    A    
O4    V1    S    
O9    V1    S    
C30   C33   A    
O7    C3    A    
O11   V3    S    
O18   V3    S    
C48   H27   S    
O12   V4    S    
O19   V2    S    
H1    C18   S    
C4    C34   S    
H3    C20   S    
H16   C43   S    
O5    V1    S    
O7    V3    S    
O8    V4    S    
C21   O21   S    
C46   H20   S    
C25   C29   A    
C45   H17   S    
C19   C23   A    
C26   C34   A    
C24   O24   S    
O1    V4    S    
O13   C5    A    
C28   C32   A    
C27   C35   A    
O2    V3    S    
O3    V2    S    
O15   C7    A    
C46   H21   S    
C38   C42   D    
C43   C44   S    
C1    C35   S    
C17   C21   A    
C11   C31   A    
C47   H23   S    
C5    C39   S    
C3    C33   S    
H2    C17   S    
C7    C37   S    
C2    C36   S    
C8    C38   S    
O6    V2    S    
C48   H28   S    
C38   Cl1   S    
H14   C41   S    
H13   C42   S    
C13   H9    S    
C26   C30   A    
O20   V1    S    
C15   H11   S    
O14   C6    A    
C11   H7    S    
C45   H19   S    
C11   C15   A    
C18   C22   A    
C6    C40   S    
C46   H22   S    
C39   C43   D    
O22   C46   S    
O17   V4    S    
C21   C25   A    
O24   C48   S    
C39   Cl4   S    
C16   H12   S    
C23   C27   A    
C9    C13   A    
C16   C20   A    
C20   C24   A    
O12   C1    A    
O8    C4    A    
C12   H8    S    
C13   C17   A    
C15   C19   A    
O16   C8    A    
C9    C29   A    
C24   C28   A    
C23   O23   S    
