data_mof_unit_4437.cif
_audit_creation_date              2012-10-26T20:34:04-0400
_audit_creation_method            fapswitch 2.2
_symmetry_space_group_name_H-M    P1
_symmetry_Int_Tables_number       1
_space_group_crystal_system       triclinic
_cell_length_a                    15.938579
_cell_length_b                    9.077899
_cell_length_c                    7.859741
_cell_angle_alpha                 90.02754
_cell_angle_beta                  89.66406
_cell_angle_gamma                 89.991772
_cell_volume                      1137.19688406

loop_
_atom_site_label
_atom_site_type_symbol
_atom_type_description
_atom_site_fract_x
_atom_site_fract_y
_atom_site_fract_z
_atom_type_partial_charge
C1    C     C_R   0.499997 0.220338 0.499975 0.558961
C2    C     C_3   0.052554 0.532016 0.307595 -0.017930
C3    C     C_3   0.947922 0.326689 0.559886 -0.058704
C4    C     C_3   0.951204 0.512695 0.297411 0.025073
C5    C     C_1   0.749072 0.495812 0.497148 0.047787
C6    C     C_1   0.250944 0.494878 0.501130 0.050465
C7    C     C_3   0.083321 0.479623 0.491096 -0.032814
C8    C     C_3   0.916690 0.482096 0.485407 -0.080562
C9    C     C_3   0.951387 0.607372 0.601833 -0.260588
C10   C     C_3   0.046917 0.590723 0.623094 -0.229627
C11   C     C_2   0.903589 0.194646 0.477493 0.244113
C12   C     C_1   0.824216 0.490475 0.492457 -0.024491
C13   C     C_2   0.922153 0.387244 0.181502 0.232692
C14   C     C_2   0.079090 0.206096 0.406390 0.235082
C15   C     C_2   0.098261 0.448163 0.167634 0.146871
C16   C     C_2   0.083583 0.691759 0.277773 0.289339
C17   C     C_2   0.087652 0.255789 0.704677 0.311684
C18   C     C_2   0.910150 0.650053 0.220172 0.369992
C19   C     C_2   0.919939 0.320986 0.747856 0.257207
C20   C     C_1   0.175798 0.488517 0.498955 0.015913
C21   C     C_R   0.340132 0.499802 0.500465 0.551112
C22   C     C_R   0.659869 0.499877 0.499428 0.550905
C23   C     C_1   0.499995 0.934537 0.500033 -0.018376
C24   C     C_1   0.499995 0.065475 0.499964 -0.013007
C25   C     C_R   0.499997 0.779670 0.500024 0.546244
C26   C     C_3   0.049384 0.317797 0.540270 -0.024355
Cu1   Cu    Cu3+1 0.500000 0.500010 0.669080 1.090667
Cu2   Cu    Cu3+1 0.500000 0.500010 0.330920 1.078423
H1    H     H_    0.060343 0.552986 0.751997 0.226247
H2    H     H_    0.060229 0.157740 0.761389 0.150488
H3    H     H_    0.866812 0.717448 0.293294 0.122236
H4    H     H_    0.953744 0.383705 0.841741 0.158803
H5    H     H_    0.077685 0.700356 0.615519 0.189719
H6    H     H_    0.920407 0.608290 0.728878 0.188245
H7    H     H_    0.937143 0.717617 0.548522 0.200446
H8    H     H_    0.848896 0.209474 0.398314 0.166616
H9    H     H_    0.963762 0.300294 0.140673 0.124506
H10   H     H_    0.037978 0.163573 0.309555 0.148343
H11   H     H_    0.153656 0.382734 0.192357 0.177730
H12   H     H_    0.143101 0.710935 0.213032 0.138153
N1    N     N_1   0.500000 0.499970 0.076820 -0.065120
N2    N     N_1   0.500000 0.499970 0.923180 -0.065015
O1    O     O_R   0.500000 0.288400 0.642760 -0.490434
O2    O     O_2   0.848930 0.378879 0.136663 -0.469965
O3    O     O_2   0.152112 0.164597 0.401880 -0.475656
O4    O     O_2   0.077969 0.464968 0.020559 -0.526486
O5    O     O_2   0.046368 0.799639 0.332464 -0.485567
O6    O     O_2   0.150538 0.307135 0.769707 -0.450626
O7    O     O_2   0.925397 0.686117 0.073374 -0.456596
O8    O     O_2   0.858932 0.249954 0.795428 -0.418469
O9    O     O_R   0.500000 0.288400 0.357240 -0.492099
O10   O     O_R   0.379440 0.500020 0.642850 -0.484371
O11   O     O_R   0.379440 0.500020 0.357150 -0.506239
O12   O     O_R   0.620560 0.500020 0.642850 -0.486529
O13   O     O_R   0.620560 0.500020 0.357150 -0.488504
O14   O     O_R   0.500000 0.711620 0.642810 -0.498450
O15   O     O_R   0.500000 0.711620 0.357190 -0.498847
O16   O     O_2   0.924205 0.068621 0.512789 -0.474637

loop_
_geom_bond_atom_site_label_1
_geom_bond_atom_site_label_2
_ccdc_geom_bond_type
C1    C24   S    
C7    C10   S    
C2    C4    S    
Cu2   O11   S    
C25   O14   A    
C3    C19   S    
C22   O13   A    
C2    C15   S    
Cu1   O1    S    
C14   H10   S    
C11   O16   D    
C2    C16   S    
C9    C10   S    
C13   H9    S    
C2    C7    S    
C19   O8    D    
C17   O6    D    
C8    C12   S    
C4    C8    S    
C4    C18   S    
C21   O10   A    
Cu1   O12   S    
C22   O12   A    
Cu2   O15   S    
C14   C26   S    
C21   O11   A    
C17   H2    S    
C1    O9    A    
Cu1   N2    S    
C15   H11   S    
C7    C26   S    
C25   O15   A    
C16   H12   S    
C19   H4    S    
C16   O5    D    
C11   H8    S    
Cu2   O13   S    
C7    C20   S    
C10   H5    S    
C23   C25   S    
C9    H6    S    
Cu2   O9    S    
C3    C11   S    
C17   C26   S    
C23   C24   T    
C10   H1    S    
Cu2   N1    S    
C4    C13   S    
C6    C20   T    
Cu1   O10   S    
C5    C12   T    
C3    C8    S    
N1    N2    T    
Cu1   Cu2   S    
C9    H7    S    
Cu1   O14   S    
C18   H3    S    
C15   O4    D    
C14   O3    D    
C13   O2    D    
C6    C21   S    
C1    O1    A    
C3    C26   S    
C5    C22   S    
C18   O7    D    
C8    C9    S    
