data_mof_unit_3341.cif
_audit_creation_date              2012-10-26T19:28:24-0400
_audit_creation_method            fapswitch 2.2
_symmetry_space_group_name_H-M    P1
_symmetry_Int_Tables_number       1
_space_group_crystal_system       triclinic
_cell_length_a                    14.794993
_cell_length_b                    14.682085
_cell_length_c                    14.348168
_cell_angle_alpha                 76.712465
_cell_angle_beta                  103.315293
_cell_angle_gamma                 115.060375
_cell_volume                      2716.31526849

loop_
_atom_site_label
_atom_site_type_symbol
_atom_type_description
_atom_site_fract_x
_atom_site_fract_y
_atom_site_fract_z
_atom_type_partial_charge
C1    C     C_R   0.879453 0.311901 0.512234 0.558630
C2    C     C_R   0.493074 0.118982 0.540707 -0.135275
C3    C     C_R   0.607847 0.896645 0.568302 -0.140110
C4    C     C_R   0.390310 0.090365 0.538702 -0.149863
C5    C     C_R   0.697492 0.641042 0.318787 -0.057956
C6    C     C_R   0.297961 0.348615 0.675493 -0.055179
C7    C     C_R   0.789112 0.628705 0.358620 0.084911
C8    C     C_R   0.212135 0.373266 0.642943 0.098014
C9    C     C_R   0.715572 0.511511 0.491277 0.031289
C10   C     C_R   0.281037 0.480046 0.503890 0.024807
C11   C     C_R   0.623663 0.527233 0.458584 -0.057647
C12   C     C_R   0.119536 0.687824 0.486768 0.575565
C13   C     C_R   0.369693 0.457209 0.532832 -0.053309
C14   C     C_R   0.612036 0.585598 0.366359 0.026591
C15   C     C_R   0.380019 0.394872 0.623243 0.026445
C16   C     C_R   0.000854 0.500299 0.668929 0.542389
C17   C     C_R   0.999330 0.500122 0.331017 0.538867
C18   C     C_R   0.542350 0.484491 0.513789 -0.033961
C19   C     C_R   0.449176 0.495840 0.475353 -0.028613
C20   C     C_R   0.436770 0.542597 0.379428 -0.129423
C21   C     C_R   0.553423 0.434073 0.608144 -0.120066
C22   C     C_R   0.514911 0.584708 0.323603 0.260875
C23   C     C_R   0.636234 0.076206 0.531050 -0.012577
C24   C     C_R   0.472692 0.382256 0.659589 0.258385
C25   C     C_1   0.002036 0.501082 0.771399 -0.041549
C26   C     C_1   0.998488 0.500557 0.228353 -0.060104
C27   C     C_1   0.001775 0.501588 0.856655 -0.056143
C28   C     C_1   0.998884 0.500945 0.142929 -0.068469
C29   C     C_1   0.000877 0.501620 0.957125 -0.019752
C30   C     C_1   0.999922 0.501395 0.042384 -0.021846
C31   C     C_R   0.808332 0.203640 0.519874 -0.048498
C32   C     C_R   0.186611 0.795144 0.490521 -0.040242
C33   C     C_R   0.778649 0.024112 0.559131 0.240685
C34   C     C_R   0.358954 0.921048 0.512555 -0.013649
C35   C     C_R   0.217767 0.963202 0.520043 0.241706
C36   C     C_R   0.844053 0.125907 0.542904 -0.173394
C37   C     C_R   0.151709 0.862969 0.509849 -0.173008
C38   C     C_R   0.702922 0.177794 0.505072 0.222989
C39   C     C_R   0.288799 0.827759 0.482958 0.224834
C40   C     C_3   0.319738 0.811511 0.341397 -0.018717
C41   C     C_3   0.345615 0.746708 0.291658 -0.359720
C42   C     C_3   0.640607 0.247466 0.359723 0.002433
C43   C     C_3   0.606280 0.333075 0.309242 -0.363142
C44   C     C_3   0.814822 0.908796 0.508576 -0.023525
C45   C     C_R   0.674513 0.998625 0.553553 0.009278
C46   C     C_3   0.823363 0.806388 0.544098 -0.362034
C47   C     C_3   0.144158 0.073516 0.444287 -0.024797
C48   C     C_3   0.121038 0.160650 0.457821 -0.376308
C49   C     C_3   0.415261 0.557857 0.174086 -0.014139
C50   C     C_3   0.422895 0.590283 0.066605 -0.367663
C51   C     C_3   0.511338 0.248521 0.748795 -0.006011
C52   C     C_3   0.539576 0.201142 0.851216 -0.364546
C53   C     C_R   0.132206 0.325312 0.705972 0.103002
C54   C     C_R   0.143694 0.365862 0.789946 -0.079082
C55   C     C_R   0.079392 0.311625 0.859199 -0.121863
C56   C     C_R   0.322149 0.992109 0.523600 0.013307
C57   C     C_R   0.004761 0.215460 0.846659 -0.111713
C58   C     C_R   0.996823 0.172022 0.766668 -0.111302
C59   C     C_R   0.062090 0.225811 0.698270 -0.071007
C60   C     C_R   0.876997 0.690639 0.306295 0.102518
C61   C     C_R   0.883411 0.662383 0.221458 -0.072456
C62   C     C_R   0.959542 0.725660 0.165911 -0.117556
C63   C     C_R   0.028173 0.819232 0.192669 -0.115976
C64   C     C_R   0.019256 0.850580 0.273669 -0.122505
C65   C     C_R   0.942797 0.787599 0.329120 -0.074853
C66   C     C_R   0.695646 0.718792 0.231868 0.092127
C67   C     C_R   0.531734 0.048902 0.531629 0.030479
C68   C     C_R   0.706710 0.815626 0.242857 -0.062657
C69   C     C_R   0.706590 0.889545 0.161687 -0.107233
C70   C     C_R   0.695385 0.867152 0.069094 -0.100242
C71   C     C_R   0.684021 0.770712 0.057583 -0.107666
C72   C     C_R   0.683878 0.696566 0.138632 -0.052387
C73   C     C_R   0.296776 0.269909 0.762453 0.074716
C74   C     C_R   0.326928 0.296911 0.855945 -0.031016
C75   C     C_R   0.316918 0.221592 0.937291 -0.113044
C76   C     C_R   0.277108 0.119141 0.925827 -0.119496
C77   C     C_R   0.248012 0.091908 0.832982 -0.111075
C78   C     C_R   0.464458 0.946226 0.529339 0.029280
C79   C     C_R   0.257636 0.166964 0.751478 -0.101179
C80   C     C_R   0.504467 0.870743 0.552625 -0.123479
Cu1   Cu    Cu3+1 0.081740 0.475690 0.523180 0.941726
Cu2   Cu    Cu3+1 0.918260 0.524310 0.476820 0.936603
H1    H     H_    0.634872 0.835808 0.588776 0.153256
H2    H     H_    0.723932 0.456901 0.553437 0.143134
H3    H     H_    0.378080 0.890494 0.332161 0.126428
H4    H     H_    0.244583 0.811671 0.304854 0.126748
H5    H     H_    0.285798 0.668731 0.295122 0.144009
H6    H     H_    0.350754 0.780319 0.214424 0.104728
H7    H     H_    0.419330 0.743271 0.327573 0.179608
H8    H     H_    0.577903 0.173861 0.344719 0.123089
H9    H     H_    0.707293 0.257463 0.328669 0.122863
H10   H     H_    0.669429 0.407753 0.317892 0.173495
H11   H     H_    0.582004 0.327908 0.230756 0.080114
H12   H     H_    0.364402 0.146110 0.547999 0.144353
H13   H     H_    0.541954 0.327603 0.340814 0.153003
H14   H     H_    0.878621 0.960273 0.468536 0.129843
H15   H     H_    0.742490 0.895664 0.457870 0.114884
H16   H     H_    0.766398 0.757566 0.592413 0.162472
H17   H     H_    0.808860 0.767018 0.481733 0.096149
H18   H     H_    0.900026 0.817195 0.584385 0.162774
H19   H     H_    0.073058 0.015985 0.411943 0.122342
H20   H     H_    0.200628 0.104631 0.393329 0.121822
H21   H     H_    0.189721 0.218244 0.493020 0.152572
H22   H     H_    0.094523 0.197346 0.386462 0.099036
H23   H     H_    0.365312 0.545490 0.344945 0.084281
H24   H     H_    0.060806 0.130658 0.503656 0.149145
H25   H     H_    0.342925 0.557440 0.184480 0.127012
H26   H     H_    0.413853 0.479231 0.194752 0.116111
H27   H     H_    0.488755 0.582039 0.050779 0.143669
H28   H     H_    0.353623 0.541286 0.023785 0.087896
H29   H     H_    0.431029 0.670695 0.044449 0.170012
H30   H     H_    0.575502 0.269462 0.709361 0.115609
H31   H     H_    0.443402 0.190457 0.713269 0.137731
H32   H     H_    0.477167 0.176571 0.893580 0.171133
H33   H     H_    0.554694 0.133848 0.848821 0.094485
H34   H     H_    0.625630 0.434923 0.645718 0.107847
H35   H     H_    0.608466 0.257301 0.887727 0.154275
H36   H     H_    0.203143 0.439107 0.801910 0.098049
H37   H     H_    0.088231 0.343690 0.923117 0.111097
H38   H     H_    0.955173 0.173404 0.900366 0.109276
H39   H     H_    0.942414 0.095469 0.759308 0.141275
H40   H     H_    0.063060 0.188260 0.642525 0.093365
H41   H     H_    0.829597 0.590782 0.198813 0.095651
H42   H     H_    0.964873 0.702384 0.101759 0.115591
H43   H     H_    0.087229 0.868177 0.149754 0.099838
H44   H     H_    0.071164 0.924157 0.292801 0.087285
H45   H     H_    0.073349 0.838640 0.517151 0.137289
H46   H     H_    0.934999 0.814521 0.389604 0.080200
H47   H     H_    0.715544 0.833624 0.314121 0.076288
H48   H     H_    0.715265 0.964189 0.170580 0.092813
H49   H     H_    0.695320 0.924438 0.006285 0.103779
H50   H     H_    0.674894 0.753250 0.985850 0.103491
H51   H     H_    0.673986 0.621764 0.128885 0.084139
H52   H     H_    0.356664 0.375978 0.865507 0.100021
H53   H     H_    0.339611 0.242603 0.009195 0.092639
H54   H     H_    0.269231 0.060912 0.988869 0.098753
H55   H     H_    0.217377 0.012613 0.824157 0.123379
H56   H     H_    0.922714 0.143638 0.546069 0.130064
H57   H     H_    0.233327 0.145073 0.679905 0.146024
H58   H     H_    0.456848 0.790759 0.565093 0.176890
H59   H     H_    0.541697 0.194671 0.556144 0.165031
H60   H     H_    0.273253 0.533648 0.440603 0.143958
N1    N     N_R   0.795420 0.560790 0.441960 -0.244340
N2    N     N_R   0.204580 0.439210 0.558040 -0.240255
O1    O     O_R   0.977910 0.338120 0.530560 -0.507494
O2    O     O_3   0.665242 0.251393 0.460242 -0.557872
O3    O     O_3   0.818716 0.950618 0.589418 -0.560401
O4    O     O_3   0.181202 0.030149 0.535220 -0.574079
O5    O     O_3   0.497471 0.628184 0.227777 -0.558768
O6    O     O_3   0.491190 0.333612 0.752618 -0.558271
O7    O     O_R   0.022090 0.661880 0.469440 -0.505859
O8    O     O_R   0.839850 0.379180 0.491410 -0.437562
O9    O     O_R   0.160150 0.620820 0.508590 -0.441196
O10   O     O_R   0.069040 0.479460 0.643530 -0.481975
O11   O     O_R   0.930960 0.520540 0.356470 -0.485665
O12   O     O_R   0.930990 0.520530 0.604380 -0.490961
O13   O     O_R   0.069010 0.479470 0.395620 -0.491449
O14   O     O_3   0.318103 0.770796 0.440622 -0.559395

loop_
_geom_bond_atom_site_label_1
_geom_bond_atom_site_label_2
_ccdc_geom_bond_type
C66   C68   A    
C46   H17   S    
C11   C18   A    
C34   C56   A    
C51   H30   S    
C23   C45   A    
C64   H44   S    
C27   C29   S    
C18   C21   A    
C33   C45   A    
C73   C74   A    
C1    O1    A    
C19   C20   A    
C50   H28   S    
C12   O9    A    
C44   O3    S    
C7    N1    A    
Cu1   Cu2   S    
C53   C59   A    
C49   H25   S    
C55   H37   S    
C53   C54   A    
C29   C30   T    
C47   H19   S    
C17   C26   S    
C40   O14   S    
C35   C37   A    
C77   H55   S    
C18   C19   A    
C11   C14   A    
C75   H53   S    
C40   H4    S    
C48   H22   S    
C1    C31   S    
C33   C36   A    
Cu1   O9    S    
C1    O8    A    
C42   H9    S    
C10   H60   S    
C32   C39   A    
C23   C67   A    
C38   O2    S    
C33   O3    S    
C6    C15   A    
C47   O4    S    
C68   H47   S    
Cu1   N2    S    
C66   C72   A    
C51   O6    S    
C68   C69   A    
C16   O12   A    
C43   H13   S    
C70   C71   A    
C17   O13   A    
C34   C78   A    
Cu2   O7    S    
Cu2   O12   S    
C52   H35   S    
C59   H40   S    
C71   H50   S    
C22   O5    S    
C47   H20   S    
C4    C56   A    
C12   O7    A    
C61   C62   A    
C67   C78   A    
C21   H34   S    
C3    C80   A    
C62   H42   S    
C44   C46   S    
C49   H26   S    
C77   C79   A    
C9    N1    A    
C41   H5    S    
C48   H24   S    
Cu1   O13   S    
C74   C75   A    
C13   C19   A    
C51   C52   S    
C65   H46   S    
C76   C77   A    
C2    C67   A    
C5    C7    A    
C69   H48   S    
C6    C8    A    
C58   C59   A    
C80   H58   S    
C48   H21   S    
C72   H51   S    
C3    C45   A    
C50   H27   S    
Cu1   O10   S    
C34   C39   A    
C60   C61   A    
C42   H8    S    
C40   H3    S    
C2    C4    A    
C75   C76   A    
C79   H57   S    
C62   C63   A    
C44   H14   S    
C44   H15   S    
C47   C48   S    
C73   C79   A    
C8    N2    A    
C10   N2    A    
C32   C37   A    
C9    C11   A    
C5    C14   A    
C63   H43   S    
C24   O6    S    
C57   H38   S    
C4    H12   S    
Cu2   O11   S    
C40   C41   S    
C70   H49   S    
C20   C22   A    
C60   C65   A    
Cu1   O1    S    
C55   C57   A    
C39   O14   S    
C3    H1    S    
C42   C43   S    
C17   O11   A    
C54   H36   S    
C7    C60   S    
C6    C73   S    
C20   H23   S    
C52   H33   S    
C16   C25   S    
C41   H6    S    
C46   H18   S    
C54   C55   A    
C15   C24   A    
C58   H39   S    
C41   H7    S    
C51   H31   S    
Cu2   N1    S    
C10   C13   A    
C8    C53   S    
C35   C56   A    
C52   H32   S    
C25   C27   T    
C23   C38   A    
C26   C28   T    
C43   H10   S    
C31   C38   A    
C49   O5    S    
C61   H41   S    
C64   C65   A    
C14   C22   A    
C13   C15   A    
C71   C72   A    
C5    C66   S    
C16   O10   A    
C57   C58   A    
C74   H52   S    
C28   C30   S    
C50   H29   S    
C43   H11   S    
C78   C80   A    
C35   O4    S    
C46   H16   S    
C69   C70   A    
Cu2   O8    S    
C9    H2    S    
C63   C64   A    
C76   H54   S    
C49   C50   S    
C21   C24   A    
C2    H59   S    
C31   C36   A    
C36   H56   S    
C12   C32   S    
C37   H45   S    
C42   O2    S    
