data_mof_unit_3170.cif
_audit_creation_date              2012-12-11T14:25:51-0500
_audit_creation_method            fapswitch 2.2
_symmetry_space_group_name_H-M    P1
_symmetry_Int_Tables_number       1
_space_group_crystal_system       triclinic
_cell_length_a                    6.947641
_cell_length_b                    14.815622
_cell_length_c                    16.13837
_cell_angle_alpha                 90.404347
_cell_angle_beta                  89.76116
_cell_angle_gamma                 89.819748
_cell_volume                      1661.11671661

loop_
_atom_site_label
_atom_site_type_symbol
_atom_type_description
_atom_site_fract_x
_atom_site_fract_y
_atom_site_fract_z
_atom_type_partial_charge
O1    O     O_R   0.494490 0.416160 0.413410 -0.552944
O2    O     O_R   0.823830 0.407240 0.585990 -0.544271
O3    O     O_R   0.994160 0.583840 0.586590 -0.536191
C1    C     C_R   0.654140 0.382988 0.611644 0.716821
O4    O     O_R   0.824200 0.405280 0.414020 -0.512528
O5    O     O_R   0.994530 0.581860 0.413390 -0.540127
C2    C     C_R   0.655821 0.382212 0.386201 0.774689
O6    O     O_R   0.494110 0.418140 0.586610 -0.547509
O7    O     O_3   0.660810 0.557940 0.500000 -0.361521
V1    V     V_3+5 0.935650 0.489250 0.500000 1.465257
O8    O     O_R   0.324250 0.592760 0.414010 -0.545114
C3    C     C_R   0.155634 0.614205 0.385590 0.740363
O9    O     O_R   0.323880 0.594720 0.585980 -0.534452
C4    C     C_R   0.153577 0.615982 0.615630 0.723066
V2    V     V_3+5 0.435660 0.510750 0.500000 1.428463
O10   O     O_3   0.160630 0.442060 0.500000 -0.371316
C5    C     C_3   0.932028 0.680272 0.731792 0.361104
C6    C     C_3   0.919427 0.755705 0.801048 -0.183735
H1    H     H_    0.810977 0.807146 0.784433 0.028071
H2    H     H_    0.064500 0.801008 0.608324 0.163125
C7    C     C_3   0.173932 0.781753 0.654689 -0.493464
C8    C     C_3   0.290388 0.664370 0.754027 -0.333705
C9    C     C_3   0.136019 0.684716 0.687094 -0.061324
H3    H     H_    0.434839 0.671876 0.727207 0.126285
H4    H     H_    0.279576 0.592655 0.772775 0.204842
C10   C     C_3   0.119025 0.803979 0.812875 -0.151659
C11   C     C_3   0.185223 0.849085 0.729057 0.243771
C12   C     C_3   0.273019 0.727934 0.831063 0.260968
H5    H     H_    0.417614 0.759284 0.839317 0.031584
H6    H     H_    0.312486 0.783205 0.620077 0.182764
H7    H     H_    0.342446 0.860873 0.736974 0.110303
C13   C     C_2   0.985884 0.708330 0.281582 -0.132738
C14   C     C_2   0.150668 0.681254 0.318016 -0.307192
H8    H     H_    0.850133 0.680339 0.302709 0.137166
H9    H     H_    0.288300 0.707880 0.298453 0.126949
C15   C     C_2   0.973481 0.775300 0.213066 -0.132260
C16   C     C_2   0.126181 0.815537 0.177465 -0.309493
H10   H     H_    0.829953 0.791447 0.191125 0.137802
H11   H     H_    0.270925 0.800370 0.197736 0.127126
C17   C     C_2   0.779966 0.205975 0.779038 -0.138753
C18   C     C_2   0.614870 0.176931 0.813820 -0.318964
H12   H     H_    0.916146 0.178902 0.800616 0.146596
H13   H     H_    0.476936 0.203225 0.794340 0.135469
C19   C     C_2   0.791544 0.274526 0.712127 -0.143692
C20   C     C_2   0.637821 0.312359 0.675273 -0.309047
H14   H     H_    0.935156 0.294960 0.693373 0.137823
H15   H     H_    0.492994 0.292861 0.692153 0.136266
C21   C     C_2   0.772745 0.192317 0.223851 -0.249140
C22   C     C_2   0.612140 0.176124 0.179277 -0.365689
H16   H     H_    0.899316 0.154671 0.204985 0.152402
H17   H     H_    0.476303 0.207123 0.196447 0.133064
C23   C     C_2   0.785818 0.254234 0.299293 0.456312
C24   C     C_2   0.646109 0.316270 0.316104 -0.372441
H18   H     H_    0.521038 0.322080 0.276693 0.082113
O11   O     O_R   0.770850 0.076180 0.907410 -0.538803
O12   O     O_R   0.440600 0.088970 0.079950 -0.548723
O13   O     O_R   0.270430 0.912340 0.080550 -0.550942
C25   C     C_R   0.608533 0.110291 0.109202 0.771143
O14   O     O_R   0.441120 0.087010 0.907980 -0.539112
O15   O     O_R   0.270950 0.910370 0.907350 -0.551868
C26   C     C_R   0.609871 0.108756 0.880000 0.745453
O16   O     O_R   0.770320 0.078150 0.080620 -0.537632
O17   O     O_3   0.604200 0.936340 0.994000 -0.380065
V3    V     V_3+5 0.329300 0.004970 0.993950 1.396238
O18   O     O_R   0.941240 0.899420 0.907920 -0.547121
C27   C     C_R   0.110548 0.875842 0.880827 0.710392
O19   O     O_R   0.940720 0.901380 0.079890 -0.536411
C28   C     C_R   0.109588 0.881685 0.109622 0.722869
V4    V     V_3+5 0.829310 0.983370 0.993880 1.413478
O20   O     O_3   0.104280 0.052120 0.993920 -0.368882
C29   C     C_1   0.780127 0.700883 0.669495 0.159898
N1    N     N_1   0.667642 0.718457 0.619403 -0.376269
O21   O     O_3   0.923666 0.592909 0.770201 -0.572652
C30   C     C_3   0.761814 0.536460 0.758301 0.083204
H19   H     H_    0.820871 0.469364 0.741382 0.151668
H20   H     H_    0.662647 0.555284 0.707867 0.108582
C31   C     C_3   0.652197 0.525818 0.840164 -0.322584
H21   H     H_    0.755916 0.514580 0.891379 0.226673
H22   H     H_    0.570952 0.588509 0.853730 0.211382
C32   C     C_3   0.511707 0.446874 0.837999 -0.838972
H23   H     H_    0.421923 0.448675 0.781291 0.225371
H24   H     H_    0.415651 0.450311 0.893110 0.244663
H25   H     H_    0.592121 0.382162 0.839821 0.247317
O22   O     O_3   0.932800 0.246707 0.358211 -0.563821
C33   C     C_3   0.105321 0.206542 0.329170 0.095023
H26   H     H_    0.225463 0.237782 0.364277 0.143041
H27   H     H_    0.137662 0.222115 0.263252 0.087398
C34   C     C_3   0.106872 0.105122 0.348104 -0.324331
H28   H     H_    0.110016 0.095711 0.416376 0.198446
H29   H     H_    0.974178 0.072430 0.324543 0.196217
C35   C     C_3   0.281387 0.058177 0.309424 -0.834065
H30   H     H_    0.275154 0.062738 0.240844 0.233017
H31   H     H_    0.281617 0.985760 0.326712 0.233702
H32   H     H_    0.416585 0.089582 0.331975 0.237717
C36   C     C_1   0.842922 0.721297 0.880716 0.442841
N2    N     N_1   0.785385 0.696025 0.943802 -0.423963
O23   O     O_3   0.115109 0.937698 0.712398 -0.569035
C37   C     C_3   0.915391 0.944228 0.697096 0.098238
H33   H     H_    0.839947 0.960786 0.756114 0.130615
H34   H     H_    0.852088 0.882529 0.669906 0.123849
C38   C     C_3   0.880364 0.020619 0.635831 -0.301686
H35   H     H_    0.940756 0.084413 0.660984 0.205955
H36   H     H_    0.955573 0.004847 0.576505 0.196272
C39   C     C_3   0.665924 0.033387 0.618871 -0.802404
H37   H     H_    0.605408 0.971589 0.589717 0.234487
H38   H     H_    0.645193 0.090950 0.576088 0.236466
H39   H     H_    0.586718 0.047893 0.677381 0.238838
O24   O     O_3   0.223906 0.672789 0.899636 -0.542839
C40   C     C_3   0.285216 0.709009 0.976271 0.146593
H40   H     H_    0.168657 0.751859 0.001888 0.112732
H41   H     H_    0.418505 0.750088 0.971851 0.097140
C41   C     C_3   0.324668 0.632308 0.036839 -0.306172
H42   H     H_    0.436213 0.586452 0.010310 0.200103
H43   H     H_    0.381390 0.661204 0.095580 0.145220
C42   C     C_3   0.143138 0.578323 0.056079 -0.668581
H44   H     H_    0.030493 0.623036 0.083273 0.229628
H45   H     H_    0.177569 0.524713 0.101451 0.188852
H46   H     H_    0.086754 0.545927 0.998873 0.254922

loop_
_geom_bond_atom_site_label_1
_geom_bond_atom_site_label_2
_ccdc_geom_bond_type
C25   O16   A    
C17   C18   D    
C38   H35   S    
O21   C30   S    
C36   N2    T    
C6    C10   S    
C18   C26   S    
C1    O6    A    
C41   H43   S    
O23   C37   S    
C24   H18   S    
C23   C24   D    
C10   C11   S    
C5    C9    S    
C30   H20   S    
C13   C15   S    
C12   H5    S    
C40   H41   S    
O5    C3    A    
C31   C32   S    
V2    O10   S    
C16   C28   S    
O24   C40   S    
C6    H1    S    
C23   O22   S    
C39   H37   S    
O8    V2    S    
O17   V4    S    
C22   H17   S    
C30   C31   S    
O12   V3    S    
O1    V2    S    
V3    O20   S    
O7    V1    S    
C20   H15   S    
C7    C11   S    
O15   C27   A    
C38   H36   S    
C8    C12   S    
O9    C4    A    
C5    O21   S    
C6    C36   S    
C18   H13   S    
C32   H25   S    
C39   H38   S    
C41   H42   S    
C19   H14   S    
C1    C20   S    
C31   H22   S    
O14   C26   A    
C30   H19   S    
C33   H27   S    
C11   H7    S    
O19   C28   A    
C10   C27   S    
C41   C42   S    
O22   C33   S    
C32   H24   S    
C40   C41   S    
C35   H30   S    
O4    C2    A    
C42   H45   S    
C31   H21   S    
C8    H4    S    
C22   C25   S    
O16   V4    S    
O19   V4    S    
C13   H8    S    
C4    C9    S    
O2    C1    A    
C35   H31   S    
C17   H12   S    
C34   C35   S    
C21   C23   S    
C42   H46   S    
C5    C6    S    
O14   V3    S    
H2    C7    S    
C33   H26   S    
O11   V4    S    
O3    C4    A    
C21   C22   D    
C34   H29   S    
C5    C29   S    
C38   C39   S    
C37   H34   S    
C7    C9    S    
C8    H3    S    
C2    C24   S    
O13   C28   A    
C15   H10   S    
O2    V1    S    
C19   C20   D    
O13   V3    S    
C33   C34   S    
C11   O23   S    
O1    C2    A    
C32   H23   S    
O5    V1    S    
O8    C3    A    
O6    V2    S    
C37   C38   S    
C7    H6    S    
C10   C12   S    
O15   V3    S    
C13   C14   D    
O9    V2    S    
O7    V2    S    
O4    V1    S    
C16   H11   S    
O3    V1    S    
V1    O10   S    
C40   H40   S    
C35   H32   S    
C12   O24   S    
O18   V4    S    
O11   C26   A    
C21   H16   S    
C14   H9    S    
O12   C25   A    
O18   C27   A    
V4    O20   S    
O17   V3    S    
C17   C19   S    
C29   N1    T    
C34   H28   S    
C15   C16   D    
C37   H33   S    
C8    C9    S    
C3    C14   S    
C39   H39   S    
C42   H44   S    
