data_mof_unit_1206.cif
_audit_creation_date              2012-12-11T14:30:48-0500
_audit_creation_method            fapswitch 2.2
_symmetry_space_group_name_H-M    P1
_symmetry_Int_Tables_number       1
_space_group_crystal_system       triclinic
_cell_length_a                    17.420827
_cell_length_b                    24.384446
_cell_length_c                    14.91966
_cell_angle_alpha                 89.961865
_cell_angle_beta                  124.943956
_cell_angle_gamma                 90.107276
_cell_volume                      5195.18999619

loop_
_atom_site_label
_atom_site_type_symbol
_atom_type_description
_atom_site_fract_x
_atom_site_fract_y
_atom_site_fract_z
_atom_type_partial_charge
C1    C     C_R   0.834280 0.646237 0.908110 -0.163405
C2    C     C_R   0.006246 0.502272 0.681725 0.136349
C3    C     C_3   0.124790 0.798828 0.216428 -0.958245
C4    C     C_3   0.469269 0.278270 0.882699 0.271699
C5    C     C_3   0.366811 0.268946 0.790979 -0.933260
C6    C     C_3   0.521996 0.310139 0.166304 0.267576
C7    C     C_3   0.624844 0.298761 0.216644 -0.957932
C8    C     C_R   0.571523 0.001939 0.368386 0.143312
C9    C     C_R   0.506261 0.002273 0.681737 0.136348
C10   C     C_R   0.688327 0.502157 0.651487 0.116280
C11   C     C_R   0.323907 0.500432 0.305179 0.096076
C12   C     C_R   0.188321 0.002157 0.651496 0.116286
C13   C     C_R   0.823907 0.000432 0.305178 0.096070
C14   C     C_3   0.516949 0.473920 0.552755 0.472510
C15   C     C_3   0.484351 0.449409 0.442714 0.459100
C16   C     C_3   0.016942 0.973919 0.552759 0.472535
C17   C     C_R   0.159480 0.649206 0.092806 -0.157764
C18   C     C_3   0.984348 0.949409 0.442719 0.459087
C19   C     C_3   0.455889 0.524988 0.500123 -0.371159
C20   C     C_3   0.563036 0.478179 0.442745 -0.365452
C21   C     C_3   0.955882 0.024986 0.500126 -0.371156
C22   C     C_3   0.063035 0.978180 0.442756 -0.365468
C23   C     C_3   0.422147 0.499964 0.388632 0.030056
C24   C     C_3   0.595660 0.502540 0.554320 0.019904
C25   C     C_3   0.922145 0.999964 0.388636 0.030052
C26   C     C_3   0.095655 0.002540 0.554330 0.019903
C27   C     C_3   0.499499 0.529433 0.387473 -0.118342
C28   C     C_R   0.334301 0.146247 0.908107 -0.163438
C29   C     C_3   0.535111 0.554001 0.500876 -0.134741
C30   C     C_3   0.999500 0.029435 0.387484 -0.118333
C31   C     C_3   0.035107 0.054000 0.500886 -0.134746
C32   C     C_2   0.117842 0.772539 0.929647 0.576340
C33   C     C_2   0.876132 0.767394 0.068344 0.590013
C34   C     C_2   0.617835 0.272543 0.929648 0.576457
C35   C     C_2   0.376156 0.267410 0.068369 0.589988
C36   C     C_2   0.170027 0.732974 0.003455 -0.406646
C37   C     C_2   0.820185 0.725990 0.003593 -0.356556
C38   C     C_2   0.670014 0.232981 0.003467 -0.406667
C39   C     C_R   0.659475 0.149208 0.092809 -0.157880
C40   C     C_2   0.320225 0.226017 0.003563 -0.356488
C41   C     C_2   0.666062 0.319943 0.922505 -0.238119
C42   C     C_2   0.329318 0.315779 0.075452 -0.339598
C43   C     C_2   0.166064 0.819942 0.922505 -0.238057
C44   C     C_2   0.829303 0.815764 0.075442 -0.339796
C45   C     C_R   0.905973 0.377832 0.095475 -0.159356
C46   C     C_R   0.090000 0.372339 0.904865 -0.160513
C47   C     C_R   0.405974 0.877832 0.095475 -0.159354
C48   C     C_R   0.589992 0.872332 0.904863 -0.160529
C49   C     C_2   0.744526 0.339776 0.011776 -0.272627
C50   C     C_R   0.817178 0.365088 0.005731 0.187418
C51   C     C_2   0.248135 0.332446 0.986439 -0.233784
C52   C     C_2   0.244527 0.839774 0.011777 -0.272631
C53   C     C_2   0.748115 0.832426 0.986432 -0.233666
C54   C     C_2   0.114654 0.458654 0.536793 -0.124794
C55   C     C_2   0.094017 0.462633 0.618439 -0.112798
C56   C     C_2   0.614659 0.958654 0.536795 -0.124787
C57   C     C_2   0.594028 0.962634 0.618447 -0.112796
C58   C     C_2   0.112926 0.503683 0.484661 -0.210822
C59   C     C_2   0.038057 0.502620 0.611648 -0.195664
C60   C     C_2   0.612929 0.003683 0.484662 -0.210820
C61   C     C_R   0.177443 0.358580 0.993779 0.186240
C62   C     C_2   0.538074 0.002621 0.611663 -0.195659
C63   C     C_R   0.051441 0.547153 0.303479 -0.159140
C64   C     C_R   0.993571 0.547873 0.726070 -0.147240
C65   C     C_R   0.551441 0.047153 0.303479 -0.159126
C66   C     C_R   0.493580 0.047873 0.726078 -0.147243
C67   C     C_R   0.739506 0.455971 0.704298 -0.097665
C68   C     C_R   0.267362 0.455190 0.273013 -0.147340
C69   C     C_R   0.239503 0.955971 0.704303 -0.097680
C70   C     C_R   0.767362 0.955190 0.273010 -0.147342
C71   C     C_R   0.054203 0.456151 0.305378 -0.130374
C72   C     C_R   0.317179 0.865088 0.005732 0.187421
C73   C     C_R   0.986597 0.456304 0.719132 -0.134591
C74   C     C_R   0.554203 0.956151 0.305378 -0.130370
C75   C     C_R   0.486607 0.956304 0.719140 -0.134576
C76   C     C_R   0.738389 0.547797 0.706825 -0.135523
C77   C     C_R   0.269743 0.546979 0.266381 -0.143508
C78   C     C_R   0.238386 0.047797 0.706831 -0.135514
C79   C     C_R   0.769743 0.046979 0.266381 -0.143489
C80   C     C_R   0.813589 0.377351 0.912520 -0.112742
C81   C     C_R   0.182461 0.372281 0.086892 -0.119634
C82   C     C_R   0.313589 0.877350 0.912520 -0.112743
C83   C     C_R   0.677433 0.858570 0.993776 0.186216
C84   C     C_R   0.682457 0.872277 0.086891 -0.119631
C85   C     C_R   0.927437 0.645630 0.091829 -0.057439
C86   C     C_R   0.067350 0.649209 0.910079 -0.094619
C87   C     C_R   0.427456 0.145642 0.091825 -0.057492
C88   C     C_R   0.567343 0.149213 0.910082 -0.094567
C89   C     C_R   0.855898 0.673218 0.001545 0.176319
C90   C     C_R   0.135456 0.678460 0.001049 0.176439
C91   C     C_R   0.355933 0.173238 0.001538 0.176303
C92   C     C_R   0.635444 0.178465 0.001054 0.176405
C93   C     C_3   0.444902 0.434032 0.626247 0.257989
C94   C     C_R   0.071523 0.501939 0.368386 0.143317
C95   C     C_3   0.458154 0.392925 0.710506 -0.876332
C96   C     C_3   0.528153 0.358402 0.465622 0.253597
C97   C     C_3   0.491140 0.299987 0.435596 -0.905570
C98   C     C_3   0.944884 0.934019 0.626224 0.257953
C99   C     C_3   0.958129 0.892901 0.710464 -0.876288
C100  C     C_3   0.028150 0.858402 0.465614 0.253635
C101  C     C_3   0.991128 0.799988 0.435633 -0.905693
C102  C     C_3   0.969282 0.778250 0.882727 0.271701
C103  C     C_3   0.866824 0.768922 0.791018 -0.933253
C104  C     C_3   0.021947 0.810163 0.166303 0.267897
H1    H     H_    0.788657 0.660408 0.824681 0.102414
H2    H     H_    0.744511 0.729957 0.950385 0.124819
H3    H     H_    0.654486 0.272743 0.290571 0.261566
H4    H     H_    0.743558 0.239510 0.067583 0.133037
H5    H     H_    0.244561 0.229999 0.950273 0.124788
H6    H     H_    0.644365 0.332224 0.841354 0.164045
H7    H     H_    0.353904 0.330862 0.156071 0.159770
H8    H     H_    0.144363 0.832226 0.841354 0.164046
H9    H     H_    0.853898 0.830851 0.156061 0.159716
H10   H     H_    0.762550 0.329738 0.092683 0.135672
H11   H     H_    0.227545 0.319719 0.905627 0.126384
H12   H     H_    0.262554 0.829733 0.092683 0.135677
H13   H     H_    0.200795 0.664026 0.176162 0.104419
H14   H     H_    0.727514 0.819687 0.905621 0.126390
H15   H     H_    0.111029 0.417946 0.505364 0.118120
H16   H     H_    0.114525 0.428749 0.675194 0.122283
H17   H     H_    0.611032 0.917946 0.505365 0.118117
H18   H     H_    0.614533 0.928748 0.675198 0.122284
H19   H     H_    0.122746 0.543969 0.520943 0.135708
H20   H     H_    0.014427 0.536271 0.553995 0.135572
H21   H     H_    0.622753 0.043969 0.520945 0.135710
H22   H     H_    0.514446 0.036274 0.554013 0.135573
H23   H     H_    0.931943 0.373380 0.180461 0.102747
H24   H     H_    0.288688 0.160417 0.824677 0.102414
H25   H     H_    0.061890 0.362249 0.821370 0.090187
H26   H     H_    0.431944 0.873380 0.180462 0.102751
H27   H     H_    0.561877 0.862238 0.821368 0.090185
H28   H     H_    0.069561 0.589172 0.331244 0.095024
H29   H     H_    0.998317 0.590379 0.709337 0.097758
H30   H     H_    0.569562 0.089172 0.331244 0.095037
H31   H     H_    0.498329 0.090380 0.709348 0.097761
H32   H     H_    0.723369 0.414267 0.674280 0.071407
H33   H     H_    0.286585 0.414172 0.304880 0.149789
H34   H     H_    0.223365 0.914268 0.674284 0.071408
H35   H     H_    0.700790 0.164025 0.176166 0.104401
H36   H     H_    0.786584 0.914171 0.304875 0.149794
H37   H     H_    0.075566 0.414592 0.334257 0.083398
H38   H     H_    0.977599 0.415150 0.688180 0.087706
H39   H     H_    0.575567 0.914592 0.334257 0.083396
H40   H     H_    0.477614 0.915150 0.688190 0.087703
H41   H     H_    0.722363 0.590191 0.681600 0.089014
H42   H     H_    0.292540 0.589176 0.285642 0.104154
H43   H     H_    0.222358 0.090191 0.681607 0.089015
H44   H     H_    0.792540 0.089176 0.285643 0.104165
H45   H     H_    0.754819 0.372099 0.828787 0.105213
H46   H     H_    0.488354 0.552256 0.316528 0.126555
H47   H     H_    0.238213 0.362099 0.169396 0.110280
H48   H     H_    0.254820 0.872097 0.828787 0.105211
H49   H     H_    0.738209 0.862093 0.169395 0.110278
H50   H     H_    0.966391 0.658292 0.176512 0.130971
H51   H     H_    0.026183 0.662942 0.826159 0.143433
H52   H     H_    0.466412 0.158302 0.176508 0.131096
H53   H     H_    0.526173 0.162947 0.826163 0.143430
H54   H     H_    0.409916 0.544372 0.520293 0.141010
H55   H     H_    0.610000 0.459940 0.422983 0.140413
H56   H     H_    0.909907 0.044368 0.520295 0.141018
H57   H     H_    0.558176 0.597051 0.526266 0.119428
H58   H     H_    0.110002 0.959941 0.422999 0.140411
H59   H     H_    0.392770 0.416660 0.543481 0.107360
H60   H     H_    0.416806 0.472533 0.636910 0.103516
H61   H     H_    0.512762 0.407633 0.794307 0.262743
H62   H     H_    0.391316 0.387874 0.702900 0.205806
H63   H     H_    0.479234 0.352650 0.696505 0.270281
H64   H     H_    0.565380 0.363108 0.555597 0.126391
H65   H     H_    0.578363 0.364648 0.443088 0.088361
H66   H     H_    0.455113 0.293267 0.346484 0.255409
H67   H     H_    0.550128 0.270578 0.480724 0.212573
H68   H     H_    0.988357 0.052258 0.316542 0.126558
H69   H     H_    0.440975 0.292344 0.457584 0.258642
H70   H     H_    0.892765 0.916650 0.543452 0.107382
H71   H     H_    0.916776 0.972513 0.636885 0.103525
H72   H     H_    0.012707 0.907611 0.794270 0.262737
H73   H     H_    0.891281 0.887831 0.702824 0.205802
H74   H     H_    0.979240 0.852636 0.696476 0.270285
H75   H     H_    0.065410 0.863121 0.555590 0.126366
H76   H     H_    0.078330 0.864637 0.443034 0.088351
H77   H     H_    0.955050 0.793259 0.346516 0.255346
H78   H     H_    0.050116 0.770578 0.480732 0.212587
H79   H     H_    0.058170 0.097050 0.526279 0.119433
H80   H     H_    0.941006 0.792356 0.457688 0.258663
H81   H     H_    0.978992 0.822300 0.906883 0.095278
H82   H     H_    0.986470 0.752251 0.953394 0.135233
H83   H     H_    0.855628 0.725472 0.764112 0.252616
H84   H     H_    0.822254 0.778644 0.820046 0.211385
H85   H     H_    0.845983 0.795566 0.720201 0.257799
H86   H     H_    0.016820 0.831624 0.228438 0.114295
H87   H     H_    0.994963 0.837162 0.093768 0.085300
H88   H     H_    0.132435 0.777486 0.156296 0.253161
H89   H     H_    0.164299 0.838048 0.240263 0.217279
H90   H     H_    0.243573 0.739502 0.067562 0.133044
H91   H     H_    0.154521 0.772657 0.290158 0.261645
H92   H     H_    0.478984 0.322325 0.906835 0.095222
H93   H     H_    0.486446 0.252283 0.953374 0.135057
H94   H     H_    0.355609 0.225494 0.764079 0.252624
H95   H     H_    0.322235 0.278679 0.819995 0.211358
H96   H     H_    0.345983 0.295586 0.720161 0.257802
H97   H     H_    0.516800 0.331717 0.228267 0.114406
H98   H     H_    0.495116 0.337034 0.093685 0.085237
H99   H     H_    0.632554 0.277226 0.156714 0.253304
H100  H     H_    0.664381 0.337999 0.240269 0.217167
N1    N     N_R   0.892320 0.603520 0.941090 -0.043542
N2    N     N_R   0.973240 0.529450 0.794410 -0.042310
N3    N     N_R   0.526760 0.029450 0.205590 -0.041373
N4    N     N_R   0.473240 0.029450 0.794410 -0.042312
N5    N     N_R   0.819350 0.473090 0.793940 -0.045348
N6    N     N_R   0.180650 0.473090 0.206060 -0.045530
N7    N     N_R   0.319350 0.973090 0.793940 -0.045347
N8    N     N_R   0.680650 0.973090 0.206060 -0.045532
N9    N     N_R   0.027860 0.473090 0.206590 -0.041503
N10   N     N_R   0.972140 0.473090 0.793410 -0.041066
N11   N     N_R   0.527860 0.973090 0.206590 -0.041502
N12   N     N_R   0.107680 0.603520 0.058910 -0.041289
N13   N     N_R   0.472140 0.973090 0.793410 -0.041068
N14   N     N_R   0.818250 0.529450 0.792940 -0.041096
N15   N     N_R   0.181750 0.529450 0.207060 -0.039056
N16   N     N_R   0.318250 0.029450 0.792940 -0.041095
N17   N     N_R   0.681750 0.029450 0.207060 -0.039054
N18   N     N_R   0.896320 0.399020 0.944720 -0.049988
N19   N     N_R   0.103680 0.399020 0.055280 -0.047724
N20   N     N_R   0.396320 0.899020 0.944720 -0.049987
N21   N     N_R   0.603680 0.899020 0.055280 -0.047723
N22   N     N_R   0.949790 0.603520 0.054810 -0.056622
N23   N     N_R   0.392320 0.103520 0.941090 -0.043534
N24   N     N_R   0.050210 0.603520 0.945190 -0.054489
N25   N     N_R   0.449790 0.103520 0.054810 -0.056633
N26   N     N_R   0.550210 0.103520 0.945190 -0.054489
N27   N     N_R   0.607680 0.103520 0.058910 -0.041270
N28   N     N_R   0.953790 0.399020 0.058440 -0.044187
N29   N     N_R   0.046210 0.399020 0.941560 -0.041353
N30   N     N_R   0.453790 0.899020 0.058440 -0.044189
N31   N     N_R   0.546210 0.899020 0.941560 -0.041349
N32   N     N_R   0.026760 0.529450 0.205590 -0.041374
Ni1   Ni    Ni4+2 0.934100 0.565890 0.869590 0.212861
Ni2   Ni    Ni4+2 0.065900 0.565890 0.130410 0.217103
Ni3   Ni    Ni4+2 0.434100 0.065890 0.869590 0.212862
Ni4   Ni    Ni4+2 0.565900 0.065890 0.130410 0.217101
Ni5   Ni    Ni4+2 0.068420 0.436630 0.132700 0.208074
Ni6   Ni    Ni4+2 0.931580 0.436630 0.867300 0.208853
Ni7   Ni    Ni4+2 0.568420 0.936630 0.132700 0.208074
Ni8   Ni    Ni4+2 0.431580 0.936630 0.867300 0.208855
O1    O     O_3   0.531933 0.444321 0.642844 -0.644080
O2    O     O_3   0.452467 0.395209 0.407966 -0.660683
O3    O     O_3   0.031920 0.944318 0.642843 -0.644068
O4    O     O_3   0.952464 0.895211 0.407969 -0.660691
O5    O     O_3   0.024901 0.763974 0.845395 -0.644589
O6    O     O_3   0.972912 0.759847 0.136581 -0.648876
O7    O     O_3   0.524897 0.263976 0.845389 -0.644591
O8    O     O_3   0.472917 0.259843 0.136731 -0.648883

loop_
_geom_bond_atom_site_label_1
_geom_bond_atom_site_label_2
_ccdc_geom_bond_type
C3    C104  S    
C88   N26   A    
C74   H39   S    
C13   C79   A    
C70   H36   S    
C16   C21   S    
N22   Ni2   S    
C55   C59   D    
C74   N11   A    
C27   C29   S    
C102  O5    S    
C70   N8    A    
C54   C55   S    
C51   C61   S    
C96   H65   S    
C12   C69   A    
C6    C7    S    
C68   N6    A    
C46   H25   S    
N18   Ni6   S    
C5    H94   S    
C101  H77   S    
C57   C62   D    
C5    H95   S    
C71   C94   A    
C10   C67   A    
C39   N27   A    
N7    N16   A    
C21   C31   S    
C63   C94   A    
C58   H19   S    
C102  H82   S    
C8    C74   A    
C100  O4    S    
N5    N14   A    
C32   C36   D    
N15   Ni2   S    
C60   H21   S    
C11   C23   S    
C45   H23   S    
C99   H73   S    
N8    Ni7   S    
C87   C91   A    
C30   C31   S    
C22   H58   S    
C43   C52   D    
C1    H1    S    
C82   N20   A    
C13   C70   A    
C93   H59   S    
C100  H76   S    
C38   C92   S    
C69   H34   S    
C86   N24   A    
C56   C57   S    
C28   N23   A    
C14   C24   S    
C35   C42   S    
N20   N30   A    
C24   C29   S    
C100  C101  S    
C7    H99   S    
N19   N29   A    
C78   N16   A    
C63   N32   A    
C9    C66   A    
C10   C76   A    
C44   C53   D    
C41   C49   D    
C99   H72   S    
C20   C24   S    
C76   N14   A    
C20   H55   S    
C12   C78   A    
C96   H64   S    
C48   H27   S    
C34   O7    S    
C103  H85   S    
C45   N28   A    
C23   C27   S    
C28   C91   A    
C17   N12   A    
C11   C77   A    
C65   H30   S    
C17   H13   S    
C42   C51   D    
N8    N17   A    
C14   O1    S    
C31   H79   S    
N2    N10   A    
C15   C23   S    
C49   H10   S    
C57   H18   S    
N18   N28   A    
C8    C65   A    
C93   C95   S    
C18   C22   S    
C54   H15   S    
C88   H53   S    
C19   H54   S    
C13   C25   S    
C68   H33   S    
C102  C103  S    
C18   C25   S    
C84   N21   A    
C95   H61   S    
N4    Ni3   S    
C96   O2    S    
C2    C64   A    
C79   N17   A    
C5    H96   S    
C36   H90   S    
C55   H16   S    
C52   H12   S    
C16   C26   S    
C80   H45   S    
C81   N19   A    
C39   H35   S    
C102  H81   S    
C97   H69   S    
C17   C90   A    
N17   Ni4   S    
C35   C40   D    
C9    C62   S    
N21   N31   A    
C46   N29   A    
C88   C92   A    
C104  O6    S    
N6    Ni5   S    
C6    H97   S    
C53   C83   S    
C86   C90   A    
C62   H22   S    
C85   C89   A    
C53   H14   S    
N20   Ni8   S    
C46   C61   A    
C93   H60   S    
C10   C24   S    
C71   N9    A    
C104  H87   S    
C73   H38   S    
C32   O5    S    
N26   N27   A    
C51   H11   S    
C97   H66   S    
C56   C60   D    
C95   H63   S    
C15   C20   S    
C19   C23   S    
C42   H7    S    
C34   C41   S    
C7    H100  S    
C52   C72   S    
C29   H57   S    
C66   N4    A    
C84   H49   S    
C83   C84   A    
C14   C15   S    
C15   O2    S    
C104  H86   S    
C96   C97   S    
N3    N11   A    
C103  H83   S    
N1    N22   A    
N16   Ni3   S    
C86   H51   S    
N12   N24   A    
C63   H28   S    
N25   Ni4   S    
N1    Ni1   S    
C101  H80   S    
C30   H68   S    
C40   H5    S    
C2    C73   A    
C93   O1    S    
N3    Ni4   S    
C99   H74   S    
C69   N7    A    
C78   H43   S    
N23   Ni3   S    
C4    H93   S    
C2    C59   S    
C76   H41   S    
C49   C50   S    
C27   H46   S    
C41   H6    S    
C47   H26   S    
C59   H20   S    
C21   H56   S    
C7    H3    S    
C73   N10   A    
C82   H48   S    
C43   H8    S    
C3    H89   S    
C95   H62   S    
C39   C92   A    
C71   H37   S    
C1    N1    A    
C11   C68   A    
N9    N32   A    
C54   C58   D    
C16   O3    S    
C36   C90   S    
C25   C30   S    
C4    H92   S    
C21   C25   S    
C64   H29   S    
C1    C89   A    
C22   C30   S    
N23   N25   A    
C34   C38   D    
C33   C44   S    
C14   C19   S    
C77   N15   A    
C103  H84   S    
C4    O7    S    
C37   H2    S    
C4    C5    S    
C50   C80   A    
N5    Ni6   S    
C44   H9    S    
C6    H98   S    
C79   H44   S    
C65   N3    A    
C20   C27   S    
C6    O8    S    
N21   Ni7   S    
N30   Ni7   S    
N11   Ni7   S    
C97   H67   S    
C48   C83   A    
C37   C89   S    
N10   Ni6   S    
N28   Ni5   S    
C56   H17   S    
C47   N30   A    
N9    Ni5   S    
C67   H32   S    
C58   C94   S    
N13   Ni8   S    
N12   Ni2   S    
N24   Ni1   S    
C87   N25   A    
C3    H88   S    
N7    Ni8   S    
C98   H71   S    
C64   N2    A    
C45   C50   A    
N19   Ni5   S    
C72   C82   A    
C98   O3    S    
C35   O8    S    
C32   C43   S    
N32   Ni2   S    
C67   N5    A    
N2    Ni1   S    
C85   H50   S    
C40   C91   S    
C38   H4    S    
C33   O6    S    
C33   C37   D    
N31   Ni8   S    
C48   N31   A    
C75   H40   S    
N6    N15   A    
C80   N18   A    
C66   H31   S    
C18   O4    S    
N29   Ni6   S    
C26   C31   S    
C81   H47   S    
C47   C72   A    
C16   C18   S    
C98   C99   S    
C22   C26   S    
C12   C26   S    
C75   N13   A    
C87   H52   S    
N27   Ni4   S    
C3    H91   S    
C61   C81   A    
C85   N22   A    
C9    C75   A    
N14   Ni1   S    
C100  H75   S    
C77   H42   S    
C8    C60   S    
C101  H78   S    
C28   H24   S    
N26   Ni3   S    
N4    N13   A    
C98   H70   S    
C19   C29   S    
