data_mof_unit_1523.cif
_audit_creation_date              2012-12-10T18:21:16-0500
_audit_creation_method            fapswitch 2.2
_symmetry_space_group_name_H-M    P1
_symmetry_Int_Tables_number       1
_space_group_crystal_system       triclinic
_cell_length_a                    9.415989
_cell_length_b                    10.636744
_cell_length_c                    17.304598
_cell_angle_alpha                 89.77251
_cell_angle_beta                  84.942696
_cell_angle_gamma                 89.954703
_cell_volume                      1726.38917556

loop_
_atom_site_label
_atom_site_type_symbol
_atom_type_description
_atom_site_fract_x
_atom_site_fract_y
_atom_site_fract_z
_atom_type_partial_charge
C1    C     C_R   0.499819 0.740397 0.500328 0.831639
C2    C     C_R   0.500181 0.259603 0.499672 0.831670
C3    C     C_3   0.365260 0.958650 0.496659 -0.219513
C4    C     C_3   0.634741 0.041350 0.503341 -0.219519
C5    C     C_3   0.449843 0.040315 0.434964 0.052998
C6    C     C_3   0.550158 0.959685 0.565037 0.052992
C7    C     C_3   0.500592 0.122980 0.499174 0.000968
C8    C     C_3   0.499409 0.877020 0.500826 0.000980
C9    C     C_3   0.416820 0.042929 0.561723 -0.246647
C10   C     C_3   0.583180 0.957071 0.438277 -0.246659
C11   C     C_3   0.960753 0.487335 0.430404 -0.032989
C12   C     C_3   0.039247 0.512665 0.569596 -0.032992
C13   C     C_3   0.055096 0.395929 0.472170 -0.019977
C14   C     C_3   0.944904 0.604071 0.527830 -0.019988
C15   C     C_3   0.057210 0.591438 0.458176 -0.048321
C16   C     C_3   0.942790 0.408562 0.541824 -0.048319
C17   C     C_R   0.480034 0.503598 0.649601 0.796621
C18   C     C_R   0.519965 0.496407 0.350398 0.796651
C19   C     C_R   0.466296 0.507282 0.733999 -0.083103
C20   C     C_R   0.533700 0.492755 0.265998 -0.083124
C21   C     C_R   0.551839 0.425311 0.773120 -0.197266
C22   C     C_R   0.448096 0.574693 0.226892 -0.197242
C23   C     C_R   0.542716 0.423429 0.853438 -0.127864
C24   C     C_R   0.457218 0.576613 0.146574 -0.127856
C25   C     C_R   0.448755 0.504901 0.895923 0.130674
C26   C     C_R   0.551240 0.495211 0.104073 0.130694
C27   C     C_R   0.360379 0.584989 0.857344 -0.132821
C28   C     C_R   0.639679 0.415161 0.142638 -0.132843
C29   C     C_R   0.369288 0.589015 0.776095 0.001451
C30   C     C_R   0.630772 0.411097 0.223887 0.001451
C31   C     C_2   0.442190 0.509833 0.980787 -0.202619
C32   C     C_2   0.557800 0.490301 0.019208 -0.202613
Cu1   Cu    Cu3+1 0.356850 0.500010 0.499980 0.956573
Cu2   Cu    Cu3+1 0.643150 0.499990 0.500020 0.956579
H1    H     H_    0.624949 0.361391 0.741272 0.139577
H2    H     H_    0.374938 0.638560 0.258751 0.139598
H3    H     H_    0.923440 0.476393 0.371725 0.133363
H4    H     H_    0.076562 0.523602 0.628277 0.133321
H5    H     H_    0.110319 0.668315 0.422972 0.113680
H6    H     H_    0.889681 0.331684 0.577028 0.113683
H7    H     H_    0.659285 0.465981 0.988147 0.152357
H8    H     H_    0.340702 0.534155 0.011843 0.152358
H9    H     H_    0.288616 0.647905 0.890939 0.169769
H10   H     H_    0.711489 0.352298 0.109032 0.169752
H11   H     H_    0.391534 0.642675 0.118005 0.134674
H12   H     H_    0.608352 0.357344 0.882022 0.134691
H13   H     H_    0.255027 0.923170 0.493568 0.144235
H14   H     H_    0.744974 0.076830 0.506432 0.144234
H15   H     H_    0.349456 0.080244 0.612389 0.145869
H16   H     H_    0.650545 0.919756 0.387611 0.145845
H17   H     H_    0.106127 0.308388 0.448555 0.150138
H18   H     H_    0.893873 0.691612 0.551445 0.150136
N1    N     N_3   0.141720 0.500030 0.499940 -0.163693
N2    N     N_3   0.858280 0.499970 0.500060 -0.163697
O1    O     O_R   0.379130 0.683150 0.499960 -0.608437
O2    O     O_R   0.620870 0.316850 0.500040 -0.608427
O3    O     O_R   0.620910 0.683140 0.500000 -0.558680
O4    O     O_R   0.379090 0.316860 0.500000 -0.558681
O5    O     O_R   0.365090 0.500030 0.613580 -0.615242
O6    O     O_R   0.634910 0.499970 0.386420 -0.615234
O7    O     O_R   0.606870 0.500020 0.613610 -0.549386
O8    O     O_R   0.393130 0.499980 0.386390 -0.549390
C33   C     C_2   0.716600 0.316598 0.263073 0.366380
H19   H     H_    0.694058 0.295601 0.324260 0.101521
O9    O     O_2   0.813208 0.259268 0.226983 -0.550400
C34   C     C_2   0.283536 0.683550 0.736889 0.366456
H20   H     H_    0.306026 0.704447 0.675687 0.101529
O10   O     O_2   0.187058 0.741033 0.772980 -0.550422
C35   C     C_2   0.393392 0.081753 0.360705 0.314694
H21   H     H_    0.359910 0.011752 0.320700 0.074489
O11   O     O_2   0.384907 0.193123 0.344667 -0.554763
C36   C     C_2   0.606613 0.918248 0.639294 0.314727
H22   H     H_    0.640091 0.988249 0.679300 0.074493
O12   O     O_2   0.615106 0.806879 0.655331 -0.554782

loop_
_geom_bond_atom_site_label_1
_geom_bond_atom_site_label_2
_ccdc_geom_bond_type
Cu1   O1    S    
C34   O10   D    
C33   O9    D    
C25   C31   S    
Cu1   O4    S    
C31   H8    S    
C27   C29   A    
C1    C8    S    
C2    C7    S    
C6    C9    S    
C20   C30   A    
Cu2   O2    S    
C24   H11   S    
C15   N1    S    
C19   C21   A    
C24   C26   A    
C11   H3    S    
C35   O11   D    
C5    C35   S    
C17   O7    A    
C13   H17   S    
C11   C15   S    
C14   H18   S    
C12   C16   S    
Cu1   O8    S    
Cu2   O3    S    
C32   H7    S    
C12   N1    S    
C34   H20   S    
Cu1   O5    S    
C23   H12   S    
C30   C33   S    
Cu2   O6    S    
C4    C7    S    
C13   N1    S    
Cu1   N1    S    
C9    H15   S    
C36   O12   D    
C3    C8    S    
C5    C7    S    
C26   C32   S    
C18   O8    A    
C6    C8    S    
C28   H10   S    
Cu2   O7    S    
C33   H19   S    
C6    C36   S    
C3    C9    S    
C1    O3    A    
C31   C32   D    
C12   C14   S    
Cu1   Cu2   S    
C15   H5    S    
C11   N2    S    
C17   O5    A    
C4    C6    S    
C14   N2    S    
C16   H6    S    
Cu2   N2    S    
C21   C23   A    
C22   C24   A    
C4    C10   S    
C19   C29   A    
C4    H14   S    
C18   O6    A    
C7    C9    S    
C20   C22   A    
C36   H22   S    
C3    C5    S    
C2    O4    A    
C21   H1    S    
C25   C27   A    
C22   H2    S    
C26   C28   A    
C28   C30   A    
C1    O1    A    
C5    C10   S    
C2    O2    A    
C11   C13   S    
C3    H13   S    
C17   C19   S    
C18   C20   S    
C23   C25   A    
C12   H4    S    
C35   H21   S    
C16   N2    S    
C29   C34   S    
C27   H9    S    
C8    C10   S    
C13   C16   S    
C14   C15   S    
C10   H16   S    
