data_mof_unit_3778.cif
_audit_creation_date              2012-12-11T14:17:51-0500
_audit_creation_method            fapswitch 2.2
_symmetry_space_group_name_H-M    P1
_symmetry_Int_Tables_number       1
_space_group_crystal_system       triclinic
_cell_length_a                    11.471013
_cell_length_b                    11.430742
_cell_length_c                    18.960225
_cell_angle_alpha                 90.413533
_cell_angle_beta                  90.068202
_cell_angle_gamma                 119.74497
_cell_volume                      2158.45395763

loop_
_atom_site_label
_atom_site_type_symbol
_atom_type_description
_atom_site_fract_x
_atom_site_fract_y
_atom_site_fract_z
_atom_type_partial_charge
C1    C     C_R   0.526508 0.452866 0.145414 0.545679
C2    C     C_R   0.922853 0.394234 0.550823 -0.154547
C3    C     C_R   0.465200 0.073268 0.550544 -0.171015
C4    C     C_R   0.575946 0.552119 0.541817 -0.167527
C5    C     C_R   0.625717 0.856147 0.542970 -0.076517
C6    C     C_R   0.152635 0.767181 0.540977 -0.078046
C7    C     C_R   0.201420 0.364730 0.536667 -0.106527
C8    C     C_R   0.966665 0.726087 0.438195 -0.089236
C9    C     C_R   0.758261 0.038054 0.439091 -0.091848
C10   C     C_R   0.257663 0.409226 0.393969 -0.075526
C11   C     C_R   0.740844 0.864528 0.513979 -0.113456
C12   C     C_R   0.546831 0.073450 0.145412 0.553677
C13   C     C_R   0.154574 0.876667 0.508377 -0.110739
C14   C     C_R   0.101036 0.295741 0.486514 -0.137741
C15   C     C_R   0.062006 0.856170 0.456967 -0.130895
C16   C     C_R   0.809134 0.959062 0.463289 -0.141559
C17   C     C_R   0.127118 0.324275 0.415529 -0.108644
C18   C     C_R   0.519729 0.456331 0.352577 0.517571
C19   C     C_R   0.578921 0.122154 0.360840 0.535753
C20   C     C_R   0.874840 0.456798 0.360572 0.538737
C21   C     C_R   0.426862 0.537615 0.638943 0.527275
C22   C     C_R   0.072724 0.550428 0.644120 0.526422
C23   C     C_R   0.926972 0.473264 0.145403 0.553439
C24   C     C_R   0.478365 0.928726 0.644660 0.517794
C25   C     C_R   0.480807 0.978536 0.926706 0.010382
C26   C     C_R   0.021626 0.502847 0.926453 0.010726
C27   C     C_R   0.497842 0.517649 0.926317 0.009139
C28   C     C_R   0.979669 0.481477 0.073547 0.008788
C29   C     C_R   0.501893 0.020321 0.073674 0.009915
C30   C     C_R   0.518391 0.496885 0.073514 0.012050
C31   C     C_R   0.373375 0.980790 0.963611 0.000685
C32   C     C_R   0.018369 0.392300 0.962774 0.002499
C33   C     C_R   0.607718 0.624159 0.963622 -0.000936
C34   C     C_R   0.453659 0.526380 0.854422 0.550253
C35   C     C_R   0.983021 0.374499 0.036153 0.000356
C36   C     C_R   0.391813 0.017560 0.036958 0.001331
C37   C     C_R   0.625483 0.606298 0.037014 0.001133
C38   C     C_R   0.585885 0.989907 0.036734 -0.019943
C39   C     C_R   0.009380 0.595986 0.037064 -0.017902
C40   C     C_R   0.404185 0.413385 0.036198 -0.017974
C41   C     C_R   0.991032 0.586820 0.963672 -0.019753
C42   C     C_R   0.595119 0.008819 0.963710 -0.018808
C43   C     C_R   0.413186 0.403677 0.962949 -0.016957
C44   C     C_R   0.252112 0.956473 0.930608 -0.123454
C45   C     C_R   0.074081 0.547315 0.854767 0.549048
C46   C     C_R   0.039963 0.293819 0.928831 -0.120759
C47   C     C_R   0.705243 0.744157 0.930808 -0.124094
C48   C     C_R   0.960799 0.254119 0.068885 -0.125347
C49   C     C_R   0.294531 0.041032 0.070318 -0.122076
C50   C     C_R   0.745804 0.703762 0.070648 -0.120795
C51   C     C_R   0.159002 0.975078 0.966329 -0.180697
C52   C     C_R   0.022303 0.182210 0.963760 -0.180444
C53   C     C_R   0.815843 0.837873 0.967022 -0.182397
C54   C     C_R   0.977452 0.159776 0.032506 -0.181805
C55   C     C_R   0.182708 0.022392 0.034920 -0.181526
C56   C     C_R   0.473187 0.926409 0.854671 0.547535
C57   C     C_R   0.838959 0.814887 0.035566 -0.181069
C58   C     C_R   0.504647 0.981580 0.572559 -0.005424
C59   C     C_R   0.018593 0.523750 0.572186 0.008690
C60   C     C_R   0.446527 0.512126 0.564970 -0.006133
C61   C     C_R   0.904821 0.480383 0.437146 -0.002883
C62   C     C_R   0.565600 0.087511 0.436281 -0.002017
C63   C     C_R   0.496423 0.499744 0.421042 0.014133
C64   C     C_R   0.585660 0.951669 0.527251 0.026594
C65   C     C_R   0.049096 0.634396 0.527011 0.029525
C66   C     C_R   0.336821 0.447815 0.516202 0.015777
C67   C     C_R   0.485350 0.116632 0.480520 -0.164957
C68   C     C_R   0.970444 0.612923 0.466882 0.041826
C69   C     C_R   0.636463 0.025968 0.466086 0.039820
C70   C     C_R   0.364531 0.456949 0.443175 0.030822
C71   C     C_3   0.636191 0.905707 0.070949 -0.252923
C72   C     C_3   0.543115 0.800911 0.124983 -0.420892
C73   C     C_3   0.093459 0.730209 0.072134 -0.254491
C74   C     C_3   0.198898 0.741765 0.126300 -0.421301
C75   C     C_3   0.270491 0.362514 0.070626 -0.253428
C76   C     C_3   0.258438 0.457836 0.124166 -0.426002
C77   C     C_3   0.905532 0.635262 0.929201 -0.253669
C78   C     C_R   0.873665 0.373168 0.481908 -0.168871
C79   C     C_3   0.801104 0.541212 0.874302 -0.421594
C80   C     C_3   0.728831 0.092538 0.929622 -0.252108
C81   C     C_3   0.740033 0.198608 0.876308 -0.422869
C82   C     C_3   0.360796 0.268805 0.928018 -0.254009
C83   C     C_3   0.454938 0.255087 0.875043 -0.423902
C84   C     C_R   0.600037 0.543953 0.470923 -0.156706
Cr1   Cr    Cr6+3 0.768550 0.541320 0.250660 0.972110
Cr2   Cr    Cr6+3 0.458680 0.227230 0.250660 0.983331
Cr3   Cr    Cr6+3 0.772770 0.231450 0.250660 0.965044
Cr4   Cr    Cr6+3 0.541320 0.768550 0.749340 0.982367
Cr5   Cr    Cr6+3 0.227230 0.458680 0.749340 0.975257
Cr6   Cr    Cr6+3 0.231450 0.772770 0.749340 0.981521
H1    H     H_    0.222854 0.930968 0.876775 0.172521
H2    H     H_    0.953702 0.070891 0.059645 0.106024
H3    H     H_    0.116587 0.044025 0.063249 0.103298
H4    H     H_    0.926706 0.880889 0.063990 0.102313
H5    H     H_    0.441319 0.175293 0.461499 0.141933
H6    H     H_    0.811288 0.274211 0.463160 0.112774
H7    H     H_    0.698860 0.565204 0.455636 0.121786
H8    H     H_    0.892679 0.309225 0.585560 0.127965
H9    H     H_    0.412537 0.105082 0.586351 0.128970
H10   H     H_    0.658555 0.587748 0.579056 0.136627
H11   H     H_    0.571031 0.778012 0.579335 0.161067
H12   H     H_    0.061267 0.288330 0.874544 0.168896
H13   H     H_    0.231487 0.786074 0.577034 0.159728
H14   H     H_    0.169431 0.341695 0.590256 0.173185
H15   H     H_    0.890759 0.717598 0.401479 0.147762
H16   H     H_    0.822944 0.114391 0.402506 0.140760
H17   H     H_    0.275586 0.428346 0.338058 0.128137
H18   H     H_    0.780264 0.801736 0.532179 0.120712
H19   H     H_    0.223265 0.978183 0.524040 0.122792
H20   H     H_    0.001385 0.222902 0.503391 0.118308
H21   H     H_    0.067792 0.941781 0.430244 0.107525
H22   H     H_    0.900980 0.971981 0.441792 0.100212
H23   H     H_    0.710325 0.771420 0.876762 0.170188
H24   H     H_    0.047491 0.277027 0.376875 0.127692
H25   H     H_    0.496453 0.837251 0.163760 0.166851
H26   H     H_    0.462748 0.714124 0.096154 0.131932
H27   H     H_    0.600296 0.764739 0.156314 0.148266
H28   H     H_    0.636251 0.844532 0.027834 0.192611
H29   H     H_    0.737795 0.968985 0.093264 0.170475
H30   H     H_    0.163264 0.659064 0.164684 0.167257
H31   H     H_    0.285270 0.747732 0.097664 0.131112
H32   H     H_    0.235141 0.835513 0.157843 0.151423
H33   H     H_    0.153621 0.791288 0.029429 0.192742
H34   H     H_    0.938393 0.226993 0.122922 0.168268
H35   H     H_    0.030541 0.768818 0.094869 0.170744
H36   H     H_    0.341253 0.505907 0.162884 0.157919
H37   H     H_    0.251694 0.537288 0.094886 0.136068
H38   H     H_    0.165730 0.401654 0.155521 0.145180
H39   H     H_    0.234136 0.262045 0.093643 0.171041
H40   H     H_    0.208003 0.358661 0.027543 0.193088
H41   H     H_    0.836865 0.492544 0.836345 0.162493
H42   H     H_    0.713456 0.462022 0.902252 0.131523
H43   H     H_    0.766447 0.598855 0.842235 0.149249
H44   H     H_    0.844640 0.635099 0.972138 0.193496
H45   H     H_    0.290077 0.064789 0.124398 0.170715
H46   H     H_    0.967631 0.736714 0.907160 0.170437
H47   H     H_    0.656940 0.163518 0.837805 0.161920
H48   H     H_    0.746963 0.285341 0.905821 0.133895
H49   H     H_    0.832448 0.234320 0.844675 0.147021
H50   H     H_    0.790282 0.152599 0.972844 0.192110
H51   H     H_    0.766815 0.028956 0.906662 0.171228
H52   H     H_    0.500725 0.336173 0.835740 0.165275
H53   H     H_    0.535658 0.251214 0.904745 0.133834
H54   H     H_    0.398856 0.160167 0.844407 0.148831
H55   H     H_    0.260532 0.232748 0.904518 0.171377
H56   H     H_    0.773923 0.709025 0.124702 0.171330
H57   H     H_    0.356610 0.206250 0.970893 0.192676
H58   H     H_    0.070426 0.951993 0.938661 0.104774
H59   H     H_    0.043148 0.115495 0.934905 0.102342
H60   H     H_    0.881030 0.926087 0.939636 0.105554
O1    O     O_R   0.910960 0.572410 0.171010 -0.518236
O2    O     O_R   0.528530 0.639750 0.824400 -0.531503
O3    O     O_R   0.111220 0.471470 0.824400 -0.535934
O4    O     O_R   0.360250 0.888780 0.824400 -0.536198
O5    O     O_R   0.909330 0.572400 0.331540 -0.524640
O6    O     O_R   0.427600 0.336930 0.331540 -0.532204
O7    O     O_R   0.663070 0.090670 0.331540 -0.536828
O8    O     O_R   0.572400 0.909330 0.668460 -0.530377
O9    O     O_R   0.336930 0.427600 0.668460 -0.531304
O10   O     O_R   0.090670 0.663070 0.668460 -0.526289
O11   O     O_R   0.638240 0.528520 0.324410 -0.529297
O12   O     O_R   0.427590 0.338550 0.171010 -0.526114
O13   O     O_R   0.471480 0.109720 0.324410 -0.486308
O14   O     O_R   0.890280 0.361760 0.324410 -0.525464
O15   O     O_R   0.528520 0.638240 0.675590 -0.520450
O16   O     O_R   0.109720 0.471480 0.675590 -0.530562
O17   O     O_R   0.361760 0.890280 0.675590 -0.525636
O18   O     O_3   0.666667 0.333333 0.250630 -0.303172
O19   O     O_3   0.333333 0.666667 0.749370 -0.284738
O20   O     O_R   0.661450 0.089040 0.171010 -0.518921
O21   O     O_R   0.572410 0.910960 0.828990 -0.520279
O22   O     O_R   0.338550 0.427590 0.828990 -0.519584
O23   O     O_R   0.089040 0.661450 0.828990 -0.521658
O24   O     O_R   0.639750 0.528530 0.175600 -0.537113
O25   O     O_R   0.471470 0.111220 0.175600 -0.532223
O26   O     O_R   0.888780 0.360250 0.175600 -0.533468

loop_
_geom_bond_atom_site_label_1
_geom_bond_atom_site_label_2
_ccdc_geom_bond_type
C25   C31   A    
C14   H20   S    
C26   C32   A    
C20   O5    A    
C12   C29   S    
C76   H36   S    
C73   C74   S    
C25   C56   S    
C55   H3    S    
C8    H15   S    
C6    H13   S    
C82   H57   S    
C18   O6    A    
C39   C41   A    
C27   C33   A    
C81   H47   S    
Cr3   O26   S    
C46   H12   S    
C29   C36   A    
C62   C67   A    
C84   H7    S    
C9    C16   A    
C9    C69   A    
C38   C42   A    
C41   C77   S    
C83   H54   S    
Cr6   O17   S    
C18   O11   A    
C24   O8    A    
C18   C63   S    
C19   C62   S    
C20   O14   A    
C46   C52   A    
C21   O15   A    
C81   H49   S    
Cr2   O25   S    
Cr1   O5    S    
C20   C61   S    
Cr2   O6    S    
Cr1   O11   S    
C13   H19   S    
C26   C45   S    
C7    C14   A    
C30   C37   A    
C28   C35   A    
C78   H6    S    
C52   H59   S    
C73   H33   S    
C72   H27   S    
Cr2   O12   S    
C77   H46   S    
Cr4   O8    S    
Cr6   O4    S    
C75   H40   S    
C47   C53   A    
C50   H56   S    
Cr3   O14   S    
C49   H45   S    
C60   C66   A    
Cr4   O21   S    
C67   H5    S    
C21   O9    A    
C14   C17   A    
C10   H17   S    
C35   C48   A    
C6    C65   A    
C52   C54   A    
C17   H24   S    
Cr5   O9    S    
C77   C79   S    
C27   C34   S    
C58   C64   A    
C81   H48   S    
C79   H43   S    
C5    H11   S    
C1    O24   A    
C31   C44   A    
C19   O7    A    
C32   C35   A    
C15   H21   S    
C24   O17   A    
Cr2   O18   S    
C21   C60   S    
C56   O4    A    
C22   C59   S    
C34   O2    A    
C2    C59   A    
C12   O20   A    
C23   O26   A    
C28   C39   A    
C9    H16   S    
C49   C55   A    
Cr3   O20   S    
C75   H39   S    
C33   C37   A    
Cr3   O7    S    
C62   C69   A    
C29   C38   A    
C48   C54   A    
C75   C76   S    
Cr1   O1    S    
C54   H2    S    
C2    C78   A    
C45   O23   A    
C11   C16   A    
Cr5   O3    S    
Cr3   O18   S    
C4    C84   A    
C63   C70   A    
C61   C78   A    
C65   C68   A    
C79   H41   S    
C4    C60   A    
Cr1   O24   S    
C30   C40   A    
C19   O13   A    
C64   C69   A    
C2    H8    S    
C44   H1    S    
C12   O25   A    
C10   C70   A    
C44   C51   A    
C74   H32   S    
C1    O12   A    
C8    C68   A    
C8    C15   A    
C7    H14   S    
C13   C15   A    
C56   O21   A    
C53   H60   S    
C33   C47   A    
C45   O3    A    
C23   C28   S    
C73   H35   S    
C11   H18   S    
C82   H55   S    
C34   O22   A    
C16   H22   S    
C47   H23   S    
C27   C43   A    
C23   O1    A    
C38   C71   S    
C53   C57   A    
Cr4   O19   S    
C71   H28   S    
Cr6   O23   S    
Cr1   O18   S    
C32   C46   A    
C3    C67   A    
Cr5   O22   S    
C80   C81   S    
C25   C42   A    
Cr4   O2    S    
C83   H52   S    
C5    C11   A    
C74   H30   S    
C72   H26   S    
C40   C75   S    
C71   H29   S    
C63   C84   A    
C57   H4    S    
C40   C43   A    
C4    H10   S    
Cr5   O19   S    
C71   C72   S    
Cr4   O15   S    
C80   H50   S    
C59   C65   A    
C7    C66   A    
C83   H53   S    
C37   C50   A    
C50   C57   A    
C61   C68   A    
C66   C70   A    
C22   O10   A    
C51   H58   S    
C76   H38   S    
C79   H42   S    
Cr6   O19   S    
C1    C30   S    
C51   C55   A    
C39   C73   S    
Cr6   O10   S    
C48   H34   S    
Cr5   O16   S    
C22   O16   A    
C3    C58   A    
C3    H9    S    
C74   H31   S    
C5    C64   A    
C24   C58   S    
C82   C83   S    
C77   H44   S    
C42   C80   S    
C76   H37   S    
C31   C36   A    
Cr2   O13   S    
C10   C17   A    
C80   H51   S    
C36   C49   A    
C43   C82   S    
C26   C41   A    
C72   H25   S    
C6    C13   A    
