data_mof_unit_3643.cif
_audit_creation_date              2012-12-11T16:28:33-0500
_audit_creation_method            fapswitch 2.2
_symmetry_space_group_name_H-M    P1
_symmetry_Int_Tables_number       1
_space_group_crystal_system       triclinic
_cell_length_a                    16.583532
_cell_length_b                    7.25295
_cell_length_c                    15.207682
_cell_angle_alpha                 90.003169
_cell_angle_beta                  94.744527
_cell_angle_gamma                 90.000614
_cell_volume                      1822.90498726

loop_
_atom_site_label
_atom_site_type_symbol
_atom_type_description
_atom_site_fract_x
_atom_site_fract_y
_atom_site_fract_z
_atom_type_partial_charge
O1    O     O_R   0.663460 0.361760 0.165970 -0.547622
O2    O     O_R   0.336540 0.638240 0.834030 -0.547621
O3    O     O_R   0.836540 0.861760 0.334030 -0.547635
O4    O     O_R   0.163460 0.138240 0.665970 -0.547635
O5    O     O_R   0.827100 0.689870 0.163730 -0.543174
O6    O     O_R   0.172900 0.310130 0.836270 -0.543173
O7    O     O_R   0.672900 0.189870 0.336270 -0.543200
O8    O     O_R   0.327100 0.810130 0.663730 -0.543200
H1    H     H_    0.206957 0.119605 0.510136 0.132363
H2    H     H_    0.793042 0.880395 0.489863 0.132363
H3    H     H_    0.293098 0.620145 0.989807 0.132473
H4    H     H_    0.706901 0.379855 0.010193 0.132473
C1    C     C_R   0.853292 0.522926 0.143586 0.708920
C2    C     C_R   0.146707 0.477074 0.856414 0.708920
C3    C     C_R   0.646707 0.022930 0.356414 0.709053
C4    C     C_R   0.353293 0.977070 0.643586 0.709053
O9    O     O_R   0.663490 0.691370 0.155500 -0.518745
O10   O     O_R   0.336510 0.308630 0.844500 -0.518745
O11   O     O_R   0.836510 0.191370 0.344500 -0.518799
O12   O     O_R   0.163490 0.808630 0.655500 -0.518798
O13   O     O_R   0.671770 0.863320 0.325740 -0.512496
O14   O     O_R   0.328230 0.136680 0.674260 -0.512496
O15   O     O_R   0.828230 0.363320 0.174260 -0.512546
O16   O     O_R   0.171770 0.636680 0.825740 -0.512546
C5    C     C_R   0.636131 0.522549 0.133773 0.710921
C6    C     C_R   0.363868 0.477450 0.866227 0.710921
C7    C     C_R   0.863876 0.022558 0.366218 0.710904
C8    C     C_R   0.136124 0.977442 0.633782 0.710904
O17   O     O_3   0.752910 0.528800 0.305860 -0.373895
O18   O     O_3   0.247090 0.471200 0.694140 -0.373895
O19   O     O_3   0.747090 0.028800 0.194140 -0.373874
O20   O     O_3   0.252910 0.971200 0.805860 -0.373874
V1    V     V_3+5 0.749460 0.803010 0.239640 1.488340
V2    V     V_3+5 0.250540 0.196990 0.760360 1.488341
V3    V     V_3+5 0.750540 0.303010 0.260360 1.488256
V4    V     V_3+5 0.249460 0.696990 0.739640 1.488255
C9    C     C_1   0.468833 0.994795 0.530129 0.058598
C10   C     C_1   0.531167 0.005205 0.469871 0.058598
C11   C     C_1   0.031167 0.494799 0.969871 0.058632
C12   C     C_1   0.968833 0.505200 0.030129 0.058632
H5    H     H_    0.771266 0.757218 0.631872 0.143742
H6    H     H_    0.228734 0.242782 0.368127 0.143742
H7    H     H_    0.728613 0.256288 0.868232 0.143798
H8    H     H_    0.271387 0.743712 0.131768 0.143798
C13   C     C_R   0.030670 0.123705 0.326599 0.323134
C14   C     C_R   0.969330 0.876295 0.673401 0.323133
C15   C     C_R   0.469387 0.624214 0.173352 0.323142
C16   C     C_R   0.530613 0.375786 0.826648 0.323142
C17   C     C_R   0.106882 0.194273 0.311535 0.408056
C18   C     C_R   0.893118 0.805727 0.688465 0.408056
C19   C     C_R   0.393212 0.695008 0.188388 0.407956
C20   C     C_R   0.606788 0.304992 0.811612 0.407956
C21   C     C_R   0.168913 0.192768 0.379429 -0.297949
C22   C     C_R   0.831087 0.807232 0.620571 -0.297949
C23   C     C_R   0.331182 0.693514 0.120487 -0.297905
C24   C     C_R   0.668817 0.306486 0.879513 -0.297905
C25   C     C_R   0.155473 0.122069 0.461680 -0.190941
C26   C     C_R   0.844527 0.877931 0.538320 -0.190941
C27   C     C_R   0.344587 0.622591 0.038263 -0.190987
C28   C     C_R   0.655413 0.377409 0.961737 -0.190987
C29   C     C_R   0.078129 0.058869 0.480953 0.035109
C30   C     C_R   0.921870 0.941131 0.519046 0.035109
C31   C     C_R   0.421898 0.559137 0.019017 0.035060
C32   C     C_R   0.578102 0.440862 0.980983 0.035060
C33   C     C_R   0.013266 0.064269 0.413122 -0.090139
C34   C     C_R   0.986734 0.935731 0.586878 -0.090139
C35   C     C_R   0.486763 0.564527 0.086848 -0.090048
C36   C     C_R   0.513237 0.435473 0.913151 -0.090048
C37   C     C_R   0.065776 0.990042 0.566460 -0.118235
C38   C     C_R   0.934224 0.009957 0.433540 -0.118235
C39   C     C_R   0.434220 0.490058 0.933543 -0.118259
C40   C     C_R   0.565780 0.509942 0.066457 -0.118259
C41   C     C_1   0.416019 0.986232 0.581486 -0.136154
C42   C     C_1   0.583981 0.013767 0.418514 -0.136153
C43   C     C_1   0.083981 0.486242 0.918514 -0.136173
C44   C     C_1   0.916019 0.513758 0.081486 -0.136173
O21   O     O_3   0.119698 0.257445 0.228152 -0.622306
H9    H     H_    0.176252 0.301963 0.228019 0.282368
O22   O     O_3   0.880302 0.742555 0.771848 -0.622306
H10   H     H_    0.823748 0.698036 0.771981 0.282368
O23   O     O_3   0.380428 0.758404 0.271754 -0.622329
H11   H     H_    0.323891 0.803045 0.271872 0.282375
O24   O     O_3   0.619572 0.241596 0.728246 -0.622329
H12   H     H_    0.676109 0.196955 0.728128 0.282375
O25   O     O_3   0.976012 0.108040 0.253944 -0.615117
H13   H     H_    0.962548 0.975107 0.248533 0.275234
O26   O     O_3   0.023988 0.891960 0.746056 -0.615117
H14   H     H_    0.037452 0.024892 0.751467 0.275234
O27   O     O_3   0.524031 0.608605 0.246017 -0.615105
H15   H     H_    0.537394 0.475636 0.251543 0.275200
O28   O     O_3   0.475969 0.391395 0.753983 -0.615105
H16   H     H_    0.462605 0.524364 0.748457 0.275200

loop_
_geom_bond_atom_site_label_1
_geom_bond_atom_site_label_2
_ccdc_geom_bond_type
C26   C30   A    
O26   H14   S    
C23   C27   A    
C8    C37   S    
O10   C6    A    
O6    V2    S    
C18   O22   S    
O23   H11   S    
O25   H13   S    
C30   C38   A    
O16   V4    S    
C32   C36   A    
H2    C26   S    
C14   C34   A    
H6    C21   S    
C10   C42   T    
C34   C37   A    
O13   V1    S    
O3    V1    S    
O2    V4    S    
C33   C38   A    
C1    O15   A    
C35   C40   A    
O8    V4    S    
C2    O16   A    
C9    C41   T    
C16   O28   S    
O5    V1    S    
O19   V1    S    
C11   C43   T    
O11   C7    A    
C19   O23   S    
O5    C1    A    
O7    C3    A    
O8    C4    A    
O1    C5    A    
C6    C39   S    
C15   O27   S    
O9    V1    S    
H3    C27   S    
C15   C35   A    
O4    C8    A    
O4    V2    S    
O14   V2    S    
C31   C35   A    
C30   C34   A    
C4    C41   S    
C11   C12   S    
C21   C25   A    
C15   C19   A    
O12   C8    A    
C19   C23   A    
O21   H9    S    
C12   C44   T    
O20   V2    S    
C20   O24   S    
C13   O25   S    
C9    C10   S    
O6    C2    A    
O24   H12   S    
C1    C44   S    
C13   C17   A    
O2    C6    A    
C5    C40   S    
C18   C22   A    
C16   C36   A    
O10   V2    S    
C7    C38   S    
H4    C28   S    
C31   C39   A    
O15   V3    S    
C13   C33   A    
O28   H16   S    
O1    V3    S    
C14   O26   S    
C22   C26   A    
C29   C37   A    
C14   C18   A    
C4    O14   A    
O7    V3    S    
C25   C29   A    
O17   V3    S    
C27   C31   A    
O18   V4    S    
C28   C32   A    
O9    C5    A    
C2    C43   S    
O3    C7    A    
O11   V3    S    
H8    C23   S    
C3    O13   A    
C36   C39   A    
C17   C21   A    
C17   O21   S    
H1    C25   S    
C32   C40   A    
H5    C22   S    
O22   H10   S    
O12   V4    S    
C29   C33   A    
H7    C24   S    
C16   C20   A    
C3    C42   S    
C24   C28   A    
O27   H15   S    
C20   C24   A    
