data_mof_unit_687.cif
_audit_creation_date              2013-03-05T15:52:13-0500
_audit_creation_method            fapswitch 2.2
_symmetry_space_group_name_H-M    P1
_symmetry_Int_Tables_number       1
_space_group_crystal_system       triclinic
_cell_length_a                    23.445149
_cell_length_b                    10.778686
_cell_length_c                    9.632429
_cell_angle_alpha                 90.53209
_cell_angle_beta                  89.247636
_cell_angle_gamma                 92.832534
_cell_volume                      2430.91636484

loop_
_atom_site_label
_atom_site_type_symbol
_atom_site_description
_atom_site_fract_x
_atom_site_fract_y
_atom_site_fract_z
_atom_type_partial_charge
O1    O     O_R   0.500000 0.319640 0.618810 -0.570377
O2    O     O_R   0.500000 0.319660 0.381240 -0.563141
C1    C     C_R   0.497036 0.262659 0.499731 0.862489
O3    O     O_R   0.417880 0.499950 0.618810 -0.611546
O4    O     O_R   0.417880 0.499980 0.381240 -0.548803
C2    C     C_R   0.391254 0.497887 0.500709 0.845214
Cu1   Cu    Cu3+1 0.500000 0.499990 0.640660 1.001518
Cu2   Cu    Cu3+1 0.500000 0.500010 0.359340 0.988576
O5    O     O_R   0.500000 0.680340 0.618760 -0.547474
O6    O     O_R   0.500000 0.680360 0.381190 -0.610362
O7    O     O_R   0.582120 0.500020 0.618760 -0.539887
O8    O     O_R   0.582120 0.500050 0.381190 -0.598906
C3    C     C_R   0.496990 0.736794 0.500629 0.801147
C4    C     C_R   0.608721 0.499179 0.499361 0.894988
C5    C     C_R   0.880323 0.546548 0.629674 0.552933
N1    N     N_R   0.852237 0.533753 0.505985 -0.460921
C6    C     C_R   0.881569 0.524456 0.382500 0.552003
C7    C     C_R   0.941465 0.526328 0.380347 -0.015844
C8    C     C_R   0.970838 0.536102 0.506906 -0.012005
C9    C     C_R   0.940171 0.546943 0.632798 -0.015760
C10   C     C_R   0.972500 0.516526 0.255213 -0.147703
C11   C     C_R   0.031961 0.514833 0.255888 -0.138744
C12   C     C_R   0.061614 0.522293 0.381754 -0.018731
C13   C     C_R   0.030982 0.533617 0.507680 -0.011517
C14   C     C_R   0.060308 0.541256 0.634464 -0.018128
C15   C     C_R   0.029345 0.553387 0.759363 -0.143759
C16   C     C_R   0.969909 0.556460 0.758515 -0.145248
C17   C     C_R   0.121257 0.517386 0.385305 0.607548
N2    N     N_R   0.148988 0.521680 0.509717 -0.447667
C18   C     C_R   0.119960 0.534827 0.632915 0.600346
O9    O     O_2   0.850396 0.558830 0.749247 -0.513822
O10   O     O_2   0.852832 0.511074 0.262365 -0.514859
H1    H     H_    0.950965 0.509354 0.156429 0.187245
H2    H     H_    0.054520 0.506409 0.157634 0.191066
O11   O     O_2   0.151365 0.507867 0.265617 -0.494838
O12   O     O_2   0.148699 0.540007 0.753467 -0.503705
H3    H     H_    0.050865 0.559731 0.858204 0.186776
H4    H     H_    0.947356 0.565054 0.856753 0.188557
C19   C     C_R   0.244783 0.616980 0.538357 -0.119845
H5    H     H_    0.226005 0.704784 0.561359 0.183661
C20   C     C_R   0.303806 0.611076 0.533596 -0.257626
H6    H     H_    0.329997 0.694660 0.553281 0.161663
C21   C     C_R   0.328929 0.499097 0.502039 -0.169855
C22   C     C_R   0.294389 0.390436 0.475160 0.205481
C23   C     C_R   0.234253 0.396825 0.479386 0.302206
C24   C     C_R   0.209797 0.511085 0.511031 0.191358
C25   C     C_R   0.761381 0.426353 0.574091 -0.150898
H7    H     H_    0.785403 0.357804 0.626475 0.189755
C26   C     C_R   0.701592 0.413597 0.571368 0.282348
C27   C     C_R   0.671186 0.502328 0.498868 -0.131489
C28   C     C_R   0.700883 0.601736 0.432977 -0.245014
H8    H     H_    0.677851 0.672857 0.382539 0.150091
C29   C     C_R   0.760267 0.612964 0.436215 -0.068753
H9    H     H_    0.782570 0.690513 0.385065 0.163860
C30   C     C_R   0.790843 0.525000 0.506158 0.275420
H10   H     H_    0.556855 0.116946 0.338522 0.174154
C31   C     C_R   0.413454 0.122171 0.674203 -0.095991
H11   H     H_    0.409133 0.221382 0.671381 0.144707
C32   C     C_R   0.375981 0.054502 0.761531 -0.067053
H12   H     H_    0.345503 0.102090 0.825492 0.161312
C33   C     C_R   0.376786 0.925806 0.764359 -0.117413
H13   H     H_    0.347026 0.873359 0.830805 0.160143
C34   C     C_R   0.414989 0.864012 0.679687 -0.180186
H14   H     H_    0.412278 0.763929 0.682808 0.154342
C35   C     C_R   0.454192 0.930646 0.591662 0.103306
C36   C     C_R   0.453643 0.061834 0.589605 0.097018
C37   C     C_R   0.492112 0.128337 0.499440 -0.070551
C38   C     C_R   0.527764 0.066079 0.408302 -0.123282
H15   H     H_    0.557137 0.892254 0.340015 0.151108
C39   C     C_R   0.528000 0.938301 0.409431 -0.160582
C40   C     C_R   0.492683 0.870347 0.501944 -0.066779
H16   H     H_    0.424318 0.388367 0.129391 0.179034
C41   C     C_R   0.587272 0.631209 0.145371 -0.138130
H17   H     H_    0.582506 0.666722 0.248435 0.189203
C42   C     C_R   0.640103 0.653502 0.082440 -0.217666
H18   H     H_    0.675626 0.694213 0.140427 0.172889
C43   C     C_R   0.645722 0.635272 0.941405 -0.135022
H19   H     H_    0.685918 0.665807 0.892756 0.199885
C44   C     C_R   0.596368 0.617723 0.862854 0.285360
C45   C     C_R   0.544992 0.562530 0.925654 0.151213
C46   C     C_R   0.543273 0.564372 0.074978 0.180314
N3    N     N_R   0.500540 0.501210 0.147910 -0.198753
C47   C     C_R   0.458366 0.439113 0.074272 -0.023408
H20   H     H_    0.423711 0.390567 0.872587 0.135902
C48   C     C_R   0.458037 0.440226 0.926759 -0.045169
N4    N     N_R   0.500560 0.501290 0.852040 -0.193670
N5    N     N_R   0.672948 0.309333 0.639402 0.130115
O13   O     O_R   0.628140 0.253445 0.584542 -0.371437
O14   O     O_R   0.695563 0.260402 0.747399 -0.315506
Br1   Br    Br    0.601333 0.751949 0.732940 -0.489616
N6    N     N_R   0.319807 0.273253 0.450911 0.121806
O15   O     O_R   0.361446 0.263873 0.361436 -0.376260
O16   O     O_R   0.300034 0.174157 0.515083 -0.317130
N7    N     N_R   0.198080 0.288956 0.447822 0.165560
O17   O     O_R   0.153414 0.260557 0.524886 -0.325792
O18   O     O_R   0.208231 0.221729 0.338144 -0.257001

loop_
_geom_bond_atom_site_label_1
_geom_bond_atom_site_label_2
_geom_bond_distance
_ccdc_geom_bond_type
N5    O13   1.300729 A    
C34   C35   1.416031 A    
C7    C10   1.405578 A    
C41   C42   1.383105 A    
C41   H17   1.067162 S    
C26   N5    1.439084 S    
C8    C9    1.408506 A    
C31   C36   1.416105 A    
C21   C22   1.414458 A    
C46   N3    1.372499 A    
Cu1   Cu2   2.709796 S    
C25   C26   1.402274 A    
C48   N4    1.367574 A    
Cu1   O7    1.934067 S    
C15   C16   1.395626 A    
Cu2   N3    2.036616 S    
C17   N2    1.370192 A    
O4    C2    1.301802 A    
O7    C4    1.301272 A    
C31   C32   1.392880 A    
Cu1   N4    2.036231 S    
C10   H1    1.083376 S    
C16   H4    1.083360 S    
C5    N1    1.371384 A    
C7    C8    1.408525 A    
C20   H6    1.081620 S    
C33   C34   1.393111 A    
O5    C3    1.299717 A    
C44   Br1   1.919853 S    
C45   N4    1.402303 A    
C17   O11   1.349642 S    
N1    C6    1.371464 A    
C12   C13   1.408909 A    
C39   C40   1.396058 A    
C33   H13   1.082609 S    
C43   H19   1.084740 S    
C29   C30   1.399441 A    
C36   C37   1.417272 A    
C32   H12   1.082625 S    
C10   C11   1.395187 A    
C20   C21   1.398173 A    
N7    O17   1.301349 A    
O3    Cu1   1.939509 S    
C23   N7    1.437446 S    
C41   C46   1.406680 A    
C27   C28   1.401065 A    
C43   C44   1.394961 A    
C5    C9    1.403644 A    
C11   H2    1.083377 S    
C1    C37   1.446683 S    
C32   C33   1.388762 A    
C34   H14   1.078165 S    
C37   C38   1.394590 A    
H20   C48   1.081531 S    
C19   C20   1.388530 A    
N6    O15   1.300814 A    
C3    C40   1.447960 S    
C14   C15   1.405355 A    
H10   C38   1.084176 S    
C28   H8    1.081664 S    
C28   C29   1.392289 A    
C42   H18   1.081517 S    
N2    C18   1.369926 A    
N6    O16   1.301416 A    
C25   H7    1.083171 S    
Cu2   O8    1.939509 S    
C6    C7    1.403297 A    
C12   C17   1.402833 A    
C13   C14   1.409087 A    
N7    O18   1.301558 A    
C42   C43   1.376374 A    
C22   N6    1.438857 S    
C19   C24   1.397310 A    
O3    C2    1.304270 A    
C47   C48   1.421191 A    
O8    C4    1.305430 A    
N3    C47   1.368574 A    
C2    C21   1.461829 S    
N5    O14   1.301445 A    
C6    O10   1.349672 S    
C29   H9    1.082840 S    
C19   H5    1.083210 S    
C22   C23   1.414993 A    
C25   C30   1.401544 A    
C14   C18   1.403547 A    
Cu1   O5    1.957296 S    
O1    Cu1   1.953351 S    
O2    Cu2   1.957294 S    
C45   C46   1.438366 A    
O6    C3    1.299121 A    
O4    Cu2   1.934069 S    
C15   H3    1.083380 S    
C5    O9    1.349642 S    
C9    C16   1.405661 A    
C18   O12   1.349503 S    
N2    C24   1.436100 S    
O2    C1    1.300666 A    
N1    C30   1.437812 S    
C35   C40   1.418001 A    
C31   H11   1.079743 S    
C4    C27   1.463163 S    
C8    C13   1.411786 A    
C35   C36   1.415058 A    
H15   C39   1.084175 S    
H16   C47   1.081387 S    
C44   C45   1.444779 A    
C23   C24   1.413035 A    
Cu2   O6    1.953352 S    
C26   C27   1.415426 A    
C38   C39   1.377709 A    
C11   C12   1.405167 A    
O1    C1    1.297112 A    
