data_mof_unit_218.cif
_audit_creation_date              2012-12-10T17:43:21-0500
_audit_creation_method            fapswitch 2.2
_symmetry_space_group_name_H-M    P1
_symmetry_Int_Tables_number       1
_space_group_crystal_system       triclinic
_cell_length_a                    15.003249
_cell_length_b                    13.690575
_cell_length_c                    10.646123
_cell_angle_alpha                 91.782347
_cell_angle_beta                  89.105445
_cell_angle_gamma                 90.276218
_cell_volume                      2185.40180652

loop_
_atom_site_label
_atom_site_type_symbol
_atom_type_description
_atom_site_fract_x
_atom_site_fract_y
_atom_site_fract_z
_atom_type_partial_charge
C1    C     C_R   0.328827 0.499771 0.497924 0.808455
C2    C     C_R   0.671126 0.500267 0.500242 0.788975
C3    C     C_R   0.952988 0.500879 0.498598 -0.065584
C4    C     C_R   0.046549 0.501223 0.497715 -0.080701
C5    C     C_R   0.906957 0.487618 0.383969 -0.000824
C6    C     C_R   0.092622 0.513699 0.612168 -0.020778
C7    C     C_R   0.951613 0.527841 0.727999 0.336500
C8    C     C_R   0.048621 0.478674 0.268178 0.320238
C9    C     C_R   0.044932 0.529922 0.726014 0.419193
C10   C     C_R   0.954741 0.472689 0.269442 0.371989
C11   C     C_R   0.438110 0.794861 0.570783 -0.027006
C12   C     C_R   0.559539 0.205265 0.425042 0.016617
C13   C     C_R   0.560433 0.791841 0.426464 0.007911
C14   C     C_R   0.440535 0.208186 0.574987 -0.008045
C15   C     C_R   0.561546 0.894893 0.424068 -0.004590
C16   C     C_R   0.438820 0.105161 0.576215 -0.008472
C17   C     C_R   0.437637 0.897939 0.574166 -0.002422
C18   C     C_R   0.561237 0.102165 0.423596 -0.017012
C19   C     C_R   0.499868 0.948224 0.499570 0.091590
C20   C     C_R   0.500060 0.051874 0.499918 0.082521
C21   C     C_R   0.622555 0.945677 0.348313 -0.198473
C22   C     C_R   0.377337 0.054371 0.651161 -0.203922
C23   C     C_R   0.376604 0.951675 0.649952 -0.210420
C24   C     C_R   0.622220 0.048371 0.347797 -0.200152
C25   C     C_R   0.504005 0.498397 0.259775 0.889195
C26   C     C_R   0.500089 0.502050 0.741103 0.856095
C27   C     C_3   0.431033 0.538693 0.051696 0.444911
C28   C     C_3   0.578497 0.462798 0.952108 0.386902
C29   C     C_3   0.499419 0.595962 0.973282 0.420704
C30   C     C_3   0.510358 0.406990 0.032311 0.405632
C31   C     C_3   0.431995 0.450043 0.958914 -0.481868
C32   C     C_3   0.576375 0.551360 0.046512 -0.367595
C33   C     C_3   0.501339 0.507393 0.878180 -0.286771
C34   C     C_3   0.507109 0.495312 0.124045 -0.170710
C35   C     C_R   0.813770 0.491429 0.386082 -0.198241
C36   C     C_R   0.185751 0.509651 0.610626 -0.201677
C37   C     C_R   0.767323 0.500896 0.499844 -0.070024
C38   C     C_R   0.232488 0.499644 0.497164 -0.077807
C39   C     C_R   0.812023 0.510777 0.613091 -0.219378
C40   C     C_R   0.187782 0.491523 0.383453 -0.171676
C41   C     C_R   0.905207 0.513191 0.614217 -0.037404
C42   C     C_R   0.094387 0.490647 0.382308 -0.009746
Cu1   Cu    Cu3+1 0.500000 0.597420 0.500000 0.938354
Cu2   Cu    Cu3+1 0.500000 0.402580 0.500000 0.944179
H1    H     H_    0.371978 0.412788 0.921137 0.167239
H2    H     H_    0.635710 0.589786 0.085189 0.159233
H3    H     H_    0.776352 0.487427 0.299850 0.158580
H4    H     H_    0.222804 0.514011 0.697185 0.146495
H5    H     H_    0.773175 0.517160 0.699362 0.168876
H6    H     H_    0.226324 0.484264 0.296741 0.182565
H7    H     H_    0.389625 0.755178 0.625959 0.119828
H8    H     H_    0.605734 0.245077 0.366328 0.143790
H9    H     H_    0.607696 0.749779 0.369413 0.133617
H10   H     H_    0.394210 0.250254 0.633626 0.127517
H11   H     H_    0.670393 0.905997 0.289264 0.140114
H12   H     H_    0.329424 0.094055 0.709989 0.135389
H13   H     H_    0.328381 0.914319 0.708362 0.136296
H14   H     H_    0.669752 0.085701 0.288287 0.136765
N1    N     N_R   0.500000 0.743810 0.500000 -0.187496
N2    N     N_R   0.500000 0.256190 0.500000 -0.186046
O1    O     O_R   0.370260 0.582280 0.500030 -0.575136
O2    O     O_R   0.629740 0.417720 0.499970 -0.592264
O3    O     O_R   0.629740 0.582280 0.499970 -0.587950
O4    O     O_R   0.370260 0.417720 0.500030 -0.585919
O5    O     O_R   0.499980 0.582260 0.316850 -0.568426
O6    O     O_R   0.500020 0.417740 0.683150 -0.588307
O7    O     O_R   0.500020 0.582260 0.683150 -0.606077
O8    O     O_R   0.499980 0.417740 0.316850 -0.558987
O9    O     O_3   0.354475 0.571846 0.119152 -0.625314
C43   C     C_3   0.304598 0.637794 0.049607 0.083330
H15   H     H_    0.234304 0.612724 0.051987 0.176558
H16   H     H_    0.324504 0.640256 0.948303 0.137814
C44   C     C_3   0.309019 0.739464 0.113940 -0.258230
H17   H     H_    0.267687 0.739823 0.201545 0.204364
H18   H     H_    0.378588 0.756843 0.141247 0.266284
C45   C     C_3   0.276221 0.818961 0.028827 -0.950439
H19   H     H_    0.316995 0.820098 0.940845 0.261098
H20   H     H_    0.282276 0.891239 0.078184 0.261559
H21   H     H_    0.205232 0.806618 0.005354 0.242882
O10   O     O_3   0.659686 0.431762 0.894526 -0.620173
C46   C     C_3   0.657699 0.330353 0.867180 0.083275
H22   H     H_    0.593731 0.307185 0.823576 0.152752
H23   H     H_    0.668168 0.290401 0.955053 0.170970
C47   C     C_3   0.732909 0.303470 0.774456 -0.334701
H24   H     H_    0.722680 0.341587 0.685556 0.242151
H25   H     H_    0.797956 0.327108 0.814015 0.236481
C48   C     C_3   0.734814 0.193635 0.745270 -0.939867
H26   H     H_    0.745957 0.153111 0.832402 0.249635
H27   H     H_    0.789890 0.176516 0.677380 0.262707
H28   H     H_    0.670922 0.169169 0.702894 0.263193
O11   O     O_3   0.487899 0.698596 0.973005 -0.630680
C49   C     C_3   0.530607 0.745826 0.872924 0.072392
H29   H     H_    0.521657 0.825494 0.891723 0.163176
H30   H     H_    0.495358 0.730864 0.785160 0.172675
C50   C     C_3   0.631036 0.726451 0.860505 -0.374818
H31   H     H_    0.662183 0.740735 0.953068 0.220270
H32   H     H_    0.643243 0.649369 0.830061 0.225725
C51   C     C_3   0.674073 0.792596 0.763727 -0.901388
H33   H     H_    0.645388 0.777243 0.669706 0.276554
H34   H     H_    0.746797 0.779049 0.757840 0.242763
H35   H     H_    0.663359 0.870703 0.790908 0.251314
O12   O     O_3   0.523575 0.313224 0.080805 -0.618291
C52   C     C_3   0.477868 0.239129 0.012194 0.029154
H36   H     H_    0.526671 0.180546 0.987562 0.152403
H37   H     H_    0.449638 0.262328 0.921754 0.124372
C53   C     C_3   0.404638 0.196363 0.095650 -0.287406
H38   H     H_    0.433477 0.175350 0.186487 0.234324
H39   H     H_    0.352928 0.252647 0.115714 0.219860
C54   C     C_3   0.361819 0.106321 0.033241 -0.946538
H40   H     H_    0.333681 0.124701 0.941221 0.254449
H41   H     H_    0.307132 0.079206 0.094542 0.255621
H42   H     H_    0.411854 0.047330 0.018610 0.263737
O13   O     O_3   0.907930 0.530386 0.843971 -0.565095
C55   C     C_3   0.866132 0.621808 0.868649 0.103727
H43   H     H_    0.794902 0.606385 0.890149 0.183024
H44   H     H_    0.867981 0.671894 0.787876 0.080883
C56   C     C_3   0.908139 0.674012 0.983140 -0.260617
H45   H     H_    0.936799 0.620070 0.046604 0.299982
H46   H     H_    0.962698 0.722426 0.951145 0.177170
C57   C     C_3   0.841073 0.736997 0.057725 -0.962244
H47   H     H_    0.813565 0.793846 0.997268 0.256268
H48   H     H_    0.874794 0.773830 0.138450 0.259281
H49   H     H_    0.786092 0.691001 0.094892 0.260679
O14   O     O_3   0.095830 0.483725 0.155412 -0.593351
C58   C     C_3   0.102268 0.390280 0.095821 0.132748
H50   H     H_    0.047325 0.381644 0.027585 0.213947
H51   H     H_    0.099309 0.329305 0.163190 0.087843
C59   C     C_3   0.190819 0.382850 0.023335 -0.324454
H52   H     H_    0.199174 0.446400 0.962005 0.262402
H53   H     H_    0.246489 0.384024 0.090918 0.211938
C60   C     C_3   0.195218 0.289294 0.941746 -0.962933
H54   H     H_    0.187899 0.224296 0.000980 0.263020
H55   H     H_    0.260354 0.285254 0.891065 0.250132
H56   H     H_    0.141460 0.288574 0.871133 0.268428
O15   O     O_3   0.088653 0.547877 0.837723 -0.555500
C61   C     C_3   0.115854 0.646930 0.844461 -0.363091
H57   H     H_    0.072739 0.697131 0.791667 0.139177
H58   H     H_    0.185728 0.654429 0.810525 0.155971
H59   H     H_    0.113254 0.672015 0.944278 0.191830
O16   O     O_3   0.910501 0.459800 0.156833 -0.555980
C62   C     C_3   0.882229 0.361367 0.143119 -0.311675
H60   H     H_    0.822477 0.346625 0.202309 0.159688
H61   H     H_    0.935476 0.308513 0.165180 0.114123
H62   H     H_    0.863413 0.347223 0.043833 0.208325

loop_
_geom_bond_atom_site_label_1
_geom_bond_atom_site_label_2
_ccdc_geom_bond_type
C48   H26   S    
C59   C60   S    
C27   C29   S    
C44   H17   S    
Cu2   O6    S    
C19   C20   A    
C45   H21   S    
C8    C42   A    
C60   H56   S    
C35   H3    S    
C59   H52   S    
C6    C9    A    
C46   H22   S    
C50   C51   S    
Cu1   O3    S    
O15   C61   S    
C39   C41   A    
Cu2   O4    S    
C15   C19   A    
C17   C23   A    
C4    C42   A    
C18   C24   A    
C26   O7    A    
C35   C37   A    
C45   H20   S    
C29   C32   S    
C54   H41   S    
C30   C31   S    
C53   H38   S    
C29   C33   S    
C23   H13   S    
C46   H23   S    
C48   H28   S    
C62   H60   S    
C3    C41   A    
C50   H31   S    
C58   C59   S    
C47   C48   S    
C43   H15   S    
C27   O9    S    
C57   H49   S    
Cu1   O5    S    
C25   C34   S    
C40   C42   A    
C44   H18   S    
O9    C43   S    
C25   O8    A    
C10   O16   S    
C61   H59   S    
C11   N1    A    
C49   H30   S    
C12   H8    S    
C57   H48   S    
C55   H43   S    
C13   H9    S    
C27   C34   S    
O16   C62   S    
C30   C34   S    
C27   C31   S    
C26   O6    A    
C28   C32   S    
C25   O5    A    
C45   H19   S    
C61   H58   S    
C54   H42   S    
O11   C49   S    
C21   H11   S    
C56   H46   S    
C8    O14   S    
C22   H12   S    
Cu2   O2    S    
C49   C50   S    
C1    O1    A    
C32   C34   S    
Cu1   Cu2   S    
Cu1   O7    S    
C26   C33   S    
C16   C20   A    
C30   O12   S    
C43   C44   S    
C31   C33   S    
C52   H37   S    
C47   H24   S    
C1    C38   S    
C13   N1    A    
C9    O15   S    
C4    C6    A    
C39   H5    S    
C28   C33   S    
C51   H34   S    
C13   C15   A    
C58   H50   S    
C44   C45   S    
C14   C16   A    
C56   C57   S    
C3    C4    A    
C1    O4    A    
C3    C5    A    
C29   O11   S    
C46   C47   S    
C57   H47   S    
Cu1   O1    S    
O13   C55   S    
C7    C9    A    
C2    O3    A    
C11   C17   A    
C16   C22   A    
C14   H10   S    
C32   H2    S    
C8    C10   A    
C47   H25   S    
O10   C46   S    
C60   H55   S    
C59   H53   S    
C55   H44   S    
C50   H32   S    
C62   H62   S    
Cu1   N1    S    
C51   H35   S    
C14   N2    A    
C7    O13   S    
C62   H61   S    
C5    C10   A    
C37   C39   A    
C54   H40   S    
C36   C38   A    
C38   C40   A    
C2    C37   S    
C53   H39   S    
Cu2   N2    S    
C40   H6    S    
C5    C35   A    
C28   C30   S    
C49   H29   S    
C17   C19   A    
C6    C36   A    
C36   H4    S    
C52   C53   S    
C18   C20   A    
C7    C41   A    
C11   H7    S    
O12   C52   S    
C28   O10   S    
C55   C56   S    
Cu2   O8    S    
C12   N2    A    
C2    O2    A    
C15   C21   A    
C24   H14   S    
C51   H33   S    
C31   H1    S    
C21   C24   A    
C12   C18   A    
C52   H36   S    
C58   H51   S    
C48   H27   S    
C22   C23   A    
C61   H57   S    
C43   H16   S    
C56   H45   S    
C60   H54   S    
O14   C58   S    
C53   C54   S    
