data_mof_unit_1804.cif
_audit_creation_date              2013-03-05T15:44:58-0500
_audit_creation_method            fapswitch 2.2
_symmetry_space_group_name_H-M    P1
_symmetry_Int_Tables_number       1
_space_group_crystal_system       triclinic
_cell_length_a                    10.998744
_cell_length_b                    10.94603
_cell_length_c                    18.796071
_cell_angle_alpha                 90.450944
_cell_angle_beta                  89.439432
_cell_angle_gamma                 119.932587
_cell_volume                      1960.95976306

loop_
_atom_site_label
_atom_site_type_symbol
_atom_site_description
_atom_site_fract_x
_atom_site_fract_y
_atom_site_fract_z
_atom_type_partial_charge
O1    O     O_R   0.766500 0.250040 0.579790 -0.515222
O2    O     O_R   0.798570 0.516780 0.574780 -0.462457
C1    C     C_R   0.866865 0.636317 0.604468 0.567762
O3    O     O_R   0.984000 0.732950 0.581090 -0.536488
O4    O     O_R   0.218600 0.700890 0.574760 -0.526653
C2    C     C_R   0.274998 0.636046 0.602092 0.585721
O5    O     O_R   0.249390 0.515350 0.579940 -0.435892
O6    O     O_R   0.982790 0.280900 0.573700 -0.498219
C3    C     C_R   0.857939 0.219463 0.600269 0.524968
O7    O     O_R   0.766600 0.251130 0.419260 -0.515933
O8    O     O_R   0.798660 0.517790 0.425980 -0.499826
C4    C     C_R   0.870187 0.636724 0.395639 0.549978
O9    O     O_R   0.984100 0.734040 0.420570 -0.522865
O10   O     O_R   0.218690 0.701900 0.425960 -0.507699
C5    C     C_R   0.265489 0.630316 0.394428 0.555939
O11   O     O_R   0.249490 0.516440 0.419420 -0.509236
O12   O     O_R   0.982880 0.281910 0.424890 -0.513495
C6    C     C_R   0.864631 0.234834 0.394347 0.535382
Cr1   Cr    Cr6+3 0.791660 0.390250 0.499930 1.062347
Cr2   Cr    Cr6+3 0.098520 0.708290 0.500540 1.013784
Cr3   Cr    Cr6+3 0.109770 0.401430 0.499480 1.064830
O13   O     O_3   0.999980 0.499990 0.499980 -0.272002
C7    C     C_R   0.296177 0.761116 0.714112 -0.177392
H1    H     H_    0.244894 0.813365 0.690406 0.162916
C8    C     C_R   0.309513 0.765579 0.787752 0.177512
C9    C     C_R   0.357856 0.682070 0.819763 -0.051919
C10   C     C_R   0.389398 0.593085 0.776173 -0.013157
C11   C     C_R   0.398128 0.609192 0.702677 0.166405
C12   C     C_R   0.337759 0.681724 0.671833 -0.053123
C13   C     C_R   0.841985 0.152782 0.818448 -0.035891
C14   C     C_R   0.052172 0.121880 0.808794 -0.030872
C15   C     C_R   0.136580 0.086679 0.767808 -0.042637
C16   C     C_R   0.118549 0.069116 0.694698 -0.081240
C17   C     C_R   0.020651 0.093204 0.661635 -0.076381
C18   C     C_R   0.932720 0.126547 0.702001 -0.002488
C19   C     C_R   0.942541 0.134345 0.777579 -0.013303
H2    H     H_    0.215413 0.071921 0.793273 0.180311
H3    H     H_    0.178712 0.035404 0.662989 0.117305
H4    H     H_    0.077713 0.142358 0.864382 0.190249
C20   C     C_R   0.715307 0.128425 0.708709 0.003860
C21   C     C_R   0.737227 0.166529 0.780731 0.001637
C22   C     C_R   0.584944 0.090146 0.677620 -0.075141
C23   C     C_R   0.488779 0.114882 0.713452 -0.070985
C24   C     C_R   0.521079 0.177441 0.780114 -0.040263
C25   C     C_R   0.645793 0.207117 0.812987 -0.066839
C26   C     C_R   0.827856 0.140818 0.668012 -0.039333
H5    H     H_    0.007306 0.075760 0.604758 0.128751
H6    H     H_    0.667968 0.259033 0.864294 0.130765
H7    H     H_    0.391423 0.088941 0.688527 0.112627
H8    H     H_    0.559039 0.044279 0.624786 0.134029
H9    H     H_    0.446493 0.197100 0.807803 0.149222
C27   C     C_R   0.848972 0.551256 0.725693 -0.070352
H10   H     H_    0.874858 0.473394 0.706329 0.118969
C28   C     C_R   0.836454 0.565022 0.798470 -0.081102
H11   H     H_    0.852508 0.498879 0.835246 0.099857
C29   C     C_R   0.807505 0.668094 0.823102 0.106473
C30   C     C_R   0.790310 0.756717 0.775648 -0.062117
H12   H     H_    0.765806 0.835431 0.795099 0.100842
C31   C     C_R   0.805669 0.744859 0.703157 -0.079634
H13   H     H_    0.794664 0.814672 0.666667 0.123891
C32   C     C_R   0.835268 0.642485 0.678361 0.082261
C33   C     C_R   0.251939 0.535334 0.275060 -0.127977
H14   H     H_    0.207128 0.430893 0.297864 0.176258
C34   C     C_R   0.256032 0.547429 0.201731 0.176938
C35   C     C_R   0.316614 0.682846 0.170974 -0.010485
C36   C     C_R   0.343254 0.800523 0.214602 -0.015108
C37   C     C_R   0.336600 0.784956 0.288527 -0.165379
H15   H     H_    0.357843 0.873582 0.322716 0.173891
C38   C     C_R   0.296396 0.654014 0.318766 -0.044450
C39   C     C_R   0.799224 0.264049 0.275013 -0.099705
H16   H     H_    0.756069 0.326497 0.296580 0.151609
C40   C     C_R   0.795885 0.244275 0.202417 -0.093494
H17   H     H_    0.745889 0.286887 0.169296 0.139113
C41   C     C_R   0.848187 0.161897 0.173602 0.074242
C42   C     C_R   0.913849 0.108394 0.217433 -0.071916
H18   H     H_    0.953877 0.043080 0.195968 0.165758
C43   C     C_R   0.919778 0.130899 0.290374 -0.138765
H19   H     H_    0.968751 0.088179 0.324116 0.130192
C44   C     C_R   0.857123 0.203778 0.319342 0.025029
C45   C     C_R   0.963747 0.718813 0.276635 -0.133460
H20   H     H_    0.068965 0.774803 0.297978 0.148649
C46   C     C_R   0.948262 0.719091 0.204113 -0.130743
H21   H     H_    0.040829 0.779934 0.171507 0.179509
C47   C     C_R   0.814072 0.651142 0.174684 0.017365
C48   C     C_R   0.695837 0.570911 0.218126 -0.143330
H22   H     H_    0.590909 0.517786 0.196287 0.162522
C49   C     C_R   0.711923 0.567732 0.291326 -0.148776
H23   H     H_    0.620633 0.506825 0.324777 0.142450
C50   C     C_R   0.845700 0.646284 0.320882 0.022739
O14   O     O_R   0.895110 0.806860 0.920430 -0.473112
O15   O     O_R   0.872260 0.046970 0.925000 -0.513441
C51   C     C_R   0.807810 0.103073 0.894026 0.524371
O16   O     O_R   0.691430 0.085060 0.918550 -0.506235
O17   O     O_R   0.451490 0.822460 0.925250 -0.439200
C52   C     C_R   0.398182 0.700555 0.895132 0.575819
O18   O     O_R   0.413330 0.603360 0.920440 -0.483345
O19   O     O_R   0.676110 0.626250 0.926750 -0.517921
C53   C     C_R   0.797548 0.690921 0.897664 0.539885
O20   O     O_R   0.895350 0.809870 0.080950 -0.502298
O21   O     O_R   0.872490 0.049760 0.073800 -0.482233
C54   C     C_R   0.807649 0.106239 0.102403 0.567766
O22   O     O_R   0.691680 0.088070 0.079070 -0.510096
O23   O     O_R   0.451720 0.825250 0.074050 -0.469052
C55   C     C_R   0.389930 0.703415 0.102330 0.580484
O24   O     O_R   0.413580 0.606370 0.080960 -0.460224
O25   O     O_R   0.676340 0.629040 0.075550 -0.510107
C56   C     C_R   0.797130 0.693011 0.104098 0.540197
Cr4   Cr    Cr6+3 0.874790 0.925890 0.000070 1.093121
Cr5   Cr    Cr6+3 0.574120 0.948670 0.999300 1.121474
Cr6   Cr    Cr6+3 0.551420 0.625320 0.000920 1.087693
O26   O     O_3   0.666780 0.833290 0.000090 -0.298639
N1    N     N_R   0.201804 0.421799 0.158923 0.089113
O27   O     O_R   0.218487 0.317329 0.178457 -0.355551
O28   O     O_R   0.132955 0.410274 0.100974 -0.330803
C57   C     C_2   0.372953 0.938814 0.185838 0.590826
O29   O     O_2   0.318090 0.944454 0.130613 -0.486675
O30   O     O_R   0.457788 0.062419 0.224071 -0.710317
H24   H     H_    0.468100 0.149582 0.199856 0.343232
N2    N     N_R   0.250025 0.834108 0.828944 0.070028
O31   O     O_R   0.327384 0.939777 0.870470 -0.334238
O32   O     O_R   0.123417 0.806908 0.815325 -0.384348
C58   C     C_2   0.405252 0.476695 0.805261 0.654519
O33   O     O_2   0.310395 0.383802 0.840162 -0.523537
O34   O     O_R   0.529083 0.474836 0.794135 -0.675239
H25   H     H_    0.543296 0.417766 0.831705 0.314078
N3    N     N_R   0.454870 0.540800 0.658555 0.112967
O35   O     O_R   0.539780 0.610281 0.606489 -0.362092
O36   O     O_R   0.401736 0.404690 0.661094 -0.307979

loop_
_geom_bond_atom_site_label_1
_geom_bond_atom_site_label_2
_geom_bond_distance
_ccdc_geom_bond_type
C49   H23   1.083593 S    
C42   H18   1.083437 S    
C54   O22   1.270926 A    
C18   C19   1.424380 A    
C29   C53   1.434347 S    
O24   Cr6   2.061861 S    
N1    O28   1.301675 A    
O19   C53   1.277589 A    
O4    Cr2   1.960008 S    
C43   H19   1.083403 S    
C24   C25   1.391979 A    
C20   C26   1.396946 A    
O20   Cr4   2.073338 S    
O8    Cr1   1.951436 S    
C9    C10   1.435089 A    
N3    O35   1.301286 A    
C7    C12   1.405173 A    
C11   C12   1.395772 A    
C27   C32   1.406498 A    
Cr5   O26   1.979652 S    
O4    C2    1.266428 A    
C45   H20   1.083151 S    
C30   C31   1.384380 A    
O25   C56   1.273938 A    
C1    C32   1.437648 S    
C5    O11   1.262568 A    
C47   C56   1.450747 S    
C29   C30   1.404413 A    
C17   C18   1.406320 A    
C45   C50   1.402961 A    
Cr6   O26   1.977375 S    
N1    O27   1.301338 A    
C33   C34   1.383833 A    
C52   O18   1.253927 A    
C11   N3    1.443619 S    
C6    C44   1.441054 S    
C57   O30   1.398409 S    
C7    H1    1.083821 S    
C13   C21   1.429510 A    
C39   H16   1.082838 S    
N2    O32   1.298200 A    
C36   C37   1.398002 A    
O2    Cr1   1.941573 S    
C3    C26   1.482084 S    
Cr3   O13   1.980374 S    
C8    N2    1.435629 S    
C55   O24   1.274512 A    
C10   C58   1.478834 S    
C27   C28   1.388036 A    
O12   C6    1.275843 A    
C43   C44   1.393624 A    
C5    C38   1.453850 S    
C28   C29   1.391410 A    
O21   Cr4   1.939992 S    
C31   C32   1.389893 A    
C36   C57   1.485393 S    
C48   C49   1.391834 A    
C37   H15   1.084231 S    
O10   Cr2   1.942002 S    
C4    C50   1.447662 S    
Cr1   O13   1.986486 S    
O1    C3    1.271687 A    
C47   C48   1.407080 A    
C45   C46   1.375600 A    
C41   C42   1.408750 A    
O15   C51   1.291010 A    
O6    C3    1.287481 A    
C8    C9    1.407215 A    
C48   H22   1.083658 S    
O1    Cr1   2.071105 S    
O18   Cr6   2.080329 S    
O12   Cr3   1.952494 S    
C33   C38   1.399536 A    
C37   C38   1.395820 A    
C23   C24   1.384746 A    
C33   H14   1.083904 S    
C14   C15   1.393615 A    
O7    Cr1   2.060821 S    
O8    C4    1.272710 A    
C16   C17   1.383517 A    
C15   H2    1.075222 S    
C42   C43   1.387440 A    
C22   H8    1.083678 S    
C41   C54   1.445221 S    
C24   H9    1.075270 S    
C40   C41   1.393288 A    
C20   C21   1.400650 A    
Cr2   O13   1.976653 S    
C35   C36   1.424405 A    
C46   C47   1.396960 A    
C49   C50   1.399583 A    
C22   C23   1.383704 A    
C58   O34   1.386059 S    
C1    O3    1.268075 A    
C10   C11   1.390336 A    
C27   H10   1.084047 S    
O25   Cr6   1.959112 S    
C25   H6    1.081706 S    
C9    C52   1.470635 S    
C28   H11   1.082130 S    
N3    O36   1.301983 A    
O9    Cr2   2.078525 S    
C39   C44   1.404738 A    
C14   C19   1.412848 A    
O15   Cr4   1.953279 S    
C23   H7    1.072842 S    
C40   H17   1.083849 S    
O6    Cr3   1.946618 S    
C39   C40   1.377864 A    
N2    O31   1.299100 A    
O11   Cr3   2.065137 S    
C2    O5    1.272948 A    
O20   C56   1.270065 A    
O17   Cr5   1.952411 S    
C16   H3    1.077853 S    
Cr4   O26   1.986804 S    
C13   C19   1.434474 A    
O23   Cr5   1.946629 S    
C15   C16   1.388448 A    
O2    C1    1.266312 A    
O14   Cr4   2.059522 S    
O5    Cr3   2.074860 S    
O30   H24   1.013969 S    
C34   C35   1.412664 A    
O19   Cr6   1.942508 S    
C30   H12   1.083291 S    
O7    C6    1.262695 A    
C20   C22   1.409216 A    
C51   O16   1.275867 A    
C14   H4    1.077056 S    
C7    C8    1.391218 A    
O17   C52   1.287876 A    
C34   N1    1.437929 S    
O3    Cr2   2.060878 S    
C31   H13   1.082234 S    
C2    C12   1.451838 S    
C4    O9    1.263237 A    
C46   H21   1.083167 S    
O23   C55   1.273793 A    
C21   C25   1.416339 A    
O10   C5    1.272560 A    
O22   Cr5   2.069115 S    
O21   C54   1.267716 A    
C17   H5    1.082958 S    
C35   C55   1.472642 S    
C58   O33   1.221121 D    
C18   C26   1.399499 A    
O14   C53   1.259575 A    
C57   O29   1.223051 D    
O16   Cr5   2.066949 S    
O34   H25   1.009896 S    
C13   C51   1.501003 S    
