data_mof_unit_3954.cif
_audit_creation_date              2012-12-10T17:44:25-0500
_audit_creation_method            fapswitch 2.2
_symmetry_space_group_name_H-M    P1
_symmetry_Int_Tables_number       1
_space_group_crystal_system       triclinic
_cell_length_a                    13.827102
_cell_length_b                    15.053781
_cell_length_c                    17.256614
_cell_angle_alpha                 89.794815
_cell_angle_beta                  86.39009
_cell_angle_gamma                 88.634586
_cell_volume                      3583.81437944

loop_
_atom_site_label
_atom_site_type_symbol
_atom_type_description
_atom_site_fract_x
_atom_site_fract_y
_atom_site_fract_z
_atom_type_partial_charge
C1    C     C_R   0.498758 0.670908 0.497702 0.886319
C2    C     C_R   0.501018 0.329122 0.500013 0.877346
C3    C     C_R   0.451432 0.187759 0.561025 0.387541
C4    C     C_R   0.541845 0.812250 0.432471 0.334341
C5    C     C_R   0.502809 0.232641 0.500622 -0.276643
C6    C     C_R   0.494714 0.767488 0.495143 -0.243353
C7    C     C_R   0.552181 0.186105 0.439487 0.417991
C8    C     C_R   0.439689 0.814264 0.553518 0.413177
C9    C     C_R   0.550098 0.093097 0.438373 -0.046351
C10   C     C_R   0.438539 0.907418 0.552969 -0.034262
C11   C     C_R   0.495641 0.047045 0.497025 -0.084481
C12   C     C_R   0.493439 0.953373 0.494613 -0.073282
C13   C     C_R   0.443829 0.094518 0.558030 -0.076581
C14   C     C_R   0.543040 0.906059 0.432359 -0.061617
C15   C     C_R   0.599013 0.045940 0.377599 -0.216898
C16   C     C_R   0.382740 0.955060 0.609991 -0.247599
C17   C     C_R   0.591724 0.954228 0.371667 0.498151
C18   C     C_R   0.386550 0.047709 0.614639 0.521985
C19   C     C_R   0.202776 0.578779 0.496479 0.665518
C20   C     C_R   0.797162 0.421188 0.504995 0.705234
C21   C     C_R   0.208244 0.421517 0.502905 0.107454
C22   C     C_R   0.791951 0.578556 0.500245 0.019492
C23   C     C_R   0.487641 0.505309 0.650394 0.835326
C24   C     C_R   0.512397 0.490308 0.350127 0.854069
C25   C     C_R   0.105737 0.418577 0.501671 -0.112209
C26   C     C_R   0.894117 0.581590 0.504605 -0.115712
C27   C     C_R   0.051451 0.499411 0.502058 0.002932
C28   C     C_R   0.948434 0.500524 0.502520 0.008794
C29   C     C_R   0.100229 0.579483 0.502108 -0.147825
C30   C     C_R   0.899843 0.420244 0.501625 -0.129411
C31   C     C_R   0.055734 0.337639 0.500510 0.422305
C32   C     C_R   0.944643 0.662263 0.510567 0.421575
C33   C     C_R   0.954193 0.339630 0.499357 -0.195225
C34   C     C_R   0.046242 0.659736 0.507912 -0.197817
C35   C     C_R   0.482397 0.519614 0.735845 -0.340939
C36   C     C_R   0.517558 0.469937 0.265383 -0.318131
C37   C     C_R   0.564753 0.552588 0.773047 0.358619
C38   C     C_R   0.430876 0.452690 0.226383 0.342777
C39   C     C_R   0.560950 0.559106 0.853540 -0.094821
C40   C     C_R   0.435546 0.449253 0.145711 -0.127601
C41   C     C_R   0.478871 0.535977 0.898169 -0.019457
C42   C     C_R   0.522351 0.459966 0.102675 -0.009984
C43   C     C_R   0.396091 0.510590 0.863588 -0.128017
C44   C     C_R   0.608449 0.464927 0.139310 -0.109036
C45   C     C_R   0.395550 0.502105 0.783023 0.360975
C46   C     C_R   0.608482 0.466194 0.220243 0.356041
C47   C     C_2   0.481661 0.534316 0.982423 0.268598
C48   C     C_2   0.522590 0.463652 0.018127 0.272773
Cu1   Cu    Cu3+1 0.402580 0.500010 0.500000 1.098670
Cu2   Cu    Cu3+1 0.597420 0.499990 0.500000 1.068790
H1    H     H_    0.249788 0.360643 0.505509 0.225996
H2    H     H_    0.751017 0.639296 0.497082 0.205643
H3    H     H_    0.917246 0.277238 0.497275 0.226305
H4    H     H_    0.083578 0.721914 0.510697 0.229369
H5    H     H_    0.332566 0.495113 0.900620 0.206606
H6    H     H_    0.675868 0.467737 0.103955 0.214643
H7    H     H_    0.370671 0.439498 0.115100 0.191720
H8    H     H_    0.623452 0.580260 0.882818 0.217824
H9    H     H_    0.641817 0.080126 0.332543 0.210843
H10   H     H_    0.335420 0.920330 0.651545 0.201141
N1    N     N_R   0.256180 0.500070 0.500030 -0.231945
N2    N     N_R   0.743820 0.499930 0.499970 -0.225932
O1    O     O_R   0.417720 0.629750 0.499980 -0.516209
O2    O     O_R   0.582280 0.370250 0.500020 -0.521881
O3    O     O_R   0.582260 0.629730 0.499990 -0.607654
O4    O     O_R   0.417740 0.370270 0.500010 -0.574596
O5    O     O_R   0.408190 0.500030 0.613590 -0.498786
O6    O     O_R   0.591810 0.499970 0.386410 -0.522960
O7    O     O_R   0.572730 0.500000 0.613600 -0.544897
O8    O     O_R   0.427270 0.500000 0.386400 -0.544792
S1    S     S_3+6 0.675655 0.587769 0.725214 0.034594
O9    O     O_2   0.735263 0.507577 0.698554 -0.286809
O10   O     O_2   0.656708 0.645805 0.656658 -0.282731
O11   O     O_3   0.739821 0.646020 0.786374 -0.501365
H11   H     H_    0.799998 0.661575 0.755625 0.403651
S2    S     S_3+6 0.314505 0.430010 0.272043 0.042667
O12   O     O_2   0.323059 0.368092 0.339805 -0.259212
O13   O     O_2   0.265785 0.515286 0.299975 -0.310463
O14   O     O_3   0.243874 0.381740 0.209054 -0.472120
H12   H     H_    0.207513 0.431219 0.185298 0.377829
O15   O     O_3   0.247661 0.659542 0.492435 -0.549600
C49   C     C_3   0.255563 0.688198 0.414261 -0.187124
H13   H     H_    0.311229 0.647840 0.380191 0.212054
H14   H     H_    0.280024 0.757875 0.412865 0.184481
H15   H     H_    0.185333 0.687116 0.386104 0.156712
O16   O     O_3   0.751985 0.340688 0.511295 -0.542455
C50   C     C_3   0.742255 0.316284 0.590517 -0.240079
H16   H     H_    0.693961 0.363960 0.624255 0.199545
H17   H     H_    0.813416 0.310343 0.617004 0.167012
H18   H     H_    0.708283 0.250284 0.595043 0.177553
S3    S     S_3+6 0.117106 0.232681 0.501177 0.046028
O17   O     O_2   0.168513 0.223603 0.575143 -0.233969
O18   O     O_2   0.047215 0.158202 0.496444 -0.231040
O19   O     O_3   0.198900 0.226264 0.424865 -0.483650
H19   H     H_    0.246853 0.180077 0.439199 0.371723
S4    S     S_3+6 0.888153 0.769241 0.520949 0.000526
O20   O     O_2   0.951821 0.828966 0.564021 -0.223944
O21   O     O_2   0.877577 0.807294 0.441265 -0.312225
O22   O     O_3   0.779307 0.766723 0.570093 -0.519414
H20   H     H_    0.747906 0.825072 0.559896 0.370045
S5    S     S_3+6 0.724651 0.455203 0.259093 0.045088
O23   O     O_2   0.799467 0.425561 0.196945 -0.237092
O24   O     O_2   0.722532 0.387484 0.323360 -0.232357
O25   O     O_3   0.757239 0.553614 0.293268 -0.545043
H21   H     H_    0.816506 0.540475 0.321046 0.366487
S6    S     S_3+6 0.283471 0.470401 0.746715 0.049782
O26   O     O_2   0.297879 0.388011 0.698078 -0.238901
O27   O     O_2   0.209662 0.452219 0.812251 -0.247963
O28   O     O_3   0.240618 0.553728 0.692354 -0.493606
H22   H     H_    0.180578 0.530882 0.672045 0.369117
S7    S     S_3+6 0.574794 0.370571 0.966538 0.002552
O29   O     O_2   0.504949 0.336484 0.910960 -0.302883
O30   O     O_2   0.666254 0.397767 0.921963 -0.261286
O31   O     O_3   0.601378 0.289373 0.029509 -0.505750
H23   H     H_    0.631918 0.241070 0.996953 0.388925
S8    S     S_3+6 0.433771 0.629798 0.032789 0.007024
O32   O     O_2   0.335624 0.609712 0.070231 -0.275801
O33   O     O_2   0.499965 0.656297 0.094144 -0.280013
O34   O     O_3   0.422431 0.714138 0.969566 -0.508174
H24   H     H_    0.394146 0.764238 0.001164 0.385438
O35   O     O_3   0.408177 0.235794 0.622699 -0.483227
C51   C     C_3   0.478173 0.249745 0.677361 -0.148860
H25   H     H_    0.529426 0.301585 0.656631 0.103535
H26   H     H_    0.518814 0.187513 0.691323 0.119724
H27   H     H_    0.440718 0.273853 0.732273 0.228149
O36   O     O_3   0.573893 0.764433 0.366877 -0.577439
C52   C     C_3   0.672507 0.739515 0.370654 -0.073767
H28   H     H_    0.678299 0.667299 0.380726 0.187414
H29   H     H_    0.710314 0.774963 0.415846 0.172541
H30   H     H_    0.711097 0.752632 0.313614 0.232894
O37   O     O_3   0.604539 0.231701 0.381645 -0.524455
C53   C     C_3   0.544461 0.247856 0.319753 -0.206723
H31   H     H_    0.511226 0.186310 0.299141 0.143956
H32   H     H_    0.588909 0.275275 0.269994 0.216254
H33   H     H_    0.487015 0.297566 0.336938 0.168461
O38   O     O_3   0.379803 0.768933 0.606809 -0.534781
C54   C     C_3   0.430564 0.750336 0.673467 -0.211393
H34   H     H_    0.379301 0.722668 0.718832 0.215647
H35   H     H_    0.462005 0.810890 0.697735 0.146623
H36   H     H_    0.487955 0.699301 0.660472 0.174075
O39   O     O_3   0.637967 0.912279 0.308115 -0.557335
C55   C     C_3   0.579280 0.921922 0.244498 -0.174812
H37   H     H_    0.573482 0.992557 0.225801 0.138944
H38   H     H_    0.505807 0.894854 0.257914 0.176863
H39   H     H_    0.613489 0.883437 0.194935 0.213564
O40   O     O_3   0.327247 0.093532 0.669612 -0.487415
C56   C     C_3   0.347580 0.066004 0.745356 -0.194971
H40   H     H_    0.426725 0.056122 0.752313 0.119252
H41   H     H_    0.308163 0.004654 0.761752 0.162586
H42   H     H_    0.321076 0.118760 0.786668 0.220952

loop_
_geom_bond_atom_site_label_1
_geom_bond_atom_site_label_2
_ccdc_geom_bond_type
C25   C31   A    
C50   H16   S    
C26   C32   A    
S5    O23   D    
Cu1   O1    S    
C8    O38   S    
Cu2   O2    S    
Cu2   O3    S    
C23   O7    A    
S7    O29   D    
C55   H39   S    
S2    O14   S    
O15   C49   S    
C24   O8    A    
C39   C41   A    
C38   S2    S    
C54   H35   S    
O36   C52   S    
C13   C18   A    
C56   H41   S    
Cu2   O7    S    
S2    O13   D    
C27   C29   A    
S6    O26   D    
S4    O22   S    
S8    O32   D    
C17   O39   S    
C16   H10   S    
C23   O5    A    
Cu1   Cu2   S    
C56   H40   S    
O22   H20   S    
C2    O2    A    
C53   H31   S    
S4    O21   D    
C1    O3    A    
C31   C33   A    
C36   C46   A    
O28   H22   S    
C7    O37   S    
C3    C13   A    
C40   C42   A    
S5    O24   D    
C4    C14   A    
C41   C43   A    
C14   C17   A    
C42   C44   A    
C1    O1    A    
O25   H21   S    
C54   H36   S    
C44   C46   A    
O31   H23   S    
C33   H3    S    
C47   S8    S    
C46   S5    S    
Cu1   N1    S    
O11   H11   S    
C1    C6    S    
C56   H42   S    
S2    O12   D    
C4    C6    A    
Cu1   O4    S    
S3    O17   D    
C5    C7    A    
O16   C50   S    
C20   C30   A    
C18   O40   S    
C39   H8    S    
C29   C34   A    
C20   O16   S    
C32   C34   A    
C52   H29   S    
C22   N2    A    
C43   C45   A    
C44   H6    S    
C47   C48   D    
C11   C12   A    
S4    O20   D    
C41   C47   S    
S7    O30   D    
C42   C48   S    
C9    C11   A    
O35   C51   S    
C10   C12   A    
C53   H32   S    
C43   H5    S    
C32   S4    S    
C12   C14   A    
C34   H4    S    
S5    O25   S    
C49   H14   S    
Cu1   O8    S    
C37   S1    S    
Cu2   N2    S    
C55   H38   S    
C2    C5    S    
C51   H26   S    
O37   C53   S    
C19   C29   A    
C3    C5    A    
C21   H1    S    
C45   S6    S    
C22   H2    S    
O40   C56   S    
C7    C9    A    
C21   C25   A    
C15   H9    S    
C40   H7    S    
Cu1   O5    S    
C30   C33   A    
C35   C37   A    
S3    O18   D    
C21   N1    A    
C8    C10   A    
C31   S3    S    
O38   C54   S    
C2    O4    A    
S1    O11   S    
C6    C8    A    
O34   H24   S    
C15   C17   A    
C52   H28   S    
C25   C27   A    
C49   H15   S    
C54   H34   S    
C26   C28   A    
C24   C36   S    
S8    O34   S    
C4    O36   S    
C51   H27   S    
C36   C38   A    
C9    C15   A    
C52   H30   S    
S1    O9    D    
C37   C39   A    
C10   C16   A    
O39   C55   S    
S3    O19   S    
C38   C40   A    
C11   C13   A    
S6    O27   D    
C19   N1    A    
C53   H33   S    
C28   C30   A    
S8    O33   D    
S7    O31   S    
C20   N2    A    
O19   H19   S    
C23   C35   S    
C24   O6    A    
O14   H12   S    
C48   S7    S    
C16   C18   A    
C49   H13   S    
C22   C26   A    
C50   H18   S    
S1    O10   D    
C27   C28   A    
C50   H17   S    
C55   H37   S    
C51   H25   S    
C19   O15   S    
Cu2   O6    S    
C3    O35   S    
S6    O28   S    
C35   C45   A    
