data_mof_unit_620.cif
_audit_creation_date              2013-03-05T15:47:46-0500
_audit_creation_method            fapswitch 2.2
_symmetry_space_group_name_H-M    P1
_symmetry_Int_Tables_number       1
_space_group_crystal_system       triclinic
_cell_length_a                    10.791009
_cell_length_b                    12.969956
_cell_length_c                    11.676227
_cell_angle_alpha                 99.801767
_cell_angle_beta                  93.620928
_cell_angle_gamma                 90.195798
_cell_volume                      1606.9556703

loop_
_atom_site_label
_atom_site_type_symbol
_atom_site_description
_atom_site_fract_x
_atom_site_fract_y
_atom_site_fract_z
_atom_type_partial_charge
O1    O     O_R   0.506570 0.354460 0.582000 -0.610103
O2    O     O_R   0.493430 0.645540 0.418000 -0.610098
O3    O     O_R   0.490940 0.341410 0.386200 -0.541579
O4    O     O_R   0.509060 0.658590 0.613800 -0.541574
C1    C     C_R   0.503664 0.299269 0.478545 0.819473
C2    C     C_R   0.496339 0.700731 0.521455 0.819448
O5    O     O_R   0.327470 0.506520 0.597900 -0.554123
O6    O     O_R   0.672530 0.493480 0.402100 -0.554111
O7    O     O_R   0.311840 0.493460 0.402100 -0.599636
O8    O     O_R   0.688160 0.506540 0.597900 -0.599646
C3    C     C_R   0.262839 0.500394 0.500479 0.804782
C4    C     C_R   0.737161 0.499605 0.499520 0.804797
Cu1   Cu    Cu3+1 0.509250 0.507730 0.615930 0.983652
Cu2   Cu    Cu3+1 0.490750 0.492270 0.384070 0.983654
H1    H     H_    0.108869 0.832605 0.407893 0.143642
H2    H     H_    0.891134 0.167404 0.592137 0.143642
C5    C     C_R   0.132157 0.322602 0.550879 -0.158327
C6    C     C_R   0.867844 0.677400 0.449131 -0.158327
C7    C     C_R   0.068974 0.235557 0.574608 -0.135966
C8    C     C_R   0.931028 0.764448 0.425410 -0.135964
C9    C     C_R   0.940189 0.235258 0.574179 -0.115114
C10   C     C_R   0.059813 0.764748 0.425843 -0.115111
C11   C     C_R   0.874111 0.321968 0.549945 -0.086721
C12   C     C_R   0.125890 0.678036 0.450070 -0.086734
C13   C     C_R   0.936335 0.411510 0.525726 0.075226
C14   C     C_R   0.063666 0.588491 0.474280 0.075220
C15   C     C_R   0.066910 0.411954 0.526591 0.065090
C16   C     C_R   0.933091 0.588047 0.473414 0.065087
C17   C     C_R   0.870854 0.499474 0.498883 -0.161774
C18   C     C_R   0.129146 0.500525 0.501119 -0.161778
H3    H     H_    0.232243 0.318523 0.551048 0.123342
H4    H     H_    0.767758 0.681478 0.448961 0.123339
H5    H     H_    0.120209 0.167944 0.592921 0.140726
H6    H     H_    0.879793 0.832064 0.407105 0.140729
H7    H     H_    0.774049 0.317467 0.549590 0.141644
H8    H     H_    0.225952 0.682538 0.450429 0.141637
C19   C     C_R   0.486498 0.813993 0.533447 -0.172201
C20   C     C_R   0.513513 0.186008 0.466553 -0.172197
C21   C     C_R   0.569113 0.016163 0.362462 -0.242667
C22   C     C_R   0.430905 0.983837 0.637541 -0.242675
C23   C     C_R   0.565778 0.124687 0.369608 0.326668
C24   C     C_R   0.434248 0.875315 0.630399 0.326687
C25   C     C_R   0.469239 0.138444 0.555164 -0.290275
C26   C     C_R   0.530766 0.861556 0.444833 -0.290271
C27   C     C_R   0.475156 0.030763 0.548602 0.109000
C28   C     C_R   0.524854 0.969237 0.451397 0.108991
H9    H     H_    0.571155 0.814590 0.370814 0.160864
H10   H     H_    0.428846 0.185409 0.629181 0.160861
H11   H     H_    0.609349 0.968645 0.288836 0.174737
H12   H     H_    0.390677 0.031355 0.711172 0.174718
N1    N     N_R   0.523180 0.519350 0.790130 -0.184975
N2    N     N_R   0.476820 0.480650 0.209870 -0.184971
C29   C     C_R   0.388523 0.397623 0.021600 -0.298815
C30   C     C_R   0.611477 0.602377 0.978400 -0.298803
C31   C     C_R   0.398552 0.407911 0.143826 0.145199
C32   C     C_R   0.601447 0.592090 0.856174 0.145226
C33   C     C_R   0.547270 0.544921 0.157172 0.058642
C34   C     C_R   0.452730 0.455079 0.842828 0.058633
C35   C     C_R   0.540254 0.537370 0.034303 0.057749
C36   C     C_R   0.459746 0.462630 0.965697 0.057756
H13   H     H_    0.390679 0.398077 0.789257 0.115171
H14   H     H_    0.609321 0.601923 0.210743 0.115170
H15   H     H_    0.656537 0.642703 0.814067 0.133891
H16   H     H_    0.343463 0.357297 0.185933 0.133885
H17   H     H_    0.325660 0.339208 0.971330 0.147698
H18   H     H_    0.674339 0.660792 0.028670 0.147702
N3    N     N_R   0.379680 0.829193 0.719178 0.129055
O9    O     O_R   0.393403 0.874905 0.827497 -0.341113
O10   O     O_R   0.299055 0.752893 0.690457 -0.362855
N4    N     N_R   0.620376 0.170810 0.280843 0.129051
O11   O     O_R   0.606750 0.125062 0.172529 -0.341113
O12   O     O_R   0.700955 0.247145 0.309586 -0.362864

loop_
_geom_bond_atom_site_label_1
_geom_bond_atom_site_label_2
_geom_bond_distance
_ccdc_geom_bond_type
N4    O12   1.301173 A    
O7    Cu2   1.955066 S    
N2    C31   1.364781 A    
H2    C9    1.082761 S    
C30   H18   1.083272 S    
C4    C17   1.443173 S    
C13   C15   1.408419 A    
C29   H17   1.083271 S    
C25   H10   1.085409 S    
C29   C31   1.407768 A    
C14   C16   1.408419 A    
C26   H9    1.085413 S    
O5    Cu1   1.959311 S    
O6    C4    1.286582 A    
C8    H6    1.082887 S    
C31   H16   1.081751 S    
C19   C26   1.398938 A    
C22   C24   1.396481 A    
C2    C19   1.456627 S    
C6    C16   1.418252 A    
C35   C36   1.406434 A    
C21   C23   1.396491 A    
N1    C34   1.371431 A    
C12   H8    1.080855 S    
C1    C20   1.456629 S    
C15   C18   1.412602 A    
O5    C3    1.286580 A    
C25   C27   1.387543 A    
C12   C14   1.417759 A    
O7    C3    1.284165 A    
O2    C2    1.293530 A    
O3    Cu2   1.961042 S    
O8    C4    1.284164 A    
C34   H13   1.082803 S    
C21   C28   1.397393 A    
O1    C1    1.293527 A    
Cu1   N1    2.009806 S    
C10   C12   1.393416 A    
C16   C17   1.412602 A    
C7    C9    1.389401 A    
C29   C36   1.404979 A    
C8    C10   1.389402 A    
C14   C18   1.413664 A    
C6    C8    1.393299 A    
C30   C35   1.404978 A    
C11   C13   1.417759 A    
C9    C11   1.393419 A    
C13   C17   1.413667 A    
C24   N3    1.436992 S    
C5    H3    1.081402 S    
C11   H7    1.080856 S    
C30   C32   1.407768 A    
C21   H11   1.084425 S    
C32   H15   1.081752 S    
C33   C35   1.418429 A    
C6    H4    1.081402 S    
N2    C33   1.371429 A    
N3    O10   1.301160 A    
C34   C36   1.418429 A    
N3    O9    1.301341 A    
C5    C15   1.418253 A    
C27   C28   1.408553 A    
C22   H12   1.084424 S    
C33   H14   1.082804 S    
N4    O11   1.301371 A    
O1    Cu1   1.959483 S    
C22   C27   1.397392 A    
C20   C23   1.417438 A    
O4    C2    1.289441 A    
N1    C32   1.364779 A    
C7    H5    1.082893 S    
O2    Cu2   1.959481 S    
C19   C24   1.417428 A    
O6    Cu2   1.959312 S    
C5    C7    1.393300 A    
Cu1   Cu2   2.675049 S    
H1    C10   1.082758 S    
Cu2   N2    2.009806 S    
C20   C25   1.398942 A    
O4    Cu1   1.961040 S    
C3    C18   1.443172 S    
C26   C28   1.387547 A    
C23   N4    1.437006 S    
O3    C1    1.289441 A    
O8    Cu1   1.955066 S    
