data_mof_unit_4759.cif
_audit_creation_date              2012-12-10T18:57:43-0500
_audit_creation_method            fapswitch 2.2
_symmetry_space_group_name_H-M    P1
_symmetry_Int_Tables_number       1
_space_group_crystal_system       triclinic
_cell_length_a                    10.881422
_cell_length_b                    10.813379
_cell_length_c                    9.57494
_cell_angle_alpha                 89.936001
_cell_angle_beta                  89.246173
_cell_angle_gamma                 90.337219
_cell_volume                      1126.51691757

loop_
_atom_site_label
_atom_site_type_symbol
_atom_type_description
_atom_site_fract_x
_atom_site_fract_y
_atom_site_fract_z
_atom_type_partial_charge
C1    C     C_R   0.497780 0.262561 0.500113 0.779689
C2    C     C_R   0.487599 0.129497 0.501908 -0.091566
C3    C     C_R   0.437781 0.064406 0.388898 -0.223014
C4    C     C_R   0.437115 0.935205 0.390128 -0.208957
C5    C     C_R   0.488499 0.871048 0.502668 -0.087055
C6    C     C_R   0.522010 0.937277 0.621567 0.125587
C7    C     C_3   0.638178 0.933612 0.703211 -0.498704
C8    C     C_3   0.637632 0.073766 0.701291 -0.464331
C9    C     C_R   0.605353 0.522093 0.070855 0.207400
C10   C     C_R   0.397967 0.466991 0.075730 -0.104732
C11   C     C_R   0.397468 0.468662 0.927289 -0.073794
C12   C     C_R   0.265150 0.495757 0.501098 0.864196
C13   C     C_R   0.607086 0.515121 0.924234 0.173067
C14   C     C_3   0.698161 0.617549 0.907371 -0.579516
C15   C     C_3   0.687908 0.634905 0.065843 0.443994
C16   C     C_R   0.498495 0.737668 0.500255 0.805800
C17   C     C_R   0.734737 0.497475 0.499005 0.842790
C18   C     C_2   0.934029 0.435384 0.399563 0.318308
C19   C     C_2   0.867672 0.498772 0.495619 -0.379210
C20   C     C_2   0.067954 0.457633 0.391504 -0.185642
C21   C     C_2   0.133038 0.479006 0.506637 -0.389678
C22   C     C_R   0.521636 0.064562 0.620718 0.135950
Cu1   Cu    Cu3+1 0.499990 0.499980 0.640670 0.934644
Cu2   Cu    Cu3+1 0.500010 0.500020 0.359330 0.957043
H1    H     H_    0.714835 0.114866 0.639293 0.190673
H2    H     H_    0.314716 0.441303 0.131386 0.138353
H3    H     H_    0.313697 0.445097 0.873910 0.139658
H4    H     H_    0.788714 0.581809 0.871077 0.178833
H5    H     H_    0.664246 0.694430 0.842667 0.209070
H6    H     H_    0.910997 0.560400 0.569836 0.120335
H7    H     H_    0.114038 0.453098 0.290498 0.163284
H8    H     H_    0.089996 0.475788 0.609558 0.148791
H9    H     H_    0.402721 0.112818 0.298825 0.159425
H10   H     H_    0.399107 0.885938 0.302563 0.159954
H11   H     H_    0.623193 0.896608 0.810073 0.199973
H12   H     H_    0.716302 0.892489 0.643726 0.196475
H13   H     H_    0.622398 0.115311 0.806218 0.201676
N1    N     N_R   0.500780 0.500930 0.147930 -0.190953
N2    N     N_R   0.500780 0.500890 0.852020 -0.172245
O1    O     O_R   0.500000 0.319640 0.618810 -0.576423
O2    O     O_R   0.500010 0.319680 0.381230 -0.588038
O3    O     O_R   0.321940 0.499980 0.618760 -0.592973
O4    O     O_R   0.321950 0.500020 0.381180 -0.594371
O5    O     O_R   0.499990 0.680320 0.618770 -0.585425
O6    O     O_R   0.500000 0.680360 0.381190 -0.555411
O7    O     O_R   0.678050 0.499980 0.618820 -0.583420
O8    O     O_R   0.678060 0.500020 0.381240 -0.541247
N3    N     N_2   0.875313 0.349752 0.306603 -0.411366
H14   H     H_    0.802026 0.301357 0.349517 0.251158
C23   C     C_3   0.950676 0.276147 0.213182 -0.744769
H15   H     H_    0.891043 0.213282 0.151854 0.227680
H16   H     H_    0.016081 0.219340 0.273688 0.234325
H17   H     H_    0.001141 0.336624 0.137970 0.221847
N4    N     N_2   0.803179 0.612490 0.137663 -0.387870
H18   H     H_    0.839572 0.526319 0.117679 0.259549
C24   C     C_3   0.896168 0.708788 0.131432 -0.721651
H19   H     H_    0.983381 0.673390 0.174883 0.226453
H20   H     H_    0.867704 0.788949 0.196173 0.237735
H21   H     H_    0.913431 0.738424 0.021750 0.217124
N5    N     N_2   0.629460 0.751714 0.107065 -0.370273
H22   H     H_    0.686138 0.827278 0.091478 0.249437
C25   C     C_3   0.505216 0.778424 0.061669 -0.699969
H23   H     H_    0.485951 0.878377 0.076033 0.203660
H24   H     H_    0.436829 0.725925 0.124734 0.257260
H25   H     H_    0.492161 0.757065 0.949760 0.221405

loop_
_geom_bond_atom_site_label_1
_geom_bond_atom_site_label_2
_ccdc_geom_bond_type
C16   O6    A    
C2    C22   A    
C8    C22   S    
Cu1   Cu2   S    
N4    C24   S    
C25   H23   S    
C8    H1    S    
C8    H13   S    
C15   N5    S    
C16   O5    A    
Cu2   N1    S    
C1    O1    A    
C24   H21   S    
C11   H3    S    
C10   N1    A    
C10   H2    S    
N3    C23   S    
C23   H15   S    
C9    C15   S    
C7    C8    S    
Cu1   O7    S    
C13   C14   S    
C20   C21   D    
C11   N2    A    
Cu2   O2    S    
Cu2   O8    S    
C6    C7    S    
Cu1   O3    S    
N5    H22   S    
Cu1   N2    S    
Cu2   O6    S    
C1    C2    S    
C1    O2    A    
N3    H14   S    
C17   C19   S    
C24   H20   S    
C2    C3    A    
C12   O4    A    
C18   C20   S    
C5    C6    A    
C21   H8    S    
C4    H10   S    
C13   N2    A    
C23   H17   S    
C10   C11   A    
C3    H9    S    
C14   H5    S    
C25   H24   S    
Cu1   O1    S    
C6    C22   A    
C15   N4    S    
C17   O7    A    
C3    C4    A    
N5    C25   S    
C18   C19   D    
C7    H12   S    
C23   H16   S    
C24   H19   S    
Cu2   O4    S    
C9    C13   A    
C14   C15   S    
C9    N1    A    
C5    C16   S    
C12   O3    A    
C25   H25   S    
C14   H4    S    
N4    H18   S    
C19   H6    S    
C7    H11   S    
C12   C21   S    
Cu1   O5    S    
C17   O8    A    
C4    C5    A    
C20   H7    S    
C18   N3    S    
