data_mof_unit_290.cif
_audit_creation_date              2012-12-11T16:12:47-0500
_audit_creation_method            fapswitch 2.2
_symmetry_space_group_name_H-M    P1
_symmetry_Int_Tables_number       1
_space_group_crystal_system       triclinic
_cell_length_a                    7.02921
_cell_length_b                    21.197383
_cell_length_c                    23.662282
_cell_angle_alpha                 90.045606
_cell_angle_beta                  90.444756
_cell_angle_gamma                 89.674265
_cell_volume                      3525.53609323

loop_
_atom_site_label
_atom_site_type_symbol
_atom_type_description
_atom_site_fract_x
_atom_site_fract_y
_atom_site_fract_z
_atom_type_partial_charge
O1    O     O_R   0.615270 0.806540 0.192260 -0.535038
O2    O     O_R   0.384730 0.193460 0.807740 -0.532871
O3    O     O_R   0.384730 0.193460 0.692260 -0.535452
O4    O     O_R   0.615270 0.806540 0.307740 -0.532948
O5    O     O_R   0.115270 0.693460 0.307740 -0.538389
O6    O     O_R   0.884730 0.306540 0.692260 -0.538008
O7    O     O_R   0.884730 0.306540 0.807740 -0.535018
O8    O     O_R   0.115270 0.693460 0.192260 -0.533483
O9    O     O_R   0.285500 0.813970 0.307340 -0.536562
O10   O     O_R   0.714500 0.186030 0.692660 -0.534222
O11   O     O_R   0.714500 0.186030 0.807340 -0.537294
O12   O     O_R   0.285500 0.813970 0.192660 -0.534277
O13   O     O_R   0.785500 0.686030 0.192660 -0.537691
O14   O     O_R   0.214500 0.313970 0.807340 -0.534240
O15   O     O_R   0.214500 0.313970 0.692660 -0.535799
O16   O     O_R   0.785500 0.686030 0.307340 -0.534873
C1    C     C_R   0.453159 0.828924 0.326691 0.724432
C2    C     C_R   0.546785 0.171088 0.673308 0.723917
C3    C     C_R   0.547652 0.171045 0.826725 0.722682
C4    C     C_R   0.452407 0.828975 0.173296 0.726146
C5    C     C_R   0.952853 0.671091 0.173301 0.719960
C6    C     C_R   0.047087 0.328921 0.826685 0.726295
C7    C     C_R   0.045694 0.328874 0.673417 0.723609
C8    C     C_R   0.954317 0.671085 0.326550 0.728737
O17   O     O_3   0.448760 0.710460 0.250000 -0.371317
O18   O     O_3   0.551240 0.289540 0.750000 -0.369910
O19   O     O_3   0.948760 0.789540 0.250000 -0.368229
O20   O     O_3   0.051240 0.210460 0.750000 -0.368647
V1    V     V_3+5 0.173900 0.757330 0.250000 1.486698
V2    V     V_3+5 0.826100 0.242670 0.750000 1.483973
V3    V     V_3+5 0.673900 0.742670 0.250000 1.484136
V4    V     V_3+5 0.326100 0.257330 0.750000 1.486415
C9    C     C_3   0.096221 0.528385 0.544378 0.222059
C10   C     C_3   0.904453 0.474731 0.458155 0.212785
C11   C     C_3   0.909602 0.468236 0.045865 0.191228
C12   C     C_3   0.079686 0.526246 0.958811 0.222579
C13   C     C_3   0.592028 0.968162 0.954467 0.191555
C14   C     C_3   0.418343 0.026576 0.041104 0.222699
C15   C     C_3   0.406465 0.031806 0.453891 0.191233
C16   C     C_3   0.582153 0.973987 0.541206 0.222875
C17   C     C_3   0.904210 0.552902 0.519210 0.220251
C18   C     C_3   0.095306 0.450280 0.483257 0.209763
C19   C     C_3   0.107033 0.449797 0.021515 0.190540
C20   C     C_3   0.882559 0.544382 0.982682 0.198081
C21   C     C_3   0.394437 0.949989 0.978450 0.190152
C22   C     C_3   0.615577 0.044462 0.017583 0.198283
C23   C     C_3   0.604088 0.050386 0.478450 0.190301
C24   C     C_3   0.384808 0.955721 0.517139 0.197948
C25   C     C_1   0.961613 0.625702 0.372212 -0.156144
C26   C     C_1   0.038340 0.374764 0.628167 -0.160373
C27   C     C_1   0.044651 0.373999 0.872858 -0.153503
C28   C     C_1   0.954583 0.625048 0.127892 -0.154526
C29   C     C_1   0.454119 0.874142 0.127155 -0.153936
C30   C     C_1   0.546653 0.124981 0.872157 -0.155088
C31   C     C_1   0.543905 0.126085 0.627103 -0.153450
C32   C     C_1   0.455256 0.874975 0.372071 -0.150642
C33   C     C_3   0.170113 0.518678 0.483669 0.158131
C34   C     C_3   0.829983 0.484459 0.518816 0.156278
C35   C     C_3   0.830760 0.473396 0.984792 0.142820
C36   C     C_3   0.157906 0.520634 0.019759 0.139295
C37   C     C_3   0.669275 0.973429 0.015696 0.142947
C38   C     C_3   0.341700 0.020883 0.979987 0.139360
C39   C     C_3   0.330184 0.026685 0.514878 0.141714
C40   C     C_3   0.657790 0.979577 0.480351 0.138691
C41   C     C_3   0.981259 0.543031 0.458464 -0.147783
C42   C     C_3   0.018823 0.459888 0.543853 -0.146981
C43   C     C_3   0.025709 0.455431 0.960372 -0.111892
C44   C     C_3   0.963493 0.539149 0.043683 -0.107749
C45   C     C_3   0.474190 0.955688 0.039765 -0.112665
C46   C     C_3   0.536285 0.039153 0.956413 -0.108290
C47   C     C_3   0.525366 0.044765 0.539501 -0.111614
C48   C     C_3   0.463216 0.960927 0.456227 -0.108222
C49   C     C_1   0.967212 0.588214 0.410913 0.100847
C50   C     C_1   0.032784 0.413149 0.590181 0.098003
C51   C     C_1   0.042796 0.410973 0.912139 0.133033
C52   C     C_1   0.952757 0.586458 0.089890 0.131775
C53   C     C_1   0.456461 0.911180 0.087926 0.133250
C54   C     C_1   0.547898 0.086407 0.910182 0.131447
C55   C     C_1   0.542227 0.089173 0.587785 0.132943
C56   C     C_1   0.453075 0.913581 0.410042 0.133308
Br1   Br    Br    0.780092 0.628160 0.548134 -0.369556
Br2   Br    Br    0.234388 0.376732 0.457172 -0.356418
Br3   Br    Br    0.247577 0.378069 0.051125 -0.409182
Br4   Br    Br    0.732600 0.613769 0.952591 -0.339538
Br5   Br    Br    0.254834 0.878529 0.948834 -0.407042
Br6   Br    Br    0.763907 0.113625 0.047860 -0.337596
Br7   Br    Br    0.739744 0.122284 0.448819 -0.412118
Br8   Br    Br    0.239182 0.886218 0.547177 -0.333670
Br9   Br    Br    0.220836 0.570616 0.607204 -0.367512
Br10  Br    Br    0.764817 0.435819 0.396509 -0.339773
Br11  Br    Br    0.802159 0.426683 0.111194 -0.379003
Br12  Br    Br    0.208444 0.567280 0.896825 -0.299271
Br13  Br    Br    0.702772 0.926167 0.889613 -0.374805
Br14  Br    Br    0.287358 0.068009 0.102773 -0.295457
Br15  Br    Br    0.295206 0.073138 0.388284 -0.376248
Br16  Br    Br    0.715070 0.933138 0.603386 -0.296538
N1    N     N_2   0.642560 0.463723 0.535482 -0.459166
H1    H     H_    0.608118 0.420131 0.519175 0.306136
C57   C     C_3   0.598134 0.469144 0.594803 -0.343484
H2    H     H_    0.445628 0.458332 0.600897 0.207074
H3    H     H_    0.627643 0.517455 0.610483 0.262646
H4    H     H_    0.680177 0.434367 0.620073 0.158280
N2    N     N_2   0.357527 0.534285 0.462999 -0.457206
H5    H     H_    0.391752 0.510327 0.426524 0.308045
C58   C     C_3   0.402278 0.600616 0.459765 -0.347462
H6    H     H_    0.554821 0.605868 0.449411 0.206490
H7    H     H_    0.372810 0.624540 0.500494 0.262706
H8    H     H_    0.320451 0.623837 0.425414 0.156422
N3    N     N_2   0.328741 0.551873 0.039405 -0.499100
H9    H     H_    0.430010 0.559420 0.009309 0.304620
C59   C     C_3   0.400923 0.533609 0.094298 -0.390865
H10   H     H_    0.521306 0.564620 0.106385 0.192932
H11   H     H_    0.451518 0.484299 0.093019 0.255233
H12   H     H_    0.289033 0.537981 0.126854 0.211384
N4    N     N_2   0.653178 0.447095 0.964034 -0.480823
H13   H     H_    0.535106 0.470381 0.978455 0.285003
C60   C     C_3   0.633072 0.379271 0.967751 -0.348960
H14   H     H_    0.492724 0.365428 0.949986 0.198315
H15   H     H_    0.643220 0.363442 0.012297 0.259240
H16   H     H_    0.742161 0.354292 0.942889 0.180633
N5    N     N_2   0.170046 0.052043 0.960041 -0.498249
H17   H     H_    0.066937 0.058839 0.989816 0.303259
C61   C     C_3   0.100947 0.034282 0.904701 -0.387063
H18   H     H_    0.979697 0.065296 0.892485 0.192138
H19   H     H_    0.052400 0.984909 0.905252 0.255717
H20   H     H_    0.213892 0.039142 0.872590 0.210822
N6    N     N_2   0.847678 0.947348 0.036721 -0.479321
H21   H     H_    0.964961 0.970448 0.022065 0.284792
C62   C     C_3   0.870116 0.879486 0.033612 -0.349093
H22   H     H_    0.011812 0.865925 0.050912 0.197786
H23   H     H_    0.858552 0.862981 0.989275 0.258547
H24   H     H_    0.763177 0.854924 0.059266 0.180044
N7    N     N_2   0.828851 0.948318 0.460896 -0.499804
H25   H     H_    0.931068 0.940374 0.491173 0.305087
C63   C     C_3   0.898914 0.966885 0.406251 -0.388468
H26   H     H_    0.019866 0.935887 0.394254 0.193436
H27   H     H_    0.948057 0.016160 0.407913 0.254489
H28   H     H_    0.786152 0.962784 0.373452 0.212829
N8    N     N_2   0.152765 0.053129 0.535473 -0.481383
H29   H     H_    0.034705 0.029750 0.521222 0.284905
C64   C     C_3   0.130214 0.120931 0.531360 -0.349446
H30   H     H_    0.990913 0.134965 0.549409 0.198136
H31   H     H_    0.136270 0.136372 0.486689 0.259640
H32   H     H_    0.240564 0.146122 0.555717 0.180790

loop_
_geom_bond_atom_site_label_1
_geom_bond_atom_site_label_2
_ccdc_geom_bond_type
O17   V3    S    
C63   H28   S    
O18   V4    S    
C16   C47   S    
O12   V1    S    
O19   V1    S    
C19   Br3   S    
C45   C53   S    
C59   H10   S    
C18   Br2   S    
C47   C55   S    
N1    H1    S    
C12   C43   S    
C61   H18   S    
O16   V3    S    
C58   H7    S    
O11   C3    A    
C24   C48   S    
C63   H26   S    
O8    V1    S    
C11   C35   S    
C27   C51   T    
C17   C34   S    
C60   H15   S    
C61   H19   S    
C46   C54   S    
C20   C35   S    
N4    H13   S    
C42   C50   S    
C21   C38   S    
O1    V3    S    
C41   C49   S    
C38   C46   S    
O3    C2    A    
O2    V4    S    
C36   N3    S    
N3    C59   S    
C35   C43   S    
C64   H30   S    
C34   C42   S    
C57   H2    S    
O11   V2    S    
N4    C60   S    
C10   C18   S    
C15   C48   S    
C24   Br8   S    
C11   C19   S    
O9    V1    S    
C62   H24   S    
C12   Br12  S    
O15   C7    A    
C14   C45   S    
O16   C8    A    
O7    V2    S    
C63   H27   S    
C13   C46   S    
N7    C63   S    
O12   C4    A    
C34   N1    S    
C16   Br16  S    
C18   C33   S    
N1    C57   S    
C9    C42   S    
O5    V1    S    
O17   V1    S    
C33   N2    S    
C58   H8    S    
C22   C46   S    
C22   C37   S    
C21   C45   S    
O20   V4    S    
C37   N6    S    
C60   H16   S    
O14   V4    S    
C23   C40   S    
C7    C26   S    
C17   C41   S    
C28   C52   T    
C15   C23   S    
O19   V3    S    
C24   C39   S    
C14   C38   S    
C23   Br7   S    
C29   C53   T    
N6    C62   S    
C19   C43   S    
C9    Br9   S    
C31   C55   T    
O10   V2    S    
C13   C37   S    
C10   Br10  S    
C32   C56   T    
C38   N5    S    
C17   Br1   S    
C14   Br14  S    
O8    C5    A    
C13   Br13  S    
C59   H11   S    
C1    C32   S    
C15   Br15  S    
N5    H17   S    
C19   C36   S    
O4    C1    A    
C2    C31   S    
C3    C30   S    
O9    C1    A    
O6    V2    S    
C39   C47   S    
O18   V2    S    
C10   C41   S    
N7    H25   S    
N2    C58   S    
C25   C49   T    
C12   C20   S    
C43   C51   S    
C23   C47   S    
C13   C21   S    
N6    H21   S    
C22   Br6   S    
C10   C34   S    
C62   H22   S    
C37   C45   S    
C8    C25   S    
C16   C24   S    
C40   N7    S    
O1    C4    A    
C9    C33   S    
C57   H3    S    
O2    C3    A    
C39   N8    S    
O13   V3    S    
C33   C41   S    
C4    C29   S    
C12   C36   S    
O15   V4    S    
C61   H20   S    
N8    H29   S    
C64   H32   S    
C44   C52   S    
O7    C6    A    
C15   C39   S    
C58   H6    S    
C16   C40   S    
C20   Br4   S    
C21   Br5   S    
C9    C17   S    
O14   C6    A    
C64   H31   S    
C48   C56   S    
C60   H14   S    
O13   C5    A    
C14   C22   S    
N8    C64   S    
C26   C50   T    
O5    C8    A    
C11   C44   S    
O10   C2    A    
O6    C7    A    
O20   V2    S    
C59   H12   S    
C40   C48   S    
O3    V4    S    
N5    C61   S    
O4    V3    S    
C20   C44   S    
C57   H4    S    
C36   C44   S    
C35   N4    S    
N2    H5    S    
C18   C42   S    
C30   C54   T    
N3    H9    S    
C5    C28   S    
C6    C27   S    
C62   H23   S    
C11   Br11  S    
