data_mof_unit_503.cif
_audit_creation_date              2012-10-26T17:13:11-0400
_audit_creation_method            fapswitch 2.2
_symmetry_space_group_name_H-M    P1
_symmetry_Int_Tables_number       1
_space_group_crystal_system       triclinic
_cell_length_a                    16.838338
_cell_length_b                    16.825244
_cell_length_c                    16.772463
_cell_angle_alpha                 67.428246
_cell_angle_beta                  67.679564
_cell_angle_gamma                 67.473796
_cell_volume                      3899.23643617

loop_
_atom_site_label
_atom_site_type_symbol
_atom_type_description
_atom_site_fract_x
_atom_site_fract_y
_atom_site_fract_z
_atom_type_partial_charge
C1    C     C_R   0.320275 0.957480 0.452968 0.010660
C2    C     C_R   0.675487 0.038159 0.554811 0.005898
C3    C     C_R   0.956334 0.452620 0.322074 0.013077
C4    C     C_R   0.046011 0.546887 0.677253 0.013256
C5    C     C_R   0.443809 0.324633 0.961415 0.014674
C6    C     C_R   0.548242 0.679151 0.040760 0.006487
C7    C     C_R   0.566177 0.989275 0.693658 0.011779
C8    C     C_R   0.427130 0.008254 0.312144 -0.013961
C9    C     C_R   0.688294 0.570856 0.991203 0.006428
C10   C     C_R   0.305661 0.433590 0.011846 -0.002763
C11   C     C_R   0.995218 0.688022 0.570467 0.003512
C12   C     C_R   0.008341 0.311017 0.428279 0.001135
C13   C     C_R   0.444377 0.997853 0.454979 0.028981
C14   C     C_R   0.543704 0.010210 0.550851 0.027735
C15   C     C_R   0.996209 0.452739 0.448186 0.031234
C16   C     C_R   0.009474 0.546304 0.549214 0.030416
C17   C     C_R   0.448371 0.456249 0.989213 0.030755
C18   C     C_R   0.545360 0.554720 0.000978 0.030955
C19   C     C_R   0.018956 0.829764 0.568570 0.850286
C20   C     C_R   0.981634 0.170089 0.431285 0.844057
C21   C     C_R   0.830029 0.568611 0.017793 0.844946
C22   C     C_R   0.166140 0.428769 0.991833 0.841545
C23   C     C_R   0.571069 0.008664 0.833635 0.841155
C24   C     C_R   0.431469 0.981390 0.170200 0.847388
C25   C     C_R   0.432865 0.170667 0.977950 0.830104
C26   C     C_R   0.564030 0.828077 0.029802 0.837101
C27   C     C_R   0.969271 0.436513 0.171953 0.839682
C28   C     C_R   0.030885 0.563418 0.828073 0.836071
C29   C     C_R   0.171831 0.969470 0.436377 0.841094
C30   C     C_R   0.829232 0.022152 0.566933 0.830589
C31   C     C_R   0.397537 0.987476 0.406757 0.072058
C32   C     C_R   0.595047 0.012997 0.599503 0.072189
C33   C     C_R   0.986569 0.405563 0.399783 0.069667
C34   C     C_R   0.017408 0.593593 0.598685 0.072266
C35   C     C_R   0.399512 0.405037 0.986942 0.076377
C36   C     C_R   0.593998 0.601431 0.011049 0.070352
C37   C     C_R   0.270623 0.954124 0.402826 -0.156901
C38   C     C_R   0.734142 0.022162 0.607107 -0.167706
C39   C     C_R   0.953436 0.403102 0.271308 -0.156008
C40   C     C_R   0.047169 0.596729 0.728714 -0.163279
C41   C     C_R   0.392134 0.265857 0.977757 -0.167470
C42   C     C_R   0.598090 0.729058 0.043887 -0.155407
C43   C     C_R   0.613703 0.998002 0.741936 -0.166732
C44   C     C_R   0.390760 0.979681 0.266470 -0.151548
C45   C     C_R   0.733958 0.608430 0.018980 -0.155133
C46   C     C_R   0.257587 0.386161 0.002708 -0.163506
C47   C     C_R   0.021390 0.733515 0.608849 -0.151646
C48   C     C_R   0.979840 0.266137 0.390958 -0.160466
C49   C     C_R   0.493296 0.953090 0.737682 -0.195450
C50   C     C_R   0.493070 0.054802 0.267467 -0.179715
C51   C     C_R   0.951405 0.733145 0.502330 -0.198175
C52   C     C_R   0.055539 0.265478 0.494287 -0.192436
C53   C     C_R   0.732309 0.502157 0.947544 -0.187782
C54   C     C_R   0.262072 0.504710 0.051021 -0.177342
C55   C     C_R   0.295950 0.929491 0.547525 -0.195902
C56   C     C_R   0.695129 0.074090 0.460346 -0.211295
C57   C     C_R   0.537634 0.304184 0.925791 -0.208014
C58   C     C_R   0.454328 0.702435 0.070900 -0.193157
C59   C     C_R   0.926862 0.547042 0.299200 -0.181904
C60   C     C_R   0.077164 0.452696 0.699124 -0.206857
C61   C     C_R   0.314553 0.947741 0.315272 0.119034
C62   C     C_R   0.703550 0.994261 0.701718 0.083308
C63   C     C_R   0.947248 0.315607 0.314854 0.112282
C64   C     C_R   0.053078 0.684329 0.685293 0.117111
C65   C     C_R   0.297975 0.296257 0.006031 0.086437
C66   C     C_R   0.685222 0.684820 0.050549 0.116985
C67   C     C_R   0.643497 0.073660 0.410433 -0.007535
C68   C     C_R   0.340602 0.940237 0.596896 -0.037124
C69   C     C_R   0.075080 0.404419 0.647495 -0.032803
C70   C     C_R   0.934396 0.595574 0.347190 -0.030652
C71   C     C_R   0.404769 0.655738 0.063850 -0.009928
C72   C     C_R   0.587870 0.353640 0.928443 -0.026100
C73   C     C_R   0.542380 0.063176 0.313976 0.002571
C74   C     C_R   0.439661 0.953698 0.691487 -0.022338
C75   C     C_R   0.308529 0.557081 0.052624 0.001089
C76   C     C_R   0.685301 0.453793 0.938377 -0.024740
C77   C     C_R   0.064704 0.310743 0.544233 -0.027606
C78   C     C_R   0.947418 0.688253 0.449403 -0.020314
C79   C     C_R   0.664886 0.106619 0.315315 0.179607
C80   C     C_R   0.311931 0.918454 0.692281 0.232447
C81   C     C_R   0.109658 0.309826 0.667628 0.230096
C82   C     C_R   0.908026 0.690963 0.322314 0.219396
C83   C     C_R   0.309964 0.680516 0.093534 0.175652
C84   C     C_R   0.682628 0.327967 0.900144 0.222507
C85   C     C_R   0.614159 0.102140 0.267526 0.225684
C86   C     C_R   0.359339 0.929525 0.738438 0.222510
C87   C     C_R   0.262028 0.631349 0.087857 0.223630
C88   C     C_R   0.730772 0.377731 0.904994 0.214422
C89   C     C_R   0.104644 0.263415 0.616184 0.219553
C90   C     C_R   0.918609 0.736371 0.370944 0.212709
C91   C     C_R   0.519287 0.032343 0.408421 -0.032851
C92   C     C_R   0.466206 0.979746 0.597214 -0.012747
C93   C     C_R   0.032238 0.405028 0.522650 -0.019608
C94   C     C_R   0.975618 0.593943 0.473484 -0.015996
C95   C     C_R   0.402617 0.532827 0.021505 -0.031066
C96   C     C_R   0.591104 0.479404 0.966810 -0.018688
C97   C     C_R   0.569235 0.038286 0.456444 -0.019636
C98   C     C_R   0.416411 0.973559 0.549679 -0.015190
C99   C     C_R   0.450882 0.581964 0.027455 -0.018878
C100  C     C_R   0.542553 0.429749 0.961404 -0.015151
C101  C     C_R   0.038204 0.451784 0.573649 -0.019101
C102  C     C_R   0.969349 0.547466 0.422476 -0.016301
Cu1   Cu    Cu3+1 0.995180 0.995180 0.424630 0.967128
Cu2   Cu    Cu3+1 0.004820 0.004820 0.575370 0.960102
Cu3   Cu    Cu3+1 0.995180 0.424630 0.995180 0.960201
Cu4   Cu    Cu3+1 0.004820 0.575370 0.004820 0.975215
Cu5   Cu    Cu3+1 0.424630 0.995180 0.995180 0.950831
Cu6   Cu    Cu3+1 0.575370 0.004820 0.004820 0.963616
H1    H     H_    0.481726 0.918033 0.807998 0.172563
H2    H     H_    0.505326 0.086671 0.196380 0.205160
H3    H     H_    0.917419 0.803302 0.491881 0.172131
H4    H     H_    0.087217 0.194672 0.505935 0.180090
H5    H     H_    0.803333 0.486886 0.918496 0.176388
H6    H     H_    0.191870 0.516076 0.086033 0.204006
H7    H     H_    0.245496 0.894134 0.582260 0.186651
H8    H     H_    0.749583 0.104042 0.425612 0.189821
H9    H     H_    0.571622 0.250912 0.893964 0.172406
H10   H     H_    0.420035 0.753767 0.105333 0.191040
H11   H     H_    0.892961 0.581937 0.247200 0.181049
H12   H     H_    0.107902 0.417452 0.753564 0.175820
O1    O     O_R   0.124540 0.978640 0.385460 -0.536893
O2    O     O_R   0.875460 0.021360 0.614540 -0.547328
O3    O     O_R   0.978640 0.385460 0.124540 -0.534379
O4    O     O_R   0.021360 0.614540 0.875460 -0.534925
O5    O     O_R   0.385460 0.124540 0.978640 -0.546593
O6    O     O_R   0.614540 0.875460 0.021360 -0.532601
O7    O     O_R   0.614540 0.021360 0.875460 -0.554301
O8    O     O_R   0.385460 0.978640 0.124540 -0.538142
O9    O     O_R   0.875460 0.614540 0.021360 -0.543801
O10   O     O_R   0.124540 0.385460 0.978640 -0.557875
O11   O     O_R   0.021360 0.875460 0.614540 -0.539436
O12   O     O_R   0.978640 0.124540 0.385460 -0.540303
O13   O     O_R   0.013780 0.867370 0.487190 -0.603930
O14   O     O_R   0.986220 0.132630 0.512810 -0.607369
O15   O     O_R   0.867370 0.487190 0.013780 -0.599780
O16   O     O_R   0.132630 0.512810 0.986220 -0.601412
O17   O     O_R   0.487190 0.013780 0.867370 -0.607098
O18   O     O_R   0.512810 0.986220 0.132630 -0.600783
O19   O     O_R   0.512810 0.132630 0.986220 -0.614434
O20   O     O_R   0.487190 0.867370 0.013780 -0.618270
O21   O     O_R   0.986220 0.512810 0.132630 -0.608661
O22   O     O_R   0.013780 0.487190 0.867370 -0.617480
O23   O     O_R   0.132630 0.986220 0.512810 -0.618877
O24   O     O_R   0.867370 0.013780 0.487190 -0.611128
I1    I     I_    0.276830 0.866029 0.272585 -0.387067
I2    I     I_    0.792406 0.911742 0.786375 -0.302101
I3    I     I_    0.865709 0.273260 0.276414 -0.382659
I4    I     I_    0.137223 0.725665 0.720372 -0.397344
I5    I     I_    0.214421 0.206981 0.088421 -0.312022
I6    I     I_    0.726430 0.719128 0.135851 -0.390630
N1    N     N_2   0.319950 0.924397 0.831429 -0.431864
H13   H     H_    0.359031 0.879848 0.873464 0.236171
C103  C     C_3   0.274213 0.010404 0.849951 -0.623424
H14   H     H_    0.224185 0.049947 0.811053 0.256362
H15   H     H_    0.238631 0.000577 0.922328 0.207780
H16   H     H_    0.322636 0.048488 0.832161 0.241009
N2    N     N_2   0.634487 0.139090 0.172272 -0.434200
H17   H     H_    0.654310 0.196971 0.146980 0.277678
C104  C     C_3   0.684960 0.075783 0.119475 -0.652740
H18   H     H_    0.654512 0.093038 0.064699 0.237990
H19   H     H_    0.685114 0.005840 0.160573 0.228579
H20   H     H_    0.755069 0.079606 0.089043 0.217301
N3    N     N_2   0.908476 0.830378 0.333754 -0.426496
H21   H     H_    0.866583 0.869679 0.376058 0.238193
C105  C     C_3   0.991268 0.853504 0.280590 -0.608274
H22   H     H_    0.025613 0.819471 0.226394 0.237485
H23   H     H_    0.977230 0.926806 0.248854 0.208291
H24   H     H_    0.036096 0.833692 0.323483 0.244077
N4    N     N_2   0.141865 0.168578 0.637387 -0.412022
H25   H     H_    0.190134 0.144562 0.585432 0.247324
C106  C     C_3   0.079251 0.115693 0.691911 -0.651058
H26   H     H_    0.073996 0.079317 0.651954 0.229800
H27   H     H_    0.011443 0.157869 0.718189 0.225124
H28   H     H_    0.103737 0.065715 0.749708 0.233730
N5    N     N_2   0.825717 0.344919 0.882851 -0.417281
H29   H     H_    0.860949 0.390009 0.837780 0.240678
C107  C     C_3   0.862633 0.284086 0.956922 -0.622250
H30   H     H_    0.810300 0.260835 0.017421 0.232967
H31   H     H_    0.912262 0.224312 0.936647 0.222103
H32   H     H_    0.896181 0.317630 0.974942 0.223166
N6    N     N_2   0.166829 0.653770 0.122053 -0.436748
H33   H     H_    0.141044 0.678201 0.177206 0.278145
C108  C     C_3   0.117878 0.704520 0.055135 -0.648795
H34   H     H_    0.046247 0.706899 0.086704 0.223200
H35   H     H_    0.143086 0.672882 0.999784 0.241084
H36   H     H_    0.123518 0.774068 0.026966 0.221919
N7    N     N_2   0.233846 0.888637 0.744059 -0.418389
H37   H     H_    0.183208 0.908897 0.714462 0.258287
C109  C     C_3   0.250245 0.796809 0.800035 -0.603149
H38   H     H_    0.185605 0.782438 0.842363 0.237979
H39   H     H_    0.289168 0.784567 0.846104 0.230323
H40   H     H_    0.287960 0.750137 0.757499 0.237627
N8    N     N_2   0.736816 0.145648 0.265583 -0.434216
H41   H     H_    0.736232 0.193827 0.289336 0.278047
C110  C     C_3   0.823381 0.082559 0.243930 -0.644616
H42   H     H_    0.872430 0.119467 0.194619 0.241803
H43   H     H_    0.820302 0.035829 0.213768 0.240242
H44   H     H_    0.846739 0.043385 0.305126 0.228896
N9    N     N_2   0.731961 0.249081 0.871078 -0.408937
H45   H     H_    0.708274 0.193797 0.907784 0.246736
C111  C     C_3   0.757509 0.263750 0.775042 -0.638983
H46   H     H_    0.800112 0.199915 0.758436 0.232408
H47   H     H_    0.796476 0.313785 0.740158 0.240879
H48   H     H_    0.697201 0.287737 0.750729 0.213466
N10   N     N_2   0.260978 0.752107 0.133467 -0.440989
H49   H     H_    0.280214 0.746257 0.187154 0.278780
C112  C     C_3   0.246271 0.840917 0.071639 -0.653164
H50   H     H_    0.194529 0.889248 0.108262 0.243312
H51   H     H_    0.222563 0.842902 0.017420 0.234649
H52   H     H_    0.308675 0.862013 0.041260 0.235889
N11   N     N_2   0.872471 0.744162 0.247409 -0.414310
H53   H     H_    0.893106 0.718505 0.193925 0.256085
C113  C     C_3   0.778541 0.792247 0.270377 -0.590266
H54   H     H_    0.759637 0.839239 0.208561 0.236309
H55   H     H_    0.763714 0.832745 0.315792 0.228435
H56   H     H_    0.737355 0.744256 0.304067 0.234710
N12   N     N_2   0.154678 0.260033 0.736143 -0.408443
H57   H     H_    0.201946 0.286048 0.734223 0.247136
C114  C     C_3   0.097178 0.233389 0.825241 -0.670102
H58   H     H_    0.138416 0.192532 0.873077 0.229965
H59   H     H_    0.058576 0.192271 0.826198 0.240315
H60   H     H_    0.050280 0.293099 0.847749 0.225665

loop_
_geom_bond_atom_site_label_1
_geom_bond_atom_site_label_2
_ccdc_geom_bond_type
C68   C80   A    
Cu4   O9    S    
C83   C87   A    
C106  H26   S    
C9    C45   A    
C105  H22   S    
C109  H40   S    
C18   C96   A    
N4    H25   S    
C6    C58   A    
C11   C47   A    
N3    H21   S    
C50   H2    S    
C12   C48   A    
Cu1   O24   S    
C55   C68   A    
C7    C49   A    
C75   C95   A    
N5    C107  S    
N10   H49   S    
C78   C90   A    
C106  H27   S    
C77   C89   A    
N2    H17   S    
C88   N5    S    
Cu2   O14   S    
Cu4   O21   S    
C57   H9    S    
C25   O19   A    
Cu5   O8    S    
C66   I6    S    
C26   O20   A    
C108  H35   S    
C12   C33   A    
C19   C47   S    
C58   C71   A    
Cu2   O2    S    
C3    C33   A    
C29   O23   A    
N6    H33   S    
C1    C31   A    
C30   O24   A    
Cu3   O3    S    
C2    C32   A    
C26   O6    A    
C74   C92   A    
Cu5   O20   S    
C109  H39   S    
C58   H10   S    
C61   I1    S    
C80   C86   A    
Cu1   Cu2   S    
C16   C34   A    
C54   H6    S    
C80   N7    S    
C24   O8    A    
C104  H18   S    
C27   C39   S    
C107  H31   S    
Cu2   O11   S    
C29   O1    A    
C10   C46   A    
C112  H52   S    
C59   H11   S    
Cu5   Cu6   S    
C104  H19   S    
C10   C35   A    
C17   C95   A    
C7    C43   A    
C103  H15   S    
Cu1   O12   S    
C76   C88   A    
C71   C83   A    
C1    C37   A    
Cu3   O15   S    
C110  H44   S    
C81   C89   A    
N6    C108  S    
C3    C39   A    
N9    H45   S    
N2    C104  S    
C22   O10   A    
C65   I5    S    
C111  H47   S    
C109  H38   S    
C85   N2    S    
C20   O12   A    
C10   C54   A    
C63   I3    S    
C12   C52   A    
C53   H5    S    
C14   C92   A    
C21   C45   S    
C113  H55   S    
C84   N9    S    
C19   O11   A    
C106  H28   S    
C4    C34   A    
C104  H20   S    
C21   O15   A    
N7    C109  S    
C92   C98   A    
C112  H50   S    
C30   O2    A    
C67   C79   A    
C73   C91   A    
C46   C65   A    
C50   C73   A    
C93   C101  A    
Cu3   O22   S    
C27   O3    A    
C57   C72   A    
C48   C63   A    
C41   C65   A    
C59   C70   A    
C24   O18   A    
N12   H57   S    
C113  H54   S    
C71   C99   A    
C91   C97   A    
C54   C75   A    
C22   O16   A    
C84   C88   A    
Cu5   O17   S    
Cu5   O5    S    
C108  H34   S    
C28   C40   S    
C15   C93   A    
C9    C36   A    
C2    C38   A    
N11   H53   S    
N1    H13   S    
C107  H32   S    
C21   O9    A    
C4    C60   A    
N8    C110  S    
C56   H8    S    
Cu2   O23   S    
C72   C84   A    
C74   C86   A    
C103  H16   S    
C73   C85   A    
C20   C48   S    
C69   C81   A    
C19   O13   A    
C75   C87   A    
C22   C46   S    
N8    H41   S    
C105  H24   S    
C62   I2    S    
C24   C44   S    
C111  H48   S    
C110  H43   S    
C108  H36   S    
C53   C76   A    
C9    C53   A    
C18   C99   A    
C25   C41   S    
C52   C77   A    
Cu1   O1    S    
C8    C50   A    
N9    C111  S    
C47   C64   A    
C26   C42   S    
C14   C97   A    
C23   O7    A    
C82   N11   S    
C72   C100  A    
C113  H56   S    
C114  H58   S    
C5    C41   A    
C64   I4    S    
C51   H3    S    
C7    C32   A    
N11   C113  S    
C8    C31   A    
C23   O17   A    
C11   C34   A    
C42   C66   A    
C15   C102  A    
C8    C44   A    
C14   C32   A    
C82   C90   A    
C87   N6    S    
Cu6   O19   S    
C37   C61   A    
C28   O4    A    
C81   N12   S    
C69   C101  A    
C44   C61   A    
N12   C114  S    
C56   C67   A    
C39   C63   A    
Cu3   Cu4   S    
C5    C35   A    
C16   C94   A    
C79   N8    S    
C111  H46   S    
C5    C57   A    
C90   N3    S    
C4    C40   A    
C20   O14   A    
Cu1   O13   S    
C49   H1    S    
C89   N4    S    
N7    H37   S    
C83   N10   S    
N5    H29   S    
C2    C56   A    
C86   N1    S    
C76   C96   A    
C114  H60   S    
Cu6   O18   S    
C13   C31   A    
C70   C102  A    
C13   C98   A    
C55   H7    S    
C60   C69   A    
C78   C94   A    
C40   C64   A    
C96   C100  A    
C77   C93   A    
C27   O21   A    
C79   C85   A    
C6    C36   A    
C60   H12   S    
C95   C99   A    
C114  H59   S    
N1    C103  S    
Cu6   O7    S    
C1    C55   A    
C25   O5    A    
C70   C82   A    
C17   C100  A    
C68   C98   A    
C51   C78   A    
C11   C51   A    
C67   C97   A    
Cu3   O10   S    
C110  H42   S    
C16   C101  A    
C28   O22   A    
C94   C102  A    
C105  H23   S    
C107  H30   S    
C6    C42   A    
C29   C37   S    
C45   C66   A    
C112  H51   S    
Cu4   O4    S    
C52   H4    S    
C49   C74   A    
N3    C105  S    
C17   C35   A    
C30   C38   S    
Cu6   O6    S    
C103  H14   S    
C23   C43   S    
N10   C112  S    
C18   C36   A    
C15   C33   A    
C13   C91   A    
C43   C62   A    
Cu4   O16   S    
C38   C62   A    
N4    C106  S    
C3    C59   A    
