data_mof_unit_760.cif
_audit_creation_date              2012-12-10T17:47:05-0500
_audit_creation_method            fapswitch 2.2
_symmetry_space_group_name_H-M    P1
_symmetry_Int_Tables_number       1
_space_group_crystal_system       triclinic
_cell_length_a                    9.944311
_cell_length_b                    10.750403
_cell_length_c                    13.610538
_cell_angle_alpha                 92.465489
_cell_angle_beta                  82.424083
_cell_angle_gamma                 89.161596
_cell_volume                      1440.70034221

loop_
_atom_site_label
_atom_site_type_symbol
_atom_type_description
_atom_site_fract_x
_atom_site_fract_y
_atom_site_fract_z
_atom_type_partial_charge
C1    C     C_R   0.499195 0.739828 0.493862 0.864594
C2    C     C_R   0.616629 0.935273 0.492869 -0.224370
C3    C     C_R   0.616757 0.062175 0.506195 -0.229293
C4    C     C_R   0.475098 0.500559 0.685697 0.878191
C5    C     C_R   0.494077 0.128841 0.521889 -0.110947
C6    C     C_R   0.834572 0.659211 0.635739 -0.141797
C7    C     C_R   0.891870 0.733773 0.704694 -0.217533
C8    C     C_R   0.031153 0.732586 0.704709 -0.172892
C9    C     C_R   0.113924 0.656206 0.636212 -0.130281
C10   C     C_R   0.059101 0.576408 0.567691 0.132688
C11   C     C_R   0.914768 0.577219 0.567429 0.141229
C12   C     C_1   0.455695 0.501206 0.789847 -0.186434
C13   C     C_R   0.943692 0.426571 0.433758 0.121429
C14   C     C_R   0.086518 0.429564 0.433660 -0.123278
C15   C     C_R   0.498397 0.261227 0.509470 0.874479
C16   C     C_R   0.524915 0.499435 0.314301 0.899710
C17   C     C_1   0.544424 0.499320 0.210152 -0.190979
C18   C     C_2   0.558934 0.499599 0.018077 -0.161884
C19   C     C_2   0.441415 0.501939 0.981933 -0.163826
C20   C     C_1   0.444196 0.501686 0.877893 0.004811
C21   C     C_1   0.556076 0.499358 0.122113 0.004003
C22   C     C_3   0.991738 0.897965 0.483156 -0.958587
C23   C     C_R   0.246231 0.891244 0.474414 -0.168392
C24   C     C_3   0.892271 0.345095 0.353930 -0.386556
C25   C     C_3   0.943624 0.209424 0.351344 -0.399610
C26   C     C_3   0.873389 0.128065 0.279395 -0.878408
C27   C     C_R   0.122412 0.953874 0.504413 0.266433
C28   C     C_R   0.121156 0.068343 0.556643 -0.182155
C29   C     C_R   0.243065 0.124453 0.570082 -0.205161
C30   C     C_R   0.368842 0.066389 0.531282 0.099977
C31   C     C_R   0.369734 0.941684 0.497716 0.046531
C32   C     C_R   0.494649 0.873721 0.489284 -0.107033
H1    H     H_    0.344602 0.503768 0.029652 0.157304
H2    H     H_    0.026011 0.115713 0.584615 0.142815
H3    H     H_    0.237583 0.212657 0.611887 0.174984
H4    H     H_    0.713197 0.107994 0.502862 0.177426
H5    H     H_    0.006963 0.801688 0.450202 0.245686
H6    H     H_    0.920806 0.895877 0.552974 0.254541
H7    H     H_    0.945408 0.955209 0.430547 0.240703
H8    H     H_    0.762924 0.124171 0.305423 0.266807
H9    H     H_    0.888564 0.165994 0.204171 0.265089
H10   H     H_    0.916977 0.032035 0.274157 0.253438
H11   H     H_    0.054512 0.202945 0.326727 0.228379
H12   H     H_    0.727865 0.670871 0.636936 0.203934
H13   H     H_    0.923652 0.173296 0.426831 0.227997
H14   H     H_    0.781890 0.342452 0.364990 0.276974
H15   H     H_    0.924184 0.385133 0.280743 0.184645
H16   H     H_    0.827964 0.795510 0.756590 0.151551
H17   H     H_    0.075673 0.793093 0.756740 0.148796
H18   H     H_    0.220445 0.663555 0.637571 0.202215
H19   H     H_    0.153899 0.374702 0.379113 0.156686
H20   H     H_    0.655755 0.497717 0.970361 0.159803
H21   H     H_    0.712615 0.885156 0.484328 0.184066
H22   H     H_    0.244277 0.806180 0.429533 0.173142
N1    N     N_R   0.857120 0.501200 0.500900 -0.138476
N2    N     N_R   0.142720 0.501280 0.500940 -0.139758
O1    O     O_R   0.385310 0.683220 0.500000 -0.648690
O2    O     O_R   0.614640 0.683250 0.500010 -0.635306
O3    O     O_R   0.368830 0.499960 0.640340 -0.633319
O4    O     O_R   0.598160 0.499980 0.640350 -0.622281
O5    O     O_R   0.385360 0.316750 0.499990 -0.620123
O6    O     O_R   0.614690 0.316780 0.500000 -0.631845
O7    O     O_R   0.401840 0.500020 0.359650 -0.608282
O8    O     O_R   0.631170 0.500040 0.359660 -0.631809
Zn1   Zn    Zn3+2 0.346870 0.499980 0.499990 0.918455
Zn2   Zn    Zn3+2 0.653130 0.500020 0.500010 0.919794

loop_
_geom_bond_atom_site_label_1
_geom_bond_atom_site_label_2
_ccdc_geom_bond_type
C14   N2    A    
O7    Zn1   S    
C6    C7    A    
C16   O7    A    
C1    O1    A    
C4    C12   S    
C18   C21   S    
C10   N2    A    
C9    C10   A    
C29   H3    S    
C31   C32   A    
C3    C5    A    
C24   H14   S    
C7    H16   S    
C4    O4    A    
C2    C3    A    
C15   O5    A    
C18   H20   S    
C7    C8    A    
O8    Zn2   S    
C6    H12   S    
C1    O2    A    
O3    Zn1   S    
C22   H5    S    
C25   H11   S    
C29   C30   A    
C12   C20   T    
C22   H7    S    
C3    H4    S    
C4    O3    A    
C28   C29   A    
C15   O6    A    
C18   C19   D    
C23   C27   A    
C22   C27   S    
C28   H2    S    
C14   H19   S    
C30   C31   A    
C13   C24   S    
C5    C15   S    
C10   C11   A    
O6    Zn2   S    
C25   H13   S    
O4    Zn2   S    
N2    Zn1   S    
C22   H6    S    
O5    Zn1   S    
C26   H8    S    
N1    Zn2   S    
C11   N1    A    
C24   C25   S    
C26   H10   S    
C23   H22   S    
C2    C32   A    
C5    C30   A    
C19   H1    S    
C6    C11   A    
C16   C17   S    
C16   O8    A    
C13   N1    A    
C25   C26   S    
C13   C14   A    
C24   H15   S    
C8    H17   S    
O2    Zn2   S    
C1    C32   S    
C17   C21   T    
C9    H18   S    
C19   C20   S    
C26   H9    S    
O1    Zn1   S    
C8    C9    A    
C27   C28   A    
C2    H21   S    
C23   C31   A    
