data_mof_unit_1430.cif
_audit_creation_date              2012-10-26T19:48:08-0400
_audit_creation_method            fapswitch 2.2
_symmetry_space_group_name_H-M    P1
_symmetry_Int_Tables_number       1
_space_group_crystal_system       triclinic
_cell_length_a                    10.764294
_cell_length_b                    9.418801
_cell_length_c                    10.641007
_cell_angle_alpha                 90.383583
_cell_angle_beta                  88.96186
_cell_angle_gamma                 90.112222
_cell_volume                      1078.65396057

loop_
_atom_site_label
_atom_site_type_symbol
_atom_type_description
_atom_site_fract_x
_atom_site_fract_y
_atom_site_fract_z
_atom_type_partial_charge
C1    C     C_R   0.260002 0.499667 0.501239 0.548446
C2    C     C_3   0.933394 0.592812 0.381610 0.311045
C3    C     C_3   0.611481 0.084429 0.565003 -0.109913
C4    C     C_3   0.611775 0.917037 0.564319 -0.105873
C5    C     C_3   0.389933 0.084042 0.570741 -0.104332
C6    C     C_3   0.390186 0.916503 0.571169 -0.106723
C7    C     C_3   0.499331 0.082670 0.373433 -0.105855
C8    C     C_3   0.498853 0.915538 0.373494 -0.106024
C9    C     C_R   0.497457 0.499425 0.259676 0.546780
C10   C     C_R   0.740237 0.500106 0.498598 0.586827
C11   C     C_R   0.499241 0.500632 0.740670 0.550200
C12   C     C_3   0.495325 0.498232 0.123527 -0.001027
C13   C     C_3   0.392369 0.566094 0.045346 -0.110240
C14   C     C_3   0.496072 0.363361 0.040377 -0.112791
C15   C     C_3   0.394411 0.432214 0.958830 -0.174158
C16   C     C_3   0.497462 0.501932 0.877386 0.051206
C17   C     C_3   0.495925 0.632402 0.963580 0.147520
C18   C     C_3   0.596789 0.435388 0.958661 0.130737
C19   C     C_3   0.598744 0.568216 0.043402 -0.093082
C20   C     C_3   0.876570 0.835002 0.295369 -0.313549
C21   C     C_3   0.948235 0.555971 0.143287 -0.342152
C22   C     C_3   0.482017 0.884445 0.016830 -0.331345
C23   C     C_3   0.070607 0.574447 0.619125 -0.230618
C24   C     C_3   0.770219 0.275782 0.997377 -0.331170
C25   C     C_3   0.072429 0.344214 0.495554 -0.245259
C26   C     C_3   0.927515 0.558114 0.626623 -0.064914
C27   C     C_3   0.929717 0.344240 0.485927 -0.045689
C28   C     C_3   0.078620 0.578098 0.382014 -0.180565
C29   C     C_3   0.122694 0.498988 0.500012 -0.019793
C30   C     C_3   0.879038 0.501033 0.496074 0.147697
Cu1   Cu    Cu3+1 0.499860 0.642410 0.500060 0.880720
Cu2   Cu    Cu3+1 0.499860 0.357590 0.500060 0.872236
H1    H     H_    0.311414 0.377088 0.921635 0.097628
H2    H     H_    0.582100 0.120826 0.319191 0.123258
H3    H     H_    0.581168 0.876489 0.318942 0.115844
H4    H     H_    0.303226 0.120439 0.526059 0.109749
H5    H     H_    0.303227 0.878484 0.527305 0.109314
H6    H     H_    0.308370 0.620103 0.084220 0.094829
H7    H     H_    0.496677 0.252410 0.074935 0.102705
H8    H     H_    0.678730 0.629012 0.079348 0.086260
H9    H     H_    0.097653 0.688591 0.616882 0.135716
H10   H     H_    0.116026 0.284833 0.415458 0.127449
H11   H     H_    0.111957 0.528118 0.704791 0.097703
H12   H     H_    0.615915 0.124387 0.663409 0.109181
H13   H     H_    0.099033 0.287638 0.582622 0.101119
H14   H     H_    0.906243 0.476830 0.699894 0.116387
H15   H     H_    0.892351 0.283886 0.568338 0.117522
H16   H     H_    0.122784 0.684881 0.375897 0.102955
H17   H     H_    0.115283 0.517344 0.299788 0.105810
H18   H     H_    0.947297 0.794665 0.470265 0.257089
H19   H     H_    0.836632 0.936329 0.330480 0.105172
H20   H     H_    0.807158 0.788845 0.231071 0.161010
H21   H     H_    0.965051 0.858804 0.244636 0.119965
H22   H     H_    0.786412 0.538467 0.257177 0.259062
H23   H     H_    0.617468 0.877737 0.662001 0.111262
H24   H     H_    0.882123 0.570006 0.065825 0.143134
H25   H     H_    0.003182 0.458871 0.122202 0.131632
H26   H     H_    0.011379 0.649024 0.143756 0.137709
H27   H     H_    0.573138 0.797877 0.861987 0.243744
H28   H     H_    0.479181 0.991095 0.973113 0.127705
H29   H     H_    0.561105 0.881245 0.082392 0.121448
H30   H     H_    0.393415 0.867785 0.069766 0.144929
H31   H     H_    0.695839 0.317921 0.823149 0.252632
H32   H     H_    0.864855 0.250894 0.960487 0.129484
H33   H     H_    0.717847 0.174917 0.009900 0.126766
H34   H     H_    0.697454 0.121503 0.516270 0.132761
H35   H     H_    0.778588 0.329340 0.090072 0.182094
H36   H     H_    0.917669 0.731873 0.745081 0.212349
H37   H     H_    0.780561 0.667156 0.706658 0.243432
H38   H     H_    0.947318 0.291504 0.295846 0.245283
H39   H     H_    0.897907 0.160447 0.388051 0.199007
H40   H     H_    0.697397 0.880100 0.514823 0.162071
H41   H     H_    0.386600 0.124716 0.669116 0.117378
H42   H     H_    0.387656 0.877882 0.669734 0.137721
H43   H     H_    0.416237 0.121130 0.323199 0.109074
H44   H     H_    0.415243 0.876552 0.323772 0.111583
N1    N     N_3   0.500250 0.143650 0.502780 -0.221406
N2    N     N_3   0.500250 0.856350 0.502780 -0.226791
N3    N     N_2   0.898837 0.742685 0.401099 -0.473658
N4    N     N_2   0.881883 0.539361 0.262925 -0.495515
N5    N     N_2   0.497546 0.777542 0.919761 -0.509136
N6    N     N_2   0.707518 0.366001 0.909391 -0.537369
N7    N     N_3   0.868478 0.691089 0.668965 -0.654238
N8    N     N_3   0.888562 0.269185 0.372377 -0.626303
O1    O     O_R   0.317570 0.620260 0.500070 -0.518078
O2    O     O_R   0.317570 0.379740 0.500070 -0.515638
O3    O     O_R   0.499850 0.620240 0.316900 -0.518374
O4    O     O_R   0.499850 0.379760 0.316900 -0.510692
O5    O     O_R   0.682190 0.620260 0.500030 -0.480721
O6    O     O_R   0.682190 0.379740 0.500030 -0.502010
O7    O     O_R   0.499910 0.620280 0.683200 -0.504674
O8    O     O_R   0.499910 0.379720 0.683200 -0.522666

loop_
_geom_bond_atom_site_label_1
_geom_bond_atom_site_label_2
_ccdc_geom_bond_type
C26   N7    S    
Cu1   O1    S    
C14   C18   S    
H18   N3    S    
C7    C8    S    
C21   H25   S    
C23   C29   S    
C28   C29   S    
C20   H19   S    
C9    O4    A    
C22   H28   S    
C5    C6    S    
C6    N2    S    
C15   C16   S    
Cu2   O4    S    
C5    H4    S    
C8    H44   S    
C23   H11   S    
C21   N4    S    
C18   C19   S    
C28   H17   S    
C23   C26   S    
C24   N6    S    
C2    N3    S    
C24   H35   S    
C17   C19   S    
Cu2   N1    S    
C11   O8    A    
C28   H16   S    
C10   O5    A    
C16   C17   S    
Cu1   O5    S    
H38   N8    S    
C7    N1    S    
C14   H7    S    
C24   H32   S    
C27   C30   S    
C8    N2    S    
C6    H42   S    
H22   N4    S    
C25   C29   S    
Cu2   O6    S    
C3    H12   S    
Cu1   O3    S    
H31   N6    S    
C22   N5    S    
C7    H43   S    
C8    H3    S    
C4    N2    S    
H37   N7    S    
C22   H30   S    
C11   C16   S    
C10   C30   S    
Cu1   Cu2   S    
Cu2   O2    S    
C1    C29   S    
C6    H5    S    
C13   H6    S    
C24   H33   S    
C12   C14   S    
C26   C30   S    
Cu1   O7    S    
C13   C15   S    
C4    H23   S    
C7    H2    S    
C1    O1    A    
C5    N1    S    
C3    C4    S    
C3    N1    S    
C25   H13   S    
C4    H40   S    
Cu1   N2    S    
H39   N8    S    
C27   H15   S    
C1    O2    A    
C27   N8    S    
C20   N3    S    
H36   N7    S    
H27   N5    S    
C20   H21   S    
C25   H10   S    
C21   H24   S    
C25   C27   S    
C23   H9    S    
C13   C17   S    
C2    C30   S    
C21   H26   S    
C20   H20   S    
C9    O3    A    
C22   H29   S    
Cu2   O8    S    
C12   C19   S    
C18   N6    S    
C17   N5    S    
C5    H41   S    
C9    C12   S    
C2    N4    S    
C19   H8    S    
C26   H14   S    
C3    H34   S    
C11   O7    A    
C12   C13   S    
C10   O6    A    
C16   C18   S    
C14   C15   S    
C2    C28   S    
C15   H1    S    
