data_mof_unit_727.cif
_audit_creation_date              2012-12-11T18:11:28-0500
_audit_creation_method            fapswitch 2.2
_symmetry_space_group_name_H-M    P1
_symmetry_Int_Tables_number       1
_space_group_crystal_system       triclinic
_cell_length_a                    8.236553
_cell_length_b                    12.803726
_cell_length_c                    18.648198
_cell_angle_alpha                 99.336979
_cell_angle_beta                  91.238247
_cell_angle_gamma                 99.048399
_cell_volume                      1914.16620042

loop_
_atom_site_label
_atom_site_type_symbol
_atom_type_description
_atom_site_fract_x
_atom_site_fract_y
_atom_site_fract_z
_atom_type_partial_charge
Ba1   Ba    Ba6+2 0.852780 0.548340 0.465070 1.688978
Ba2   Ba    Ba6+2 0.337060 0.451750 0.534940 1.698461
C1    C     C_3   0.543283 0.869825 0.232744 -0.360843
C2    C     C_R   0.892728 0.399233 0.096934 -0.072438
C3    C     C_R   0.750686 0.435394 0.958781 -0.092139
C4    C     C_3   0.123789 0.750586 0.263303 0.389731
C5    C     C_R   0.917523 0.472879 0.981308 0.026060
C6    C     C_R   0.692096 0.437222 0.888549 -0.067452
C7    C     C_R   0.796718 0.477405 0.837649 0.000312
C8    C     C_R   0.959140 0.527666 0.861075 0.052790
C9    C     C_R   0.020156 0.525292 0.933157 0.047614
C10   C     C_R   0.746941 0.464084 0.763193 0.026336
C11   C     C_R   0.858138 0.500227 0.713319 -0.242476
C12   C     C_3   0.617335 0.813533 0.288151 0.334056
C13   C     C_R   0.015355 0.556182 0.735609 0.032240
C14   C     C_R   0.064527 0.573242 0.810838 -0.017267
C15   C     C_R   0.148618 0.507080 0.072573 0.028664
C16   C     C_3   0.103364 0.771953 0.185952 -0.319855
C17   C     C_R   0.211496 0.501203 0.143805 0.005442
C18   C     C_R   0.109841 0.449226 0.192531 -0.049758
C19   C     C_R   0.955534 0.392605 0.165718 0.002850
C20   C     C_R   0.217720 0.631174 0.837183 -0.029468
C21   C     C_R   0.277405 0.630497 0.907558 -0.074020
C22   C     C_R   0.184997 0.571968 0.955373 0.016029
C23   C     C_3   0.462469 0.277562 0.314588 0.332966
C24   C     C_R   0.250682 0.560718 0.024716 0.022173
C25   C     C_R   0.417479 0.598238 0.047138 -0.098261
C26   C     C_R   0.375715 0.548048 0.166408 -0.031764
C27   C     C_R   0.478157 0.591908 0.116146 -0.098862
C28   C     C_3   0.245772 0.777437 0.610131 0.388309
C29   C     C_R   0.432124 0.550451 0.238842 -0.006008
C30   C     C_R   0.325064 0.508560 0.288050 -0.299464
C31   C     C_R   0.166145 0.455659 0.266226 0.025823
C32   C     C_R   0.756438 0.181717 0.533337 -0.268021
C33   C     C_R   0.436557 0.804981 0.462701 -0.283283
C34   C     C_3   0.408213 0.239047 0.234738 -0.030771
C35   C     C_R   0.404700 0.982007 0.441494 -0.110420
C36   C     C_R   0.343390 0.873218 0.435390 -0.023429
C37   C     C_R   0.583136 0.845977 0.504111 0.063589
C38   C     C_R   0.644135 0.958667 0.513593 -0.059332
C39   C     C_R   0.554180 0.026699 0.480765 -0.061630
C40   C     C_3   0.320470 0.896337 0.624282 -0.318271
C41   C     C_R   0.613925 0.138319 0.489977 0.016899
C42   C     C_R   0.849355 0.116212 0.563286 -0.038896
C43   C     C_R   0.792797 0.005676 0.553905 -0.111157
C44   C     C_3   0.954213 0.211542 0.377902 0.347050
C45   C     C_3   0.058807 0.137778 0.728654 0.447709
C46   C     C_3   0.881468 0.093410 0.353688 -0.015902
C47   C     C_3   0.775029 0.755721 0.692513 0.407246
C48   C     C_3   0.909102 0.846956 0.724665 0.404827
C49   C     C_3   0.134122 0.089730 0.788817 -0.301015
C50   C     C_3   0.580014 0.192342 0.705876 0.353968
C51   C     C_3   0.597701 0.097785 0.743701 -0.382348
C52   C     C_R   0.983665 0.460687 0.050342 0.005116
F1    F     F_    0.985916 0.890585 0.669393 -0.761315
H1    H     H_    0.701022 0.873631 0.327332 0.081017
H2    H     H_    0.471757 0.929760 0.260748 0.121369
H3    H     H_    0.999240 0.818261 0.758714 0.006921
H4    H     H_    0.855107 0.910698 0.759192 0.042197
H5    H     H_    0.515981 0.778660 0.319648 -0.054911
H6    H     H_    0.460947 0.810133 0.192832 0.101485
H7    H     H_    0.360572 0.312879 0.342035 -0.034119
H8    H     H_    0.573144 0.340230 0.318120 0.056796
H9    H     H_    0.289761 0.183281 0.230421 0.140529
H10   H     H_    0.390694 0.308380 0.208364 0.013914
H11   H     H_    0.641298 0.910913 0.202613 0.192179
H12   H     H_    0.454995 0.907018 0.633454 0.076853
H13   H     H_    0.142828 0.707420 0.146864 0.051624
H14   H     H_    0.935439 0.091032 0.711368 0.007749
H15   H     H_    0.251689 0.140427 0.811391 0.158193
H16   H     H_    0.047792 0.084515 0.833532 0.085372
H17   H     H_    0.159853 0.008531 0.769271 0.128683
H18   H     H_    0.705792 0.229537 0.693972 -0.062895
H19   H     H_    0.506581 0.162358 0.653829 0.072029
H20   H     H_    0.677932 0.125489 0.793984 0.135136
H21   H     H_    0.653299 0.037456 0.706959 0.083919
H22   H     H_    0.038837 0.676322 0.268684 0.088926
H23   H     H_    0.290229 0.935684 0.578206 0.091520
H24   H     H_    0.475864 0.059166 0.758373 0.129885
H25   H     H_    0.820331 0.486416 0.656188 0.071015
H26   H     H_    0.564308 0.404198 0.874417 0.116531
H27   H     H_    0.879524 0.343733 0.197992 0.140602
H28   H     H_    0.293666 0.676882 0.803217 0.130054
H29   H     H_    0.606846 0.622853 0.129442 0.110250
H30   H     H_    0.368482 0.513680 0.343882 0.070609
H31   H     H_    0.661369 0.403698 0.994384 0.080225
H32   H     H_    0.772316 0.353491 0.081376 0.097544
H33   H     H_    0.397225 0.677156 0.922903 0.097718
H34   H     H_    0.274078 0.938968 0.673485 0.192271
H35   H     H_    0.252030 0.738244 0.272891 -0.100630
H36   H     H_    0.506065 0.632093 0.012099 0.083923
H37   H     H_    0.329874 0.031190 0.418139 0.125135
H38   H     H_    0.870586 0.957600 0.575339 0.183574
H39   H     H_    0.802833 0.266699 0.538871 0.061994
H40   H     H_    0.387512 0.720375 0.456824 0.059868
H41   H     H_    0.972574 0.775470 0.172656 0.167448
H42   H     H_    0.180013 0.849126 0.179821 0.152233
H43   H     H_    0.335193 0.730000 0.583422 -0.014345
H44   H     H_    0.134779 0.765988 0.573400 0.092827
H45   H     H_    0.863540 0.253305 0.409084 -0.057519
H46   H     H_    0.066339 0.217418 0.412835 0.058303
H47   H     H_    0.746497 0.084803 0.343714 0.078757
H48   H     H_    0.905802 0.046381 0.396610 0.055985
H49   H     H_    0.825892 0.687020 0.662445 -0.033385
I1    I     I_    0.978889 0.028060 0.253148 -0.407370
I2    I     I_    0.645688 0.712197 0.783568 -0.565645
I3    I     I_    0.585416 0.158240 0.176352 -0.443348
I4    I     I_    0.044226 0.295228 0.778227 -0.505308
O1    O     O_2   0.873090 0.425890 0.325140 -0.462365
O2    O     O_2   0.162873 0.123278 0.532708 -0.472148
O3    O     O_3   0.162959 0.138883 0.670029 -0.554357
O4    O     O_3   0.122420 0.434370 0.414380 -0.500265
O5    O     O_3   0.578370 0.633800 0.536380 -0.477513
O6    O     O_2   0.341510 0.231850 0.465510 -0.456461
O7    O     O_3   0.498286 0.190786 0.346014 -0.628557
O8    O     O_2   0.401579 0.449066 0.754693 -0.423985
O9    O     O_3   0.498166 0.264172 0.751072 -0.575029
O10   O     O_3   0.659500 0.627100 0.368810 -0.474509
O11   O     O_2   0.770843 0.543750 0.243664 -0.500334
O12   O     O_3   0.665611 0.796187 0.650332 -0.621293
O13   O     O_3   0.994413 0.255977 0.315880 -0.605504
O14   O     O_3   0.709388 0.738792 0.251989 -0.585885
O15   O     O_2   0.848200 0.768190 0.534530 -0.456571
O16   O     O_3   0.081160 0.685950 0.404810 -0.499267
O17   O     O_2   0.006807 0.878261 0.447310 -0.471932
O18   O     O_3   0.086412 0.838313 0.312050 -0.557525
O19   O     O_2   0.316610 0.574140 0.674900 -0.421638
O20   O     O_3   0.067290 0.565720 0.585630 -0.509652
O21   O     O_3   0.530210 0.372990 0.631200 -0.473271
O22   O     O_3   0.203333 0.744971 0.676302 -0.619757
O23   O     O_3   0.611340 0.366290 0.463630 -0.481367
O24   O     O_3   0.108550 0.314140 0.595200 -0.449249
P1    P     P_3+3 0.041040 0.394770 0.336330 0.987491
P2    P     P_3+3 0.672880 0.754030 0.556100 1.024763
P3    P     P_3+3 0.130601 0.821178 0.400882 0.978415
P4    P     P_3+3 0.148670 0.605320 0.663680 1.004443
P5    P     P_3+3 0.064629 0.173900 0.594523 1.001400
P6    P     P_3+3 0.642195 0.612171 0.274553 0.952635
P7    P     P_3+3 0.521689 0.230238 0.440529 0.943624
P8    P     P_3+3 0.543768 0.390892 0.725774 1.032605

loop_
_geom_bond_atom_site_label_1
_geom_bond_atom_site_label_2
_ccdc_geom_bond_type
C12   H1    S    
C42   P5    S    
C12   O14   S    
C25   C27   A    
C16   H41   S    
C17   C18   A    
Ba1   O20   S    
O4    P1    S    
C43   H38   S    
C47   H49   S    
C2    H32   S    
C50   C51   S    
C5    C9    A    
Ba2   O4    S    
C24   C25   A    
Ba1   O5    S    
C48   H4    S    
C26   C27   A    
C51   H24   S    
C22   C24   A    
C50   H19   S    
O20   P4    S    
Ba1   O4    S    
Ba2   O5    S    
C47   O12   S    
C16   H13   S    
C13   C14   A    
C9    C22   A    
Ba2   O21   S    
C18   C31   A    
Ba1   Ba2   S    
C23   H8    S    
C45   H14   S    
Ba1   O1    S    
C29   C30   A    
C6    C7    A    
Ba2   O24   S    
C21   C22   A    
C10   P8    S    
C44   O13   S    
C25   H36   S    
C16   H42   S    
C7    C8    A    
O10   P6    S    
O9    P8    S    
O16   P3    S    
Ba1   O10   S    
Ba2   O19   S    
O17   P3    D    
C11   H25   S    
C34   I3    S    
C39   C41   A    
O6    P7    D    
C51   H20   S    
C49   H16   S    
Ba1   P1    S    
C1    H6    S    
C38   C43   A    
C4    C16   S    
C44   H46   S    
C44   C46   S    
O15   P2    D    
O1    P1    D    
C6    H26   S    
C48   H3    S    
C33   C36   A    
C32   C42   A    
O19   P4    D    
C4    O18   S    
C27   H29   S    
C50   H18   S    
C37   C38   A    
C3    C5    A    
C34   H10   S    
C4    H22   S    
C45   C49   S    
C13   P4    S    
O24   P5    S    
C4    H35   S    
C46   H48   S    
C28   H44   S    
Ba2   P4    S    
C33   C37   A    
Ba1   O15   S    
C35   C36   A    
C19   H27   S    
C46   I1    S    
C46   H47   S    
Ba2   O23   S    
C36   P3    S    
C10   C11   A    
C29   P6    S    
C41   P7    S    
C17   C26   A    
O14   P6    S    
C1    C12   S    
C3    H31   S    
C1    H2    S    
C38   C39   A    
C49   H15   S    
O7    P7    S    
O18   P3    S    
C40   H23   S    
C21   H33   S    
C11   C13   A    
C40   H12   S    
C1    H11   S    
C49   H17   S    
C15   C24   A    
Ba1   P2    S    
C42   C43   A    
O3    P5    S    
C45   I4    S    
C44   H45   S    
C14   C20   A    
C35   H37   S    
C2    C52   A    
O11   P6    D    
C26   C29   A    
O22   P4    S    
C32   C41   A    
C32   H39   S    
Ba1   O23   S    
C3    C6    A    
C47   I2    S    
C33   H40   S    
C12   H5    S    
C28   H43   S    
C48   F1    S    
O5    P2    S    
C40   H34   S    
C30   C31   A    
C23   O7    S    
Ba1   O16   S    
C28   O22   S    
C20   H28   S    
C2    C19   A    
Ba2   O6    S    
O21   P8    S    
C45   O3    S    
C30   H30   S    
C15   C17   A    
O12   P2    S    
C23   H7    S    
O2    P5    D    
C35   C39   A    
C7    C10   A    
O23   P7    S    
C8    C9    A    
C23   C34   S    
C51   H21   S    
C31   P1    S    
C18   C19   A    
C47   C48   S    
C50   O9    S    
C20   C21   A    
C28   C40   S    
C8    C14   A    
C5    C52   A    
O13   P1    S    
C34   H9    S    
C15   C52   A    
O8    P8    D    
C37   P2    S    
Ba2   O20   S    
