data_mof_unit_3768.cif
_audit_creation_date              2012-12-11T18:07:11-0500
_audit_creation_method            fapswitch 2.2
_symmetry_space_group_name_H-M    P1
_symmetry_Int_Tables_number       1
_space_group_crystal_system       triclinic
_cell_length_a                    8.473843
_cell_length_b                    12.929444
_cell_length_c                    26.894494
_cell_angle_alpha                 96.907557
_cell_angle_beta                  91.810285
_cell_angle_gamma                 81.312114
_cell_volume                      2891.39355242

loop_
_atom_site_label
_atom_site_type_symbol
_atom_type_description
_atom_site_fract_x
_atom_site_fract_y
_atom_site_fract_z
_atom_type_partial_charge
Ba1   Ba    Ba6+2 0.859560 0.448380 0.523550 1.702221
Ba2   Ba    Ba6+2 0.330270 0.551530 0.476440 1.641702
C1    C     C_3   0.764694 0.141663 0.729368 -0.085532
C2    C     C_R   0.902159 0.606541 0.183415 0.587431
C3    C     C_2   0.746289 0.528037 0.271066 -0.071380
C4    C     C_3   0.239009 0.162857 0.656422 0.886848
C5    C     C_3   0.699995 0.517362 0.324152 -0.045196
C6    C     C_1   0.984369 0.478267 0.344113 0.042230
C7    C     C_2   0.026458 0.481168 0.297019 -0.113011
C8    C     C_2   0.902000 0.509814 0.257640 0.189131
C9    C     C_R   0.043468 0.526444 0.107307 -0.081398
C10   C     C_R   0.081459 0.432312 0.129613 -0.038296
C11   C     C_R   0.161343 0.343033 0.101147 -0.053553
C12   C     C_3   0.690272 0.195949 0.684047 0.300862
C13   C     C_R   0.951777 0.613756 0.134269 -0.036647
C14   C     C_2   0.840993 0.522503 0.359852 -0.290426
C15   C     C_2   0.322198 0.452002 0.642106 -0.238077
C16   C     C_3   0.322013 0.057778 0.669863 -0.386682
C17   C     C_R   0.255163 0.452956 0.984074 0.023476
C18   C     C_R   0.091156 0.627495 0.983138 0.024566
C19   C     C_R   0.192333 0.540257 0.958139 0.037442
C20   C     C_R   0.381497 0.378753 0.961100 0.042848
C21   C     C_R   0.410728 0.376942 0.910141 -0.048576
C22   C     C_R   0.334846 0.455865 0.882398 -0.057930
C23   C     C_3   0.435460 0.738629 0.625466 0.318041
C24   C     C_R   0.233383 0.540820 0.906950 -0.082385
C25   C     C_R   0.176940 0.627178 0.880650 -0.025705
C26   C     C_R   0.219199 0.625153 0.829616 0.566093
C27   C     C_R   0.365439 0.452726 0.830945 0.655209
C28   C     C_3   0.222044 0.227466 0.418221 0.287238
C29   C     C_2   0.453974 0.475006 0.727727 -0.057896
C30   C     C_3   0.453890 0.411058 0.677324 -0.006766
C31   C     C_1   0.198548 0.520939 0.659753 0.088726
C32   C     C_2   0.176125 0.542401 0.710582 0.002177
C33   C     C_2   0.314864 0.521708 0.747863 0.248716
C34   C     C_3   0.390259 0.787780 0.678969 -0.249082
C35   C     C_R   0.191227 0.444545 0.031684 0.020536
C36   C     C_R   0.095173 0.532498 0.057662 0.053161
C37   C     C_R   0.048562 0.625506 0.034206 0.015814
C38   C     C_R   0.210637 0.348419 0.052755 -0.111381
C39   C     C_R   0.911263 0.706483 0.111483 -0.018431
C40   C     C_3   0.202739 0.111775 0.411997 -0.324166
C41   C     C_R   0.036805 0.713647 0.955852 -0.094188
C42   C     C_R   0.080025 0.713725 0.906044 -0.055850
C43   C     C_R   0.957937 0.712295 0.062643 -0.095959
C44   C     C_R   0.739904 0.821134 0.472183 -0.263544
C45   C     C_3   0.042221 0.777506 0.337363 0.231299
C46   C     C_R   0.435930 0.187950 0.520713 -0.270193
C47   C     C_R   0.403427 0.010482 0.532601 -0.105690
C48   C     C_R   0.346517 0.118225 0.538543 -0.044009
C49   C     C_R   0.576427 0.151672 0.493755 0.057617
C50   C     C_R   0.634598 0.040715 0.486568 -0.051897
C51   C     C_R   0.546293 0.969850 0.506757 -0.037884
C52   C     C_3   0.966456 0.803975 0.621230 0.745557
C53   C     C_R   0.602132 0.859765 0.499902 0.048478
C54   C     C_R   0.835753 0.888977 0.456410 0.003637
C55   C     C_R   0.779698 0.998040 0.461440 -0.094917
C56   C     C_3   0.104895 0.790507 0.285668 0.329038
C57   C     C_3   0.047006 0.901360 0.615670 -0.321827
C58   C     C_3   0.710475 0.299878 0.373793 0.271007
C59   C     C_3   0.767066 0.254435 0.321383 -0.340160
C60   C     C_3   0.698366 0.123296 0.634553 -0.277103
C61   C     C_3   0.882661 0.779008 0.572652 -0.244841
C62   C     C_3   0.651302 0.095252 0.760649 -0.479449
C63   C     C_3   0.524962 0.628509 0.626038 -0.190880
C64   C     C_3   0.863143 0.774288 0.334670 -0.306089
C65   C     C_3   0.505662 0.312120 0.989958 -0.413093
C66   C     C_3   0.017312 0.589811 0.732179 -0.208771
C67   C     C_3   0.481147 0.817204 0.358481 0.287842
C68   C     C_3   0.468594 0.920200 0.335399 -0.356284
C69   C     C_R   0.034158 0.428253 0.179274 0.601276
H1    H     H_    0.227784 0.077773 0.372886 0.172397
H2    H     H_    0.881513 0.201378 0.324193 0.180536
H3    H     H_    0.787761 0.316886 0.298806 0.073968
H4    H     H_    0.676920 0.209726 0.301623 0.152179
H5    H     H_    0.564160 0.225698 0.692702 0.050661
H6    H     H_    0.325321 0.730247 0.604528 0.075159
H7    H     H_    0.297563 0.855995 0.677801 0.104886
H8    H     H_    0.337741 0.732043 0.699608 0.085433
H9    H     H_    0.493352 0.813007 0.700756 0.199322
H10   H     H_    0.809938 0.203456 0.755940 0.202018
H11   H     H_    0.431638 0.068938 0.690970 0.102595
H12   H     H_    0.285672 0.067543 0.437242 0.062741
H13   H     H_    0.104284 0.700149 0.346619 0.058636
H14   H     H_    0.235460 0.788448 0.287901 0.060618
H15   H     H_    0.083274 0.722585 0.258305 0.002197
H16   H     H_    0.578977 0.815223 0.386574 0.002254
H17   H     H_    0.368878 0.814966 0.377964 0.104820
H18   H     H_    0.558421 0.914723 0.305729 0.181888
H19   H     H_    0.489023 0.985045 0.364758 0.062141
H20   H     H_    0.349152 0.938814 0.317945 0.176228
H21   H     H_    0.151034 0.463029 0.286651 0.128087
H22   H     H_    0.184201 0.267768 0.115931 0.138248
H23   H     H_    0.078463 0.103360 0.420227 0.132491
H24   H     H_    0.560991 0.464542 0.750945 0.117270
H25   H     H_    0.501155 0.316018 0.892808 0.123657
H26   H     H_    0.260234 0.275130 0.031639 0.089844
H27   H     H_    0.653147 0.544448 0.243227 0.110502
H28   H     H_    0.842125 0.775536 0.131405 0.161812
H29   H     H_    0.958213 0.782184 0.971717 0.071723
H30   H     H_    0.327185 0.203818 0.639607 -0.289329
H31   H     H_    0.034108 0.781594 0.887065 0.120446
H32   H     H_    0.922143 0.786787 0.048392 0.080541
H33   H     H_    0.822790 0.556428 0.398554 0.077153
H34   H     H_    0.060283 0.948096 0.652224 0.153781
H35   H     H_    0.319447 0.412270 0.604286 0.064608
H36   H     H_    0.331151 0.959060 0.546705 0.100018
H37   H     H_    0.852375 0.048272 0.446749 0.106160
H38   H     H_    0.782824 0.737356 0.467979 0.058743
H39   H     H_    0.389814 0.271199 0.524974 0.051852
H40   H     H_    0.245689 0.024826 0.694542 0.125725
H41   H     H_    0.352255 0.002193 0.635748 0.083540
H42   H     H_    0.350535 0.234439 0.418134 0.009638
H43   H     H_    0.168913 0.263615 0.454650 0.050127
H44   H     H_    0.683588 0.169256 0.602127 0.094628
H45   H     H_    0.979559 0.954558 0.590493 0.079156
H46   H     H_    0.815764 0.074151 0.631322 0.154523
H47   H     H_    0.602137 0.074624 0.630531 0.104753
H48   H     H_    0.867515 0.876138 0.753197 0.356919
H49   H     H_    0.819640 0.711744 0.574220 0.102553
H50   H     H_    0.798057 0.850343 0.567708 0.032519
H51   H     H_    0.969318 0.760832 0.541510 0.032413
H52   H     H_    0.540396 0.151183 0.769053 0.196773
H53   H     H_    0.623118 0.019035 0.742418 0.195791
H54   H     H_    0.710735 0.079388 0.796933 0.141292
H55   H     H_    0.649251 0.628278 0.617549 0.202436
H56   H     H_    0.164962 0.878457 0.598100 0.069672
H57   H     H_    0.518866 0.601818 0.663132 0.023201
H58   H     H_    0.476967 0.573032 0.596805 0.034905
H59   H     H_    0.828607 0.734943 0.366077 0.022889
H60   H     H_    0.799014 0.855788 0.337729 0.126804
H61   H     H_    0.828032 0.729709 0.299469 0.164184
H62   H     H_    0.924802 0.013989 0.326136 0.334579
H63   H     H_    0.186286 0.145527 0.773846 0.344696
H64   H     H_    0.506726 0.340862 0.030494 0.132179
H65   H     H_    0.486900 0.228369 0.983838 0.122467
H66   H     H_    0.627016 0.316739 0.976675 0.123099
H67   H     H_    0.809162 0.334738 0.394259 0.028588
H68   H     H_    0.995317 0.555440 0.766719 0.103746
H69   H     H_    0.011255 0.676135 0.739838 0.193711
H70   H     H_    0.920818 0.574621 0.706596 0.198038
H71   H     H_    0.604803 0.361257 0.371098 0.044019
H72   H     H_    0.867417 0.080671 0.717574 0.198496
N1    N     N_R   0.947371 0.515371 0.206091 -0.432637
N2    N     N_R   0.298287 0.533837 0.803276 -0.421413
O1    O     O_2   0.907040 0.557650 0.617910 -0.458464
O2    O     O_2   0.166898 0.883681 0.467358 -0.482725
O3    O     O_3   0.078738 0.859813 0.373484 -0.607236
O4    O     O_3   0.139040 0.557570 0.557730 -0.497166
O5    O     O_3   0.571310 0.369620 0.475470 -0.495153
O6    O     O_2   0.348200 0.764910 0.523260 -0.476818
O7    O     O_3   0.524321 0.802940 0.602178 -0.584627
O8    O     O_2   0.366346 0.572830 0.326630 -0.504641
O9    O     O_3   0.512043 0.732255 0.320592 -0.596429
O10   O     O_2   0.068497 0.346507 0.198384 -0.566728
O11   O     O_2   0.453979 0.376871 0.811128 -0.569754
O12   O     O_3   0.666701 0.218038 0.397220 -0.640719
O13   O     O_2   0.818978 0.681776 0.206001 -0.560957
O14   O     O_2   0.188673 0.705381 0.809278 -0.595681
O15   O     O_3   0.684960 0.360550 0.588460 -0.469391
O16   O     O_2   0.749260 0.471838 0.671515 -0.461900
O17   O     O_3   0.084603 0.722839 0.632437 -0.681780
O18   O     O_3   0.779029 0.277027 0.678316 -0.497686
O19   O     O_2   0.841490 0.235060 0.476710 -0.466158
O20   O     O_3   0.099640 0.305100 0.564190 -0.452450
O21   O     O_2   0.014673 0.120057 0.531848 -0.482381
O22   O     O_2   0.698730 0.915657 0.663065 -0.366391
O23   O     O_3   0.106782 0.145853 0.625128 -0.600192
O24   O     O_2   0.771775 0.736864 0.684071 -0.369949
O25   O     O_3   0.937106 0.877978 0.724513 -0.541262
O26   O     O_2   0.115029 0.925502 0.217831 -0.235184
O27   O     O_2   0.849801 0.903067 0.243785 -0.271711
O28   O     O_3   0.019952 0.013261 0.305559 -0.509213
O29   O     O_2   0.315225 0.281912 0.738517 -0.351417
O30   O     O_2   0.054957 0.334996 0.701854 -0.241106
O31   O     O_3   0.096195 0.172521 0.752274 -0.551148
O32   O     O_2   0.282660 0.442310 0.382060 -0.465743
O33   O     O_3   0.050670 0.442340 0.442260 -0.497756
O34   O     O_3   0.504750 0.639360 0.411530 -0.484205
O35   O     O_3   0.146759 0.272794 0.377298 -0.614836
O36   O     O_3   0.618400 0.630290 0.524520 -0.498088
O37   O     O_3   0.090070 0.694820 0.435810 -0.478952
P1    P     P_3+3 0.072810 0.589830 0.610360 0.990060
P2    P     P_3+3 0.661990 0.251250 0.462170 0.968009
P3    P     P_3+3 0.144674 0.169157 0.564085 0.983083
P4    P     P_3+3 0.116900 0.410080 0.389630 0.998470
P5    P     P_3+3 0.041241 0.831983 0.434120 0.943336
P6    P     P_3+3 0.660337 0.380007 0.652661 1.001152
P7    P     P_3+3 0.527905 0.765228 0.537096 0.931668
P8    P     P_3+3 0.521895 0.613227 0.346424 0.949463
S1    S     S_3+6 0.835363 0.833678 0.673619 -0.142017
S2    S     S_3+6 0.018394 0.909825 0.261463 -0.041613
S3    S     S_3+6 0.173902 0.242320 0.712978 -0.072983

loop_
_geom_bond_atom_site_label_1
_geom_bond_atom_site_label_2
_ccdc_geom_bond_type
Ba2   O5    S    
C46   H39   S    
C19   C24   A    
O21   P3    D    
C39   C43   A    
C68   H20   S    
C18   C41   A    
Ba1   P1    S    
C47   H36   S    
C1    C62   S    
O27   S2    D    
O3    P5    S    
C26   N2    Am   
C57   H34   S    
H63   O31   S    
O1    P1    D    
C58   C59   S    
C23   O7    S    
C23   H6    S    
C53   P7    S    
C17   C19   A    
C22   C24   A    
Ba1   Ba2   S    
O16   P6    D    
Ba2   O37   S    
C36   C37   A    
C29   H24   S    
C3    H27   S    
C52   C61   S    
C57   H56   S    
C12   C60   S    
C60   H44   S    
C21   H25   S    
C32   C33   S    
C33   N2    S    
C4    H30   S    
C12   O18   S    
C22   C27   A    
C60   H46   S    
C43   H32   S    
C58   H71   S    
O36   P7    S    
C25   C42   A    
C14   H33   S    
C46   C49   A    
C2    O13   D    
Ba1   O19   S    
C6    C7    D    
C11   C38   A    
C44   C53   A    
C1    H10   S    
C21   C22   A    
C39   H28   S    
C5    P8    S    
Ba1   O4    S    
Ba2   O32   S    
O31   S3    S    
C17   C35   A    
C7    C8    S    
C45   C64   S    
C67   H16   S    
C37   C43   A    
Ba2   O4    S    
C46   C48   A    
O9    P8    S    
C6    C14   D    
Ba1   O1    S    
C68   H19   S    
C15   C31   D    
C56   H15   S    
C7    H21   S    
C3    C8    D    
C61   H50   S    
Ba1   P2    S    
C64   H61   S    
C52   C57   S    
C51   C53   A    
C4    C16   S    
C4    O23   S    
C52   S1    S    
C30   P6    S    
C49   C50   A    
C63   H57   S    
C66   H70   S    
C17   C20   A    
C23   C63   S    
C41   H29   S    
C13   C39   A    
C49   P2    S    
C34   H9    S    
C32   C66   S    
C38   H26   S    
C3    C5    S    
C18   C37   A    
Ba1   O36   S    
C57   H45   S    
O5    P2    S    
C23   C34   S    
O2    P5    D    
C62   H53   S    
O25   S1    S    
C26   O14   D    
O20   P3    S    
O32   P4    D    
C11   H22   S    
O18   P6    S    
Ba2   O36   S    
C12   H5    S    
C9    C36   A    
C65   H64   S    
C41   C42   A    
Ba2   P4    S    
C31   P1    S    
C35   C36   A    
O19   P2    D    
Ba1   O33   S    
C59   H4    S    
C29   C30   S    
C54   P5    S    
Ba1   O20   S    
C69   O10   D    
C18   C19   A    
O7    P7    S    
C40   H1    S    
C31   C32   D    
C24   C25   A    
C1    H72   S    
Ba1   O5    S    
C8    N1    S    
C45   H13   S    
C16   H40   S    
C67   H17   S    
C1    C12   S    
O35   P4    S    
C27   O11   D    
C5    C14   S    
O12   P2    S    
C10   C69   A    
C47   C48   A    
C9    C13   A    
C56   S2    S    
C29   C33   D    
C66   H69   S    
C68   H18   S    
C54   C55   A    
O24   S1    D    
C35   C38   A    
C56   H14   S    
C61   H51   S    
C50   C51   A    
C64   H60   S    
C28   H43   S    
Ba2   O6    S    
C45   O3    S    
C42   H31   S    
O23   P3    S    
C59   H2    S    
C40   H23   S    
O8    P8    D    
Ba1   O15   S    
C40   H12   S    
C16   H41   S    
C34   H8    S    
C2    N1    Am   
C63   H58   S    
C9    C10   A    
C59   H3    S    
C52   O17   S    
C62   H52   S    
O22   S1    D    
O28   S2    S    
C67   O9    S    
C6    P4    S    
C63   H55   S    
C2    C13   A    
C65   H65   S    
O17   P1    S    
C34   H7    S    
C15   H35   S    
C45   C56   S    
C27   N2    Am   
C61   H49   S    
O34   P8    S    
C47   C51   A    
C16   H11   S    
O26   S2    D    
O37   P5    S    
C67   C68   S    
C65   H66   S    
C20   C65   S    
C60   H47   S    
C50   C55   A    
H48   O25   S    
C28   O35   S    
O33   P4    S    
O6    P7    D    
C55   H37   S    
C10   C11   A    
O29   S3    D    
C62   H54   S    
Ba2   O34   S    
C44   H38   S    
C44   C54   A    
C25   C26   A    
O4    P1    S    
C15   C30   S    
O15   P6    S    
C20   C21   A    
C28   C40   S    
C66   H68   S    
Ba2   O33   S    
C48   P3    S    
H62   O28   S    
O30   S3    D    
C4    S3    S    
C58   O12   S    
C58   H67   S    
C69   N1    Am   
C64   H59   S    
C28   H42   S    
