data_mof_unit_2743.cif
_audit_creation_date              2012-12-11T15:08:31-0500
_audit_creation_method            fapswitch 2.2
_symmetry_space_group_name_H-M    P1
_symmetry_Int_Tables_number       1
_space_group_crystal_system       monoclinic
_cell_length_a                    26.777542
_cell_length_b                    7.075062
_cell_length_c                    11.914668
_cell_angle_alpha                 90.0
_cell_angle_beta                  102.916911
_cell_angle_gamma                 90.0
_cell_volume                      2200.14730113

loop_
_atom_site_label
_atom_site_type_symbol
_atom_type_description
_atom_site_fract_x
_atom_site_fract_y
_atom_site_fract_z
_atom_type_partial_charge
O1    O     O_R   0.437360 0.505910 0.042120 -0.535851
O2    O     O_R   0.562640 0.005910 0.957880 -0.535850
O3    O     O_R   0.542480 0.176660 0.157100 -0.537055
O4    O     O_R   0.457520 0.676660 0.842900 -0.537054
C1    C     C_R   0.557541 0.344357 0.197183 0.749714
C2    C     C_R   0.442459 0.844357 0.802817 0.749712
O5    O     O_R   0.436520 0.176250 0.054800 -0.537485
O6    O     O_R   0.563480 0.676250 0.945200 -0.537485
O7    O     O_R   0.455920 0.005040 0.854840 -0.538893
O8    O     O_R   0.544080 0.505040 0.145160 -0.538890
C3    C     C_R   0.417347 0.344973 0.063747 0.798172
C4    C     C_R   0.582653 0.844973 0.936253 0.798172
O9    O     O_3   0.506490 0.338900 0.934520 -0.372584
O10   O     O_3   0.493510 0.838900 0.065480 -0.372582
V1    V     V_3+5 0.498800 0.064400 0.012150 1.556674
V2    V     V_3+5 0.501200 0.564400 0.987850 1.556676
C5    C     C_R   0.682662 0.906719 0.759371 -0.252198
C6    C     C_R   0.317337 0.406720 0.240629 -0.252198
H1    H     H_    0.776348 0.944545 0.725114 0.138986
H2    H     H_    0.223652 0.444548 0.274885 0.138986
H3    H     H_    0.684743 0.931753 0.670795 0.182770
H4    H     H_    0.315257 0.431755 0.329205 0.182770
C7    C     C_R   0.632120 0.855567 0.901858 -0.166546
C8    C     C_R   0.367880 0.355567 0.098142 -0.166546
C9    C     C_R   0.867144 0.821202 0.210513 -0.007032
C10   C     C_R   0.132856 0.321201 0.789487 -0.007032
C11   C     C_R   0.821140 0.803222 0.244979 -0.108063
C12   C     C_R   0.178860 0.303220 0.755021 -0.108064
C13   C     C_R   0.774647 0.818753 0.164961 -0.191012
C14   C     C_R   0.225353 0.318751 0.835039 -0.191012
C15   C     C_R   0.773070 0.852660 0.046971 0.095563
C16   C     C_R   0.226930 0.352660 0.953029 0.095563
C17   C     C_R   0.820587 0.874042 0.012677 0.048947
C18   C     C_R   0.179413 0.374042 0.987323 0.048947
C19   C     C_R   0.726087 0.863822 0.961734 0.093990
C20   C     C_R   0.273913 0.363823 0.038266 0.093990
C21   C     C_R   0.727895 0.896351 0.845048 0.058211
C22   C     C_R   0.272105 0.396353 0.154952 0.058211
C23   C     C_R   0.774833 0.918763 0.814018 -0.173446
C24   C     C_R   0.225167 0.418766 0.185982 -0.173447
C25   C     C_R   0.820432 0.907892 0.896242 -0.196370
C26   C     C_R   0.179568 0.407894 0.103757 -0.196370
C27   C     C_R   0.677281 0.843926 0.987882 -0.311404
C28   C     C_R   0.322719 0.343926 0.012118 -0.311404
C29   C     C_R   0.634880 0.886395 0.786623 0.459385
C30   C     C_R   0.365119 0.386396 0.213377 0.459385
C31   C     C_R   0.867489 0.858077 0.095525 -0.079665
C32   C     C_R   0.132511 0.358077 0.904475 -0.079665
H5    H     H_    0.672818 0.821466 0.074547 0.118748
H6    H     H_    0.327181 0.321465 0.925453 0.118748
H7    H     H_    0.902772 0.803137 0.273720 0.178162
H8    H     H_    0.097228 0.303136 0.726281 0.178163
H9    H     H_    0.740754 0.801717 0.198411 0.122054
H10   H     H_    0.259246 0.301715 0.801589 0.122054
H11   H     H_    0.821490 0.774833 0.334473 0.139780
H12   H     H_    0.178510 0.274830 0.665527 0.139781
H13   H     H_    0.855714 0.925542 0.867346 0.119023
H14   H     H_    0.144286 0.425544 0.132653 0.119023
C33   C     C_R   0.090118 0.858388 0.312531 -0.134911
C34   C     C_R   0.909882 0.358388 0.687469 -0.134912
C35   C     C_R   0.406905 0.853089 0.689418 -0.070567
C36   C     C_R   0.593095 0.353088 0.310582 -0.070568
C37   C     C_R   0.101379 0.831577 0.519512 0.462985
C38   C     C_R   0.898621 0.331577 0.480488 0.462985
C39   C     C_R   0.069571 0.848264 0.409622 -0.180686
C40   C     C_R   0.930429 0.348264 0.590378 -0.180686
C41   C     C_R   0.142940 0.858351 0.323631 -0.229108
C42   C     C_R   0.857060 0.358351 0.676369 -0.229108
C43   C     C_R   0.176969 0.845662 0.432826 0.040955
C44   C     C_R   0.823031 0.345662 0.567174 0.040955
C45   C     C_R   0.155569 0.821460 0.531409 -0.031322
C46   C     C_R   0.844430 0.321460 0.468591 -0.031322
C47   C     C_R   0.231477 0.854447 0.446267 0.079980
C48   C     C_R   0.768523 0.354445 0.553733 0.079980
C49   C     C_R   0.264362 0.827440 0.557480 0.062561
C50   C     C_R   0.735637 0.327440 0.442520 0.062561
C51   C     C_R   0.241622 0.785361 0.650508 -0.219071
C52   C     C_R   0.758378 0.285361 0.349492 -0.219071
C53   C     C_R   0.188737 0.783156 0.637709 -0.129628
C54   C     C_R   0.811263 0.283156 0.362291 -0.129628
C55   C     C_R   0.254102 0.894126 0.352292 -0.205660
C56   C     C_R   0.745898 0.394121 0.647708 -0.205661
C57   C     C_R   0.306705 0.905925 0.365872 -0.178024
C58   C     C_R   0.693295 0.405920 0.634129 -0.178023
C59   C     C_R   0.339155 0.883308 0.473702 0.122259
C60   C     C_R   0.660845 0.383305 0.526298 0.122259
C61   C     C_R   0.318848 0.843919 0.571624 0.089478
C62   C     C_R   0.681152 0.343918 0.428376 0.089478
C63   C     C_R   0.392001 0.904758 0.484324 -0.048685
C64   C     C_R   0.607999 0.404755 0.515677 -0.048691
C65   C     C_R   0.425427 0.891988 0.591406 -0.096513
C66   C     C_R   0.574573 0.391986 0.408594 -0.096525
C67   C     C_R   0.354093 0.828079 0.679829 -0.228923
C68   C     C_R   0.645907 0.328080 0.320171 -0.228922
H15   H     H_    0.174481 0.745438 0.712472 0.205357
H16   H     H_    0.825519 0.245439 0.287528 0.205357
H17   H     H_    0.341896 0.801395 0.758631 0.096823
H18   H     H_    0.658104 0.301398 0.241369 0.096823
H19   H     H_    0.465710 0.913925 0.597311 0.217296
H20   H     H_    0.534290 0.413922 0.402689 0.217299
H21   H     H_    0.322115 0.937672 0.291174 0.144782
H22   H     H_    0.677885 0.437665 0.708827 0.144782
H23   H     H_    0.028314 0.851011 0.399045 0.205042
H24   H     H_    0.971685 0.351011 0.600955 0.205043
H25   H     H_    0.155915 0.863700 0.244431 0.117584
H26   H     H_    0.844085 0.363701 0.755569 0.117583
H27   H     H_    0.263754 0.752877 0.735421 0.130942
H28   H     H_    0.736246 0.252878 0.264579 0.130942
H29   H     H_    0.232348 0.921823 0.266480 0.138986
H30   H     H_    0.767651 0.421815 0.733520 0.138986
H31   H     H_    0.407476 0.934577 0.409589 0.188185
H32   H     H_    0.592523 0.434573 0.590411 0.188187
O11   O     O_R   0.955980 0.206520 0.854760 -0.551016
O12   O     O_R   0.044020 0.706520 0.145240 -0.551017
O13   O     O_R   0.063490 0.536770 0.945200 -0.520980
O14   O     O_R   0.936510 0.036770 0.054800 -0.520980
C69   C     C_R   0.082741 0.368202 0.937005 0.704073
C70   C     C_R   0.917259 0.868202 0.062995 0.704072
O15   O     O_R   0.957530 0.536190 0.842880 -0.534765
O16   O     O_R   0.042470 0.036190 0.157120 -0.534764
O17   O     O_R   0.937350 0.707210 0.042130 -0.535767
O18   O     O_R   0.062650 0.207210 0.957870 -0.535767
C71   C     C_R   0.943625 0.367615 0.802148 0.729222
C72   C     C_R   0.056375 0.867615 0.197852 0.729221
O19   O     O_3   0.993540 0.373870 0.065440 -0.369737
O20   O     O_3   0.006460 0.873870 0.934560 -0.369736
V3    V     V_3+5 0.001200 0.648440 0.987860 1.535545
V4    V     V_3+5 0.998800 0.148440 0.012140 1.535547
S1    S     S_3+6 0.579236 0.902046 0.675327 -0.075021
O21   O     O_2   0.546739 0.730042 0.679245 -0.380864
O22   O     O_2   0.550068 0.076334 0.694153 -0.363972
O23   O     O_3   0.594317 0.914878 0.545820 -0.518367
H33   H     H_    0.561109 0.930722 0.489982 0.375916
S2    S     S_3+6 0.420763 0.402046 0.324672 -0.075023
O24   O     O_2   0.453261 0.230041 0.320754 -0.380882
O25   O     O_2   0.449932 0.576333 0.305847 -0.363952
O26   O     O_3   0.405683 0.414877 0.454180 -0.518371
H34   H     H_    0.438892 0.430643 0.510022 0.375917
S3    S     S_3+6 0.070132 0.826824 0.636428 -0.032962
O27   O     O_2   0.058246 0.625432 0.660130 -0.359003
O28   O     O_2   0.102364 0.913280 0.743546 -0.371943
O29   O     O_3   0.014722 0.947604 0.599992 -0.493569
H35   H     H_    0.998954 0.936099 0.667398 0.360525
S4    S     S_3+6 0.929868 0.326825 0.363572 -0.032962
O30   O     O_2   0.941754 0.125433 0.339870 -0.359002
O31   O     O_2   0.897636 0.413282 0.256455 -0.371945
O32   O     O_3   0.985278 0.447604 0.400008 -0.493569
H36   H     H_    0.001045 0.436108 0.332600 0.360525

loop_
_geom_bond_atom_site_label_1
_geom_bond_atom_site_label_2
_ccdc_geom_bond_type
C63   H31   S    
C22   C24   A    
C37   C39   A    
C29   S1    S    
O20   V3    S    
C7    C29   A    
C11   C13   A    
C58   H22   S    
O32   H36   S    
O1    C3    A    
C64   H32   S    
O2    C4    A    
C26   H14   S    
S2    O26   S    
C45   C53   A    
C12   H12   S    
O13   V3    S    
C23   C25   A    
O11   V4    S    
O5    C3    A    
C14   H10   S    
C4    C7    S    
C48   C50   A    
C56   H30   S    
C2    C35   S    
C19   C21   A    
C58   C60   A    
O17   V3    S    
H2    C24   S    
S3    O29   S    
C60   C62   A    
C68   H18   S    
C3    C8    S    
C46   C54   A    
C7    C27   A    
C52   H28   S    
C43   C45   A    
C33   C41   A    
C31   C70   S    
O23   H33   S    
O13   C69   A    
C18   C26   A    
C44   C48   A    
O19   V4    S    
C15   C17   A    
C43   C47   A    
C63   C65   A    
C19   C27   A    
C9    C31   A    
C10   C32   A    
S1    O23   S    
O12   C72   A    
C24   C26   A    
C34   C40   A    
O6    V2    S    
C47   C49   A    
C42   H26   S    
C2    O7    A    
S4    O32   S    
C6    C30   A    
C47   C55   A    
C55   C57   A    
C51   C53   A    
C62   C68   A    
O29   H35   S    
C59   C61   A    
C40   H24   S    
C51   H27   S    
S4    O31   D    
C60   C64   A    
C59   C63   A    
C41   H25   S    
S2    O25   D    
C38   S4    S    
C5    H3    S    
C5    C29   A    
C36   C66   A    
C41   C43   A    
C70   O17   A    
C16   C18   A    
O4    V2    S    
C34   C71   S    
C69   O18   A    
C9    H7    S    
C53   H15   S    
C10   H8    S    
C30   S2    S    
C64   C66   A    
O11   C71   A    
O6    C4    A    
O16   V4    S    
O1    V2    S    
C5    C21   A    
O2    V1    S    
C49   C51   A    
C32   C69   S    
H1    C23   S    
C49   C61   A    
C57   C59   A    
C37   C45   A    
C56   C58   A    
C36   C68   A    
C17   C31   A    
C15   C19   A    
C20   C28   A    
O4    C2    A    
C54   H16   S    
C39   H23   S    
C20   C22   A    
C67   H17   S    
O3    V1    S    
C66   H20   S    
S1    O21   D    
C48   C56   A    
C28   H6    S    
C33   C72   S    
C50   C62   A    
O20   V4    S    
C57   H21   S    
C6    H4    S    
C37   S3    S    
C27   H5    S    
C50   C52   A    
S4    O30   D    
O3    C1    A    
S3    O27   D    
C16   C20   A    
S2    O24   D    
O15   C71   A    
C9    C11   A    
O26   H34   S    
C55   H29   S    
C11   H11   S    
C10   C12   A    
C17   C25   A    
C12   C14   A    
C6    C22   A    
C8    C30   A    
C1    O8    A    
C21   C23   A    
O8    V2    S    
C33   C39   A    
C14   C16   A    
O12   V3    S    
S3    O28   D    
C13   H9    S    
C8    C28   A    
C61   C67   A    
O5    V1    S    
O14   C70   A    
C1    C36   S    
C52   C54   A    
C38   C46   A    
O18   V4    S    
C25   H13   S    
O16   C72   A    
C18   C32   A    
C34   C42   A    
C13   C15   A    
O14   V4    S    
O9    V2    S    
O19   V3    S    
C42   C44   A    
O10   V1    S    
C44   C46   A    
C65   H19   S    
C35   C67   A    
C35   C65   A    
O7    V1    S    
C38   C40   A    
S1    O22   D    
O15   V3    S    
