data_mof_unit_4244.cif
_audit_creation_date              2012-12-10T18:57:13-0500
_audit_creation_method            fapswitch 2.2
_symmetry_space_group_name_H-M    P1
_symmetry_Int_Tables_number       1
_space_group_crystal_system       triclinic
_cell_length_a                    8.724893
_cell_length_b                    10.818648
_cell_length_c                    9.538664
_cell_angle_alpha                 89.899499
_cell_angle_beta                  97.419876
_cell_angle_gamma                 90.139009
_cell_volume                      892.826362675

loop_
_atom_site_label
_atom_site_type_symbol
_atom_type_description
_atom_site_fract_x
_atom_site_fract_y
_atom_site_fract_z
_atom_type_partial_charge
C1    C     C_R   0.502823 0.262299 0.500367 0.784577
C2    C     C_R   0.559412 0.598073 0.933140 0.259005
C3    C     C_3   0.720838 0.646278 0.946268 -0.507323
C4    C     C_R   0.204850 0.489912 0.464685 0.868926
C5    C     C_3   0.720196 0.647052 0.105471 -0.507040
C6    C     C_R   0.502834 0.737699 0.500181 0.802673
C7    C     C_R   0.795825 0.494268 0.535147 0.868774
C8    C     C_2   0.043098 0.456767 0.448966 -0.018961
C9    C     C_2   0.961499 0.496451 0.550928 -0.411165
C10   C     C_R   0.519954 0.063358 0.627974 0.136785
C11   C     C_R   0.517973 0.129240 0.501866 -0.090039
C12   C     C_R   0.538114 0.935903 0.377547 -0.219114
C13   C     C_R   0.538061 0.064755 0.377660 -0.223653
C14   C     C_3   0.982296 0.368755 0.328987 -0.372406
C15   C     C_3   0.076358 0.249243 0.334547 -0.866680
C16   C     C_R   0.518152 0.870811 0.501655 -0.097090
C17   C     C_R   0.520052 0.936170 0.627858 0.117100
C18   C     C_3   0.413168 0.928987 0.737984 -0.462503
C19   C     C_3   0.413048 0.069348 0.738124 -0.481932
C20   C     C_R   0.559054 0.598275 0.080399 0.258887
C21   C     C_R   0.426661 0.409741 0.065958 -0.083821
C22   C     C_R   0.426416 0.409868 0.917003 -0.080355
Cu1   Cu    Cu3+1 0.499990 0.499980 0.640670 0.936570
Cu2   Cu    Cu3+1 0.500010 0.500020 0.359330 0.926829
H1    H     H_    0.368812 0.335961 0.854614 0.139341
H2    H     H_    0.470101 0.888442 0.838562 0.192534
H3    H     H_    0.298894 0.110072 0.697623 0.193602
H4    H     H_    0.470006 0.109512 0.838836 0.192973
H5    H     H_    0.369652 0.335467 0.115033 0.137551
H6    H     H_    0.195350 0.267312 0.310611 0.260954
H7    H     H_    0.081648 0.205669 0.440642 0.247586
H8    H     H_    0.020827 0.183307 0.254326 0.240371
H9    H     H_    0.861694 0.338731 0.332896 0.236030
H10   H     H_    0.987776 0.415106 0.225779 0.201989
H11   H     H_    0.803639 0.578564 0.911290 0.219579
H12   H     H_    0.726558 0.740402 0.900276 0.191964
H13   H     H_    0.802836 0.580290 0.161829 0.216574
H14   H     H_    0.725189 0.741648 0.151095 0.189069
H15   H     H_    0.017333 0.545299 0.643364 0.148361
H16   H     H_    0.546200 0.113123 0.279359 0.161430
H17   H     H_    0.546124 0.888007 0.279166 0.158950
H18   H     H_    0.299068 0.887948 0.697364 0.198007
N1    N     N_R   0.500980 0.500930 0.148050 -0.186827
N2    N     N_R   0.500990 0.500890 0.852140 -0.184654
O1    O     O_R   0.500000 0.319640 0.618810 -0.582299
O2    O     O_R   0.500020 0.319680 0.381230 -0.606124
O3    O     O_R   0.274830 0.499980 0.591380 -0.592857
O4    O     O_R   0.274850 0.500020 0.353800 -0.579988
O5    O     O_R   0.499980 0.680320 0.618770 -0.580372
O6    O     O_R   0.500000 0.680360 0.381190 -0.583675
O7    O     O_R   0.725150 0.499980 0.646200 -0.581356
O8    O     O_R   0.725170 0.500020 0.408620 -0.586759

loop_
_geom_bond_atom_site_label_1
_geom_bond_atom_site_label_2
_ccdc_geom_bond_type
C14   H10   S    
Cu1   Cu2   S    
Cu2   O8    S    
C12   H17   S    
Cu1   O1    S    
C5    H13   S    
C19   H3    S    
Cu1   O7    S    
C18   H2    S    
C3    H11   S    
C10   C19   S    
C4    C8    S    
Cu2   O2    S    
C14   H9    S    
C2    C3    S    
C7    O7    A    
C15   H8    S    
C5    C20   S    
C21   N1    A    
C21   C22   A    
C6    O6    A    
C15   H7    S    
C19   H4    S    
C11   C13   A    
C1    O1    A    
C21   H5    S    
C3    H12   S    
C7    O8    A    
C17   C18   S    
C18   H18   S    
C6    O5    A    
Cu2   O6    S    
C1    O2    A    
Cu1   O5    S    
Cu1   O3    S    
C10   C11   A    
C10   C17   A    
C6    C16   S    
Cu2   O4    S    
C9    H15   S    
C20   N1    A    
C12   C13   A    
C15   H6    S    
C18   C19   S    
C4    O4    A    
C7    C9    S    
Cu2   N1    S    
C14   C15   S    
C16   C17   A    
C13   H16   S    
C8    C14   S    
C5    H14   S    
C2    C20   A    
C4    O3    A    
C22   N2    A    
Cu1   N2    S    
C12   C16   A    
C2    N2    A    
C8    C9    D    
C3    C5    S    
C22   H1    S    
C1    C11   S    
