data_mof_unit_3749.cif
_audit_creation_date              2012-12-10T17:36:48-0500
_audit_creation_method            fapswitch 2.2
_symmetry_space_group_name_H-M    P1
_symmetry_Int_Tables_number       1
_space_group_crystal_system       triclinic
_cell_length_a                    10.607579
_cell_length_b                    12.485899
_cell_length_c                    13.273023
_cell_angle_alpha                 117.603893
_cell_angle_beta                  74.238332
_cell_angle_gamma                 100.951145
_cell_volume                      1495.02748177

loop_
_atom_site_label
_atom_site_type_symbol
_atom_type_description
_atom_site_fract_x
_atom_site_fract_y
_atom_site_fract_z
_atom_type_partial_charge
C1    C     C_R   0.509121 0.855399 0.287015 0.816750
C2    C     C_3   0.008856 0.018579 0.611569 -0.191014
C3    C     C_3   0.931265 0.912523 0.527213 -0.154059
C4    C     C_3   0.876705 0.004194 0.505807 -0.038734
C5    C     C_R   0.330638 0.281979 0.033684 -0.186778
C6    C     C_R   0.455904 0.228956 0.837606 -0.034257
C7    C     C_R   0.582756 0.812135 0.079252 -0.194935
C8    C     C_R   0.608243 0.730945 0.962522 -0.153903
C9    C     C_R   0.567494 0.608830 0.928213 -0.157329
C10   C     C_R   0.494142 0.565858 0.010526 0.071847
C11   C     C_R   0.454920 0.651659 0.127616 0.086794
C12   C     C_R   0.739815 0.001501 0.502064 0.812049
C13   C     C_R   0.456796 0.440831 0.980241 0.071775
C14   C     C_R   0.370400 0.404902 0.063487 0.165757
C15   C     C_R   0.321281 0.492218 0.174318 -0.259448
C16   C     C_R   0.360662 0.613795 0.205221 -0.193721
C17   C     C_R   0.503072 0.350065 0.869504 -0.192168
C18   C     C_R   0.371903 0.194399 0.920700 -0.193185
C19   C     C_R   0.510726 0.773157 0.163415 -0.119602
C20   C     C_R   0.678725 0.317516 0.295744 0.330411
C21   C     C_R   0.319912 0.766037 0.649131 -0.068581
C22   C     C_R   0.263443 0.666967 0.672639 0.394336
C23   C     C_R   0.481150 0.144974 0.713820 0.785911
C24   C     C_R   0.319538 0.556358 0.604730 -0.211378
C25   C     C_R   0.438811 0.544374 0.522143 -0.121644
C26   C     C_R   0.486710 0.644895 0.494153 0.173096
C27   C     C_R   0.509494 0.435106 0.462152 -0.096450
C28   C     C_R   0.601068 0.417567 0.357241 -0.025293
C29   C     C_R   0.622208 0.504299 0.316987 -0.314707
C30   C     C_R   0.591199 0.623499 0.392639 0.470706
C31   C     C_R   0.497894 0.343244 0.500553 0.090779
C32   C     C_R   0.665162 0.233535 0.339570 0.037963
C33   C     C_R   0.259568 0.002531 0.503713 0.765119
C34   C     C_3   0.991356 0.992185 0.402347 -0.194967
C35   C     C_3   0.047415 0.900209 0.423344 -0.193051
C36   C     C_3   0.122426 0.005839 0.507270 0.032707
C37   C     C_3   0.068792 0.098390 0.486475 -0.148286
C38   C     C_3   0.952968 0.108826 0.589025 0.013736
Cu1   Cu    Cu3+1 0.529830 0.098270 0.475420 0.961822
Cu2   Cu    Cu3+1 0.470170 0.901730 0.524580 0.965742
H1    H     H_    0.089474 0.814217 0.355098 0.122101
H2    H     H_    0.574345 0.371309 0.804929 0.158271
H3    H     H_    0.623161 0.904962 0.103774 0.177149
H4    H     H_    0.591969 0.551258 0.836215 0.135950
H5    H     H_    0.663897 0.762160 0.898370 0.148183
H6    H     H_    0.312999 0.677612 0.289806 0.165764
H7    H     H_    0.680888 0.483059 0.230854 0.214234
H8    H     H_    0.274064 0.850890 0.695019 0.126393
H9    H     H_    0.982220 0.980612 0.316474 0.156609
H10   H     H_    0.262183 0.479251 0.613576 0.178586
H11   H     H_    0.127139 0.175102 0.470784 0.142948
H12   H     H_    0.019241 0.030156 0.697144 0.131730
H13   H     H_    0.873028 0.836059 0.543380 0.149831
H14   H     H_    0.334114 0.100915 0.897292 0.138923
H15   H     H_    0.251076 0.466558 0.237306 0.142683
H16   H     H_    0.263848 0.254194 0.096676 0.133741
N1    N     N_R   0.575030 0.246270 0.438190 -0.252392
N2    N     N_R   0.425760 0.754330 0.561190 -0.211790
O1    O     O_R   0.537510 0.972500 0.318130 -0.584422
O2    O     O_R   0.487140 0.806530 0.359650 -0.521175
O3    O     O_R   0.708330 0.082950 0.479220 -0.578591
O4    O     O_R   0.657960 0.916980 0.520740 -0.528371
O5    O     O_R   0.512860 0.193470 0.640350 -0.574237
O6    O     O_R   0.462490 0.027500 0.681870 -0.596677
O7    O     O_R   0.342040 0.083020 0.479260 -0.583853
O8    O     O_R   0.291670 0.917050 0.520780 -0.598999
C39   C     C_1   0.746306 0.132420 0.278861 0.347336
N3    N     N_1   0.812502 0.051941 0.229623 -0.353915
O9    O     O_3   0.763555 0.299202 0.190035 -0.578557
C40   C     C_3   0.890304 0.351592 0.209270 0.029868
H17   H     H_    0.939681 0.293242 0.227252 0.147932
H18   H     H_    0.887618 0.443897 0.283273 0.124916
C41   C     C_3   0.971781 0.362350 0.100311 -0.758448
H19   H     H_    0.922423 0.417162 0.078276 0.252073
H20   H     H_    0.070044 0.407429 0.115179 0.202075
H21   H     H_    0.983949 0.270933 0.026195 0.253354
C42   C     C_1   0.409941 0.351400 0.607326 0.298002
N4    N     N_1   0.338596 0.358595 0.693220 -0.305388
O10   O     O_3   0.145466 0.669867 0.751487 -0.571009
C43   C     C_3   0.142613 0.775434 0.857926 0.058248
H22   H     H_    0.114494 0.852667 0.850863 0.134447
H23   H     H_    0.238963 0.799617 0.884923 0.135972
C44   C     C_3   0.039500 0.753334 0.952764 -0.748904
H24   H     H_    0.065045 0.676919 0.962593 0.248711
H25   H     H_    0.035282 0.835864 0.036832 0.198441
H26   H     H_    0.941324 0.731010 0.930137 0.256525
O11   O     O_3   0.658492 0.717005 0.366065 -0.530958
C45   C     C_3   0.786025 0.695196 0.293357 0.031300
H27   H     H_    0.837217 0.629431 0.299684 0.115495
H28   H     H_    0.847711 0.780205 0.323526 0.174389
C46   C     C_3   0.784693 0.663951 0.167921 -0.814546
H29   H     H_    0.771602 0.746676 0.161817 0.249188
H30   H     H_    0.879976 0.629148 0.110751 0.211128
H31   H     H_    0.704508 0.594723 0.136081 0.256709
C47   C     C_1   0.899065 0.222938 0.679801 0.224083
N5    N     N_1   0.856531 0.312908 0.751397 -0.284868

loop_
_geom_bond_atom_site_label_1
_geom_bond_atom_site_label_2
_ccdc_geom_bond_type
O11   C45   S    
Cu2   O2    S    
C34   C37   S    
C41   H20   S    
C41   H19   S    
C5    H16   S    
C35   C36   S    
C33   O7    A    
C7    C8    A    
C42   N4    T    
C11   C19   A    
C29   C30   A    
C29   H7    S    
C28   C29   A    
C22   O10   S    
C1    O1    A    
C37   H11   S    
C15   C16   A    
Cu1   N1    S    
C33   C36   S    
Cu2   O4    S    
C34   C35   S    
C8    H5    S    
C17   H2    S    
C47   N5    T    
C8    C9    A    
C34   H9    S    
C38   C47   S    
C40   H17   S    
C7    H3    S    
C4    C12   S    
C9    C10   A    
C21   H8    S    
C23   O5    A    
Cu2   O8    S    
C21   C22   A    
Cu1   O7    S    
C32   N1    A    
C43   C44   S    
Cu1   O3    S    
C33   O8    A    
C31   C42   S    
C24   H10   S    
C6    C18   A    
C4    C34   S    
C1    C19   S    
Cu2   N2    S    
C27   C31   A    
C39   N3    T    
C24   C25   A    
C43   H23   S    
C1    O2    A    
C16   H6    S    
C46   H29   S    
C5    C18   A    
C20   C28   A    
C25   C26   A    
C15   H15   S    
C37   C38   S    
C46   H30   S    
C12   O4    A    
C11   C16   A    
C2    C38   S    
C44   H24   S    
C45   C46   S    
C3    C35   S    
Cu1   O1    S    
C40   C41   S    
C26   N2    A    
C5    C14   A    
C2    H12   S    
C32   C39   S    
C23   O6    A    
C44   H25   S    
C4    C38   S    
C26   C30   A    
C7    C19   A    
C41   H21   S    
C22   C24   A    
C20   O9    S    
C3    C4    S    
Cu1   Cu2   S    
C20   C32   A    
C2    C36   S    
C6    C17   A    
C36   C37   S    
C9    H4    S    
C45   H28   S    
C43   H22   S    
C10   C13   A    
C25   C27   A    
Cu1   O5    S    
Cu2   O6    S    
C13   C17   A    
C31   N1    A    
C2    C3    S    
C21   N2    A    
C46   H31   S    
C12   O3    A    
C3    H13   S    
C6    C23   S    
O9    C40   S    
C35   H1    S    
C10   C11   A    
C18   H14   S    
O10   C43   S    
C44   H26   S    
C45   H27   S    
C27   C28   A    
C14   C15   A    
C40   H18   S    
C30   O11   S    
C13   C14   A    
