data_mof_unit_4465.cif
_audit_creation_date              2012-12-10T20:52:59-0500
_audit_creation_method            fapswitch 2.2
_symmetry_space_group_name_H-M    P1
_symmetry_Int_Tables_number       1
_space_group_crystal_system       triclinic
_cell_length_a                    18.357673
_cell_length_b                    18.3578
_cell_length_c                    18.357873
_cell_angle_alpha                 59.879657
_cell_angle_beta                  59.879884
_cell_angle_gamma                 59.88012
_cell_volume                      4362.75096167

loop_
_atom_site_label
_atom_site_type_symbol
_atom_type_description
_atom_site_fract_x
_atom_site_fract_y
_atom_site_fract_z
_atom_type_partial_charge
C1    C     C_R   0.389917 0.110154 0.110174 0.780703
C2    C     C_R   0.382096 0.806807 0.776483 -0.111760
C3    C     C_R   0.910230 0.552027 0.035202 0.071571
C4    C     C_R   0.447897 0.964827 0.089741 0.071578
C5    C     C_R   0.552102 0.035172 0.910260 0.071579
C6    C     C_R   0.946025 0.945892 0.553825 -0.154820
C7    C     C_R   0.053974 0.054108 0.446175 -0.154820
C8    C     C_R   0.945891 0.553825 0.946027 -0.154823
C9    C     C_R   0.054108 0.446176 0.053974 -0.154822
C10   C     C_R   0.553825 0.946026 0.945892 -0.154860
C11   C     C_R   0.446175 0.053973 0.054109 -0.154860
C12   C     C_R   0.193206 0.223557 0.617862 -0.111749
C13   C     C_R   0.806799 0.776455 0.382124 -0.111753
C14   C     C_R   0.182953 0.576385 0.284028 0.491022
C15   C     C_R   0.817054 0.423610 0.715978 0.491024
C16   C     C_R   0.576381 0.284022 0.182948 0.491033
C17   C     C_R   0.423591 0.715980 0.817072 0.491026
C18   C     C_R   0.284030 0.182961 0.576364 0.491024
C19   C     C_R   0.715973 0.817047 0.423622 0.491028
C20   C     C_R   0.091944 0.584075 0.315356 0.018174
C21   C     C_R   0.610083 0.889845 0.889826 0.780703
C22   C     C_R   0.908063 0.415923 0.684645 0.018171
C23   C     C_R   0.584076 0.315354 0.091937 0.018178
C24   C     C_R   0.415920 0.684648 0.908075 0.018168
C25   C     C_R   0.315357 0.091947 0.584072 0.018173
C26   C     C_R   0.684644 0.908058 0.415927 0.018174
C27   C     C_R   0.044630 0.633197 0.254992 -0.183970
C28   C     C_R   0.955381 0.366807 0.745005 -0.183973
C29   C     C_R   0.633200 0.254994 0.044621 -0.183985
C30   C     C_R   0.366823 0.745011 0.955387 -0.183966
C31   C     C_R   0.254993 0.044631 0.633207 -0.183974
C32   C     C_R   0.110155 0.110174 0.389917 0.780708
C33   C     C_R   0.745008 0.955373 0.366804 -0.183971
C34   C     C_R   0.086235 0.674274 0.164901 -0.120015
C35   C     C_R   0.913779 0.325733 0.835099 -0.120008
C36   C     C_R   0.674274 0.164901 0.086223 -0.120010
C37   C     C_R   0.325752 0.835106 0.913787 -0.119996
C38   C     C_R   0.164901 0.086239 0.674279 -0.120020
C39   C     C_R   0.835101 0.913768 0.325732 -0.120013
C40   C     C_R   0.175515 0.666590 0.134047 -0.221079
C41   C     C_R   0.824499 0.333414 0.865958 -0.221078
C42   C     C_R   0.666585 0.134043 0.175505 -0.221078
C43   C     C_R   0.889845 0.889826 0.610083 0.780707
C44   C     C_R   0.333419 0.865964 0.824512 -0.221080
C45   C     C_R   0.134048 0.175525 0.666576 -0.221077
C46   C     C_R   0.865956 0.824487 0.333421 -0.221079
C47   C     C_R   0.989951 0.590567 0.465076 -0.262977
C48   C     C_R   0.010050 0.409433 0.534923 -0.262987
C49   C     C_R   0.590569 0.465075 0.989946 -0.262975
C50   C     C_R   0.409430 0.534925 0.010059 -0.262987
C51   C     C_R   0.465076 0.989949 0.590567 -0.262970
C52   C     C_R   0.534924 0.010051 0.409433 -0.262980
C53   C     C_R   0.944674 0.552505 0.555039 -0.047437
C54   C     C_R   0.110174 0.389917 0.110155 0.780717
C55   C     C_R   0.055327 0.447495 0.444960 -0.047442
C56   C     C_R   0.552504 0.555040 0.944675 -0.047423
C57   C     C_R   0.447494 0.444961 0.055329 -0.047442
C58   C     C_R   0.555039 0.944672 0.552505 -0.047438
C59   C     C_R   0.444961 0.055328 0.447494 -0.047442
C60   C     C_R   0.954691 0.460741 0.590429 -0.018866
C61   C     C_R   0.045311 0.539258 0.409571 -0.018866
C62   C     C_R   0.460738 0.590431 0.954699 -0.018879
C63   C     C_R   0.539260 0.409570 0.045308 -0.018875
C64   C     C_R   0.590429 0.954689 0.460742 -0.018866
C65   C     C_R   0.889825 0.610083 0.889846 0.780717
C66   C     C_R   0.409571 0.045312 0.539257 -0.018864
C67   C     C_R   0.110794 0.390406 0.389772 0.816854
C68   C     C_R   0.889206 0.609594 0.610228 0.816849
C69   C     C_R   0.390406 0.389772 0.110795 0.816855
C70   C     C_R   0.609594 0.610228 0.889206 0.816850
C71   C     C_R   0.389772 0.110795 0.390405 0.816867
C72   C     C_R   0.610228 0.889205 0.609595 0.816855
C73   C     C_R   0.927860 0.179722 0.397927 -0.146606
C74   C     C_R   0.072140 0.820278 0.602070 -0.146606
C75   C     C_R   0.179721 0.397930 0.927861 -0.146599
C76   C     C_R   0.223546 0.617888 0.193205 -0.111770
C77   C     C_R   0.820277 0.602068 0.072141 -0.146599
C78   C     C_R   0.397780 0.927915 0.179666 -0.146605
C79   C     C_R   0.602218 0.072085 0.820334 -0.146603
C80   C     C_R   0.839672 0.214174 0.400966 -0.133419
C81   C     C_R   0.160329 0.785825 0.599029 -0.133417
C82   C     C_R   0.214174 0.400970 0.839673 -0.133407
C83   C     C_R   0.785825 0.599028 0.160329 -0.133407
C84   C     C_R   0.400744 0.839757 0.214088 -0.133431
C85   C     C_R   0.599254 0.160243 0.785911 -0.133434
C86   C     C_R   0.786217 0.160514 0.454229 -0.146493
C87   C     C_R   0.776465 0.382110 0.806804 -0.111767
C88   C     C_R   0.213784 0.839485 0.545766 -0.146490
C89   C     C_R   0.160513 0.454232 0.786219 -0.146509
C90   C     C_R   0.839486 0.545768 0.213781 -0.146508
C91   C     C_R   0.454009 0.786302 0.160430 -0.146529
C92   C     C_R   0.545990 0.213697 0.839570 -0.146522
C93   C     C_R   0.820652 0.072143 0.504773 -0.159223
C94   C     C_R   0.179348 0.927856 0.495225 -0.159221
C95   C     C_R   0.072143 0.504774 0.820655 -0.159207
C96   C     C_R   0.927858 0.495228 0.179345 -0.159210
C97   C     C_R   0.504629 0.820708 0.072089 -0.159205
C98   C     C_R   0.617881 0.193197 0.223539 -0.111755
C99   C     C_R   0.495372 0.179290 0.927911 -0.159201
C100  C     C_R   0.910406 0.035217 0.502194 0.073413
C101  C     C_R   0.089594 0.964783 0.497805 0.073413
C102  C     C_R   0.035216 0.502195 0.910408 0.073425
C103  C     C_R   0.964784 0.497806 0.089593 0.073425
C104  C     C_R   0.502121 0.910435 0.035188 0.073425
C105  C     C_R   0.497879 0.089564 0.964812 0.073424
C106  C     C_R   0.964798 0.089770 0.447972 0.071573
C107  C     C_R   0.035201 0.910230 0.552028 0.071574
C108  C     C_R   0.089769 0.447973 0.964800 0.071571
H1    H     H_    0.983585 0.660496 0.437849 0.174247
H2    H     H_    0.717000 0.637775 0.187432 0.143362
H3    H     H_    0.361935 0.812677 0.282890 0.143378
H4    H     H_    0.638061 0.187323 0.717109 0.143379
H5    H     H_    0.775880 0.033634 0.546161 0.128080
H6    H     H_    0.224121 0.966366 0.453837 0.128079
H7    H     H_    0.033633 0.546162 0.775883 0.128076
H8    H     H_    0.966368 0.453842 0.224117 0.128079
H9    H     H_    0.546021 0.775932 0.033585 0.128145
H10   H     H_    0.453980 0.224067 0.966415 0.128148
H11   H     H_    0.207531 0.698260 0.064067 0.152872
H12   H     H_    0.016416 0.339505 0.562150 0.174249
H13   H     H_    0.792486 0.301746 0.935940 0.152868
H14   H     H_    0.698253 0.064061 0.207519 0.152866
H15   H     H_    0.301754 0.935947 0.792499 0.152863
H16   H     H_    0.064067 0.207542 0.698243 0.152867
H17   H     H_    0.935937 0.792472 0.301754 0.152866
H18   H     H_    0.292949 0.612098 0.168350 0.147053
H19   H     H_    0.707062 0.387898 0.831662 0.147051
H20   H     H_    0.612087 0.168340 0.292944 0.147059
H21   H     H_    0.387873 0.831665 0.707085 0.147056
H22   H     H_    0.168352 0.292964 0.612058 0.147060
H23   H     H_    0.660499 0.437848 0.983575 0.174252
H24   H     H_    0.831654 0.707051 0.387918 0.147060
H25   H     H_    0.975592 0.638765 0.277689 0.139869
H26   H     H_    0.024419 0.361242 0.722304 0.139869
H27   H     H_    0.638770 0.277694 0.975581 0.139855
H28   H     H_    0.361270 0.722310 0.024421 0.139854
H29   H     H_    0.277689 0.975589 0.638788 0.139869
H30   H     H_    0.722310 0.024412 0.361232 0.139869
H31   H     H_    0.282443 0.812392 0.543119 0.144280
H32   H     H_    0.717559 0.187607 0.456875 0.144276
H33   H     H_    0.812393 0.543122 0.282439 0.144269
H34   H     H_    0.339500 0.562153 0.016430 0.174259
H35   H     H_    0.187606 0.456878 0.717561 0.144267
H36   H     H_    0.543401 0.282333 0.812499 0.144276
H37   H     H_    0.456598 0.717665 0.187500 0.144273
H38   H     H_    0.966216 0.224642 0.356491 0.128036
H39   H     H_    0.033784 0.775357 0.643507 0.128035
H40   H     H_    0.224642 0.356495 0.966216 0.128037
H41   H     H_    0.775356 0.643501 0.033786 0.128033
H42   H     H_    0.356344 0.966266 0.224590 0.128108
H43   H     H_    0.643651 0.033734 0.775410 0.128106
H44   H     H_    0.197978 0.505485 0.401131 0.338491
H45   H     H_    0.437849 0.983582 0.660495 0.174246
H46   H     H_    0.802025 0.494501 0.598878 0.338491
H47   H     H_    0.505484 0.401123 0.197976 0.338488
H48   H     H_    0.494455 0.598875 0.802050 0.338492
H49   H     H_    0.401136 0.197981 0.505467 0.338489
H50   H     H_    0.598870 0.802022 0.494517 0.338490
H51   H     H_    0.049293 0.711755 0.118845 0.147571
H52   H     H_    0.950723 0.288256 0.881152 0.147570
H53   H     H_    0.711755 0.118847 0.049280 0.147573
H54   H     H_    0.288292 0.881161 0.950726 0.147573
H55   H     H_    0.118844 0.049296 0.711770 0.147569
H56   H     H_    0.562151 0.016418 0.339505 0.174250
H57   H     H_    0.881157 0.950710 0.288250 0.147569
H58   H     H_    0.812571 0.282998 0.362216 0.143365
H59   H     H_    0.187431 0.717000 0.637778 0.143367
H60   H     H_    0.282998 0.362221 0.812571 0.143360
O1    O     O_3   0.250000 0.250000 0.250000 -0.490321
O2    O     O_R   0.865800 0.694910 0.573470 -0.639524
O3    O     O_R   0.305090 0.426530 0.134200 -0.639522
O4    O     O_R   0.694910 0.573470 0.865800 -0.639523
O5    O     O_R   0.426530 0.134200 0.305090 -0.639523
O6    O     O_R   0.573470 0.865800 0.694910 -0.639522
O7    O     O_R   0.134190 0.426530 0.134200 -0.640357
O8    O     O_R   0.865810 0.573470 0.865800 -0.640357
O9    O     O_R   0.426530 0.134200 0.134190 -0.640368
O10   O     O_R   0.573470 0.865800 0.865810 -0.640371
O11   O     O_R   0.134200 0.134190 0.426530 -0.640354
O12   O     O_3   0.750000 0.750000 0.750000 -0.490320
O13   O     O_R   0.865800 0.865810 0.573470 -0.640355
O14   O     O_R   0.426530 0.305080 0.134210 -0.635504
O15   O     O_R   0.573470 0.694920 0.865790 -0.635504
O16   O     O_R   0.305080 0.134210 0.426530 -0.635493
O17   O     O_R   0.694920 0.865790 0.573470 -0.635494
O18   O     O_R   0.134210 0.426530 0.305080 -0.635494
O19   O     O_R   0.865790 0.573470 0.694920 -0.635493
O20   O     O_3   0.234587 0.529201 0.338556 -0.771748
O21   O     O_3   0.765417 0.470788 0.661454 -0.771754
O22   O     O_3   0.529195 0.338547 0.234586 -0.771740
O23   O     O_R   0.305080 0.134200 0.134200 -0.638882
O24   O     O_3   0.470750 0.661454 0.765441 -0.771751
O25   O     O_3   0.338559 0.234596 0.529169 -0.771741
O26   O     O_3   0.661446 0.765412 0.470807 -0.771750
O27   O     O_R   0.694920 0.865800 0.865800 -0.638880
O28   O     O_R   0.134200 0.134200 0.305080 -0.638877
O29   O     O_R   0.865800 0.865800 0.694920 -0.638875
O30   O     O_R   0.134200 0.305080 0.134200 -0.638863
O31   O     O_R   0.865800 0.694920 0.865800 -0.638860
O32   O     O_R   0.134200 0.305090 0.426530 -0.639524
Zn1   Zn    Zn3+2 0.206620 0.206630 0.380140 0.981857
Zn2   Zn    Zn3+2 0.793380 0.793370 0.619860 0.981852
Zn3   Zn    Zn3+2 0.206630 0.380140 0.206620 0.981856
Zn4   Zn    Zn3+2 0.793370 0.619860 0.793380 0.981852
Zn5   Zn    Zn3+2 0.380140 0.206620 0.206630 0.981847
Zn6   Zn    Zn3+2 0.619860 0.793380 0.793370 0.981838
Zn7   Zn    Zn3+2 0.206620 0.206620 0.206620 0.955839
Zn8   Zn    Zn3+2 0.793380 0.793380 0.793380 0.955842

loop_
_geom_bond_atom_site_label_1
_geom_bond_atom_site_label_2
_ccdc_geom_bond_type
C25   C31   A    
C48   C55   A    
C89   C95   A    
C49   C63   A    
C76   H18   S    
C47   C61   A    
O8    Zn4   S    
C46   H17   S    
C36   C42   A    
O13   Zn2   S    
C1    C11   S    
C91   H37   S    
C40   C76   A    
H44   O20   S    
C85   H4    S    
C58   C72   S    
C87   H19   S    
C94   H6    S    
C97   C104  A    
C48   H12   S    
C82   H60   S    
C9    C108  A    
C49   H23   S    
C29   C36   A    
C78   H42   S    
C33   C39   A    
C82   C89   A    
C12   H22   S    
C34   C40   A    
C23   C29   A    
C79   H43   S    
C86   C93   A    
O12   Zn2   S    
C42   C98   A    
C59   C66   A    
O1    Zn5   S    
C13   C46   A    
C77   C83   A    
C4    C104  A    
C2    H21   S    
C19   C26   A    
C69   O3    A    
C41   H13   S    
C20   C61   S    
O4    Zn4   S    
C53   C68   S    
C70   O4    A    
C35   H52   S    
C45   H16   S    
C38   C45   A    
C80   C86   A    
C74   C107  A    
C65   O31   A    
C1    O9    A    
C53   C60   A    
C15   C22   A    
C51   H45   S    
O27   Zn8   S    
O11   Zn1   S    
C94   C101  A    
C95   H7    S    
O32   Zn1   S    
C11   C105  A    
C6    C107  A    
C32   O11   A    
C102  C108  A    
O16   Zn1   S    
C84   C91   A    
C72   O6    A    
C5    C79   A    
C95   C102  A    
C86   H32   S    
C69   O14   A    
C47   C53   A    
C34   H51   S    
C98   H20   S    
C15   O21   S    
C8    C65   S    
C10   C21   S    
C22   C28   A    
C2    C17   A    
O3    Zn3   S    
C18   C25   A    
C68   O2    A    
C32   O28   A    
O12   Zn6   S    
C80   H58   S    
C85   C92   A    
C48   C60   A    
C27   C34   A    
C58   C64   A    
C41   C87   A    
C88   C94   A    
C83   H2    S    
C84   H3    S    
C13   C19   A    
C17   C24   A    
C14   C20   A    
C74   H39   S    
C28   C35   A    
C3    C8    A    
C52   C64   A    
C2    C44   A    
C5    C105  A    
C47   H1    S    
O19   Zn4   S    
C43   O13   A    
C91   C97   A    
C71   O5    A    
C30   C37   A    
C51   C66   A    
C6    C100  A    
O17   Zn2   S    
C39   H57   S    
C88   H31   S    
C4    C78   A    
H47   O22   S    
C52   C59   A    
O1    Zn3   S    
C14   O20   S    
C26   C33   A    
C93   C100  A    
C33   H30   S    
C9    C103  A    
C81   H59   S    
C7    C106  A    
C43   O29   A    
C51   C58   A    
H50   O26   S    
C21   O27   A    
C4    C11   A    
C54   O7    A    
C35   C41   A    
C16   O22   S    
C52   H56   S    
C39   C46   A    
H48   O24   S    
C38   H55   S    
C29   H27   S    
H46   O21   S    
C67   O32   A    
C16   C23   A    
C56   C70   S    
C6    C43   S    
C65   O8    A    
C36   H53   S    
C50   C62   A    
H49   O25   S    
C96   C103  A    
C31   H29   S    
C74   C81   A    
C77   H41   S    
C3    C77   A    
C1    O23   A    
C79   C85   A    
C42   H14   S    
C15   C87   A    
C17   O24   S    
C75   C108  A    
C3    C103  A    
C83   C90   A    
C73   C80   A    
C21   O10   A    
C24   C62   S    
C7    C32   S    
C14   C76   A    
O30   Zn7   S    
O23   Zn7   S    
C50   C57   A    
C71   O16   A    
C25   C66   S    
C57   C63   A    
C12   C45   A    
O12   Zn4   S    
O1    Zn7   S    
C55   C67   S    
C67   O18   A    
C75   C82   A    
C90   C96   A    
C20   C27   A    
C26   C64   S    
C75   H40   S    
C49   C56   A    
C44   H15   S    
C100  C106  A    
C54   O30   A    
C31   C38   A    
O10   Zn6   S    
C73   H38   S    
O14   Zn5   S    
C37   C44   A    
C10   C104  A    
O7    Zn3   S    
C5    C10   A    
C89   H35   S    
C30   H28   S    
C22   C60   S    
C16   C98   A    
C73   C106  A    
O28   Zn7   S    
C90   H33   S    
C55   C61   A    
C23   C63   S    
O31   Zn8   S    
C13   H24   S    
O9    Zn5   S    
O18   Zn3   S    
C93   H5    S    
C56   C62   A    
C97   H9    S    
C92   H36   S    
C99   C105  A    
C24   C30   A    
C72   O17   A    
O2    Zn2   S    
C81   C88   A    
O1    Zn1   S    
C68   O19   A    
C78   C84   A    
C70   O15   A    
C28   H26   S    
C40   H11   S    
C19   O26   S    
C18   O25   S    
C7    C101  A    
C27   H25   S    
C12   C18   A    
C101  C107  A    
O6    Zn6   S    
O15   Zn6   S    
C96   H8    S    
O29   Zn8   S    
O5    Zn5   S    
C9    C54   S    
C57   C69   S    
O12   Zn8   S    
C8    C102  A    
C50   H34   S    
C92   C99   A    
C59   C71   S    
C37   H54   S    
C99   H10   S    
