data_mof_unit_3068.cif
_audit_creation_date              2012-12-10T17:31:05-0500
_audit_creation_method            fapswitch 2.2
_symmetry_space_group_name_H-M    P1
_symmetry_Int_Tables_number       1
_space_group_crystal_system       triclinic
_cell_length_a                    12.195757
_cell_length_b                    12.686676
_cell_length_c                    15.516174
_cell_angle_alpha                 83.794934
_cell_angle_beta                  115.480558
_cell_angle_gamma                 95.745581
_cell_volume                      2150.65929271

loop_
_atom_site_label
_atom_site_type_symbol
_atom_type_description
_atom_site_fract_x
_atom_site_fract_y
_atom_site_fract_z
_atom_type_partial_charge
Br1   Br    Br    0.818193 0.304728 0.656583 -0.452402
Br2   Br    Br    0.180989 0.691190 0.339693 -0.457684
Br3   Br    Br    0.919008 0.386457 0.025841 -0.463143
Br4   Br    Br    0.078435 0.646113 0.985317 -0.460819
Br5   Br    Br    0.500543 0.787700 0.293655 -0.544797
Br6   Br    Br    0.503420 0.213872 0.707785 -0.531639
C1    C     C_R   0.477756 0.299684 0.503007 0.967269
C2    C     C_R   0.513068 0.975607 0.387908 0.154785
C3    C     C_R   0.483042 0.134921 0.601646 0.212535
C4    C     C_R   0.518883 0.865675 0.399712 0.215971
C5    C     C_R   0.451328 0.130985 0.435790 0.088847
C6    C     C_R   0.548838 0.868691 0.565283 0.089497
C7    C     C_R   0.491017 0.027155 0.455277 0.037877
C8    C     C_R   0.509975 0.972873 0.546168 0.038629
C9    C     C_R   0.015105 0.611490 0.417624 -0.326067
C10   C     C_R   0.981129 0.384765 0.576071 -0.330942
C11   C     C_R   0.130650 0.598351 0.423441 0.382400
C12   C     C_R   0.522349 0.700343 0.497187 0.967926
C13   C     C_R   0.867112 0.398462 0.572472 0.387678
C14   C     C_R   0.152108 0.446902 0.532262 0.222572
C15   C     C_R   0.848246 0.555597 0.469970 0.201871
C16   C     C_R   0.576160 0.496948 0.679534 0.923886
C17   C     C_R   0.424247 0.505938 0.320067 0.917896
C18   C     C_R   0.032761 0.456930 0.526126 0.012512
C19   C     C_R   0.964610 0.542744 0.470683 0.017261
C20   C     C_R   0.623627 0.498146 0.782904 -0.110704
C21   C     C_R   0.380005 0.522642 0.216233 -0.110688
C22   C     C_R   0.767282 0.447723 0.943854 0.308256
C23   C     C_R   0.652047 0.533937 0.109503 0.157591
C24   C     C_R   0.235697 0.591125 0.060846 0.306400
C25   C     C_R   0.731158 0.451110 0.845216 -0.127236
C26   C     C_R   0.267983 0.565587 0.158245 -0.113989
C27   C     C_R   0.553340 0.541383 0.819032 -0.250451
C28   C     C_R   0.459529 0.507134 0.176842 -0.241880
C29   C     C_R   0.574230 0.520757 0.914421 0.071385
C30   C     C_R   0.436816 0.544811 0.083404 0.072307
C31   C     C_R   0.689694 0.484530 0.979152 0.035140
C32   C     C_R   0.318869 0.577126 0.022196 0.036827
C33   C     C_R   0.486036 0.539192 0.947636 0.032674
C34   C     C_R   0.359387 0.551871 0.886266 0.163852
C35   C     C_R   0.525553 0.540641 0.047949 0.035261
C36   C     C_3   0.713434 0.581101 0.205360 -0.890114
C37   C     C_3   0.294303 0.514390 0.786364 -0.884765
C38   C     C_3   0.615377 0.817480 0.665668 -0.848640
C39   C     C_3   0.383797 0.181402 0.335224 -0.845901
C40   C     C_3   0.457793 0.966291 0.691480 -0.784923
C41   C     C_3   0.544953 0.034814 0.310863 -0.782547
C42   C     C_3   0.783475 0.656637 0.428028 -0.758727
C43   C     C_3   0.221757 0.352805 0.590287 -0.778264
C44   C     C_R   0.728324 0.494488 0.076468 -0.165646
C45   C     C_R   0.283232 0.583776 0.923742 -0.168685
C46   C     C_R   0.535766 0.813558 0.488217 -0.158156
C47   C     C_R   0.464751 0.186512 0.512660 -0.153410
C48   C     C_R   0.488826 0.024915 0.613798 0.156043
H1    H     H_    0.821623 0.481510 0.126314 0.204707
H2    H     H_    0.743962 0.517026 0.263783 0.244290
H3    H     H_    0.794550 0.632250 0.209038 0.258477
H4    H     H_    0.281409 0.582169 0.731966 0.242177
H5    H     H_    0.343089 0.451092 0.776437 0.265077
H6    H     H_    0.202657 0.477357 0.773996 0.251104
H7    H     H_    0.691805 0.773406 0.669477 0.241558
H8    H     H_    0.658284 0.877410 0.719293 0.270451
H9    H     H_    0.553329 0.760057 0.685038 0.225237
H10   H     H_    0.306084 0.223686 0.331289 0.244230
H11   H     H_    0.444638 0.240220 0.315719 0.228268
H12   H     H_    0.190138 0.599416 0.875239 0.200854
H13   H     H_    0.342618 0.121152 0.281740 0.269485
H14   H     H_    0.423297 0.883330 0.675110 0.235230
H15   H     H_    0.537457 0.968968 0.762118 0.266021
H16   H     H_    0.381918 0.003682 0.695804 0.259874
H17   H     H_    0.577691 0.118150 0.326985 0.237438
H18   H     H_    0.622240 0.998470 0.307772 0.259190
H19   H     H_    0.466209 0.031236 0.239772 0.266398
H20   H     H_    0.687307 0.637836 0.381671 0.289386
H21   H     H_    0.793048 0.703489 0.487393 0.252293
H22   H     H_    0.816945 0.710495 0.383081 0.210076
H23   H     H_    0.966373 0.674517 0.368008 0.187840
H24   H     H_    0.317717 0.362619 0.606216 0.307918
H25   H     H_    0.220901 0.341573 0.661654 0.213858
H26   H     H_    0.181786 0.279800 0.551704 0.235257
H27   H     H_    0.028045 0.317003 0.619702 0.197668
H28   H     H_    0.539996 0.464544 0.220052 0.184840
H29   H     H_    0.481186 0.590452 0.771165 0.177539
H30   H     H_    0.205598 0.579025 0.188139 0.218012
H31   H     H_    0.786926 0.417812 0.817598 0.216722
H32   H     H_    0.653508 0.633446 0.216073 0.273943
N1    N     N_R   0.799120 0.480200 0.517090 -0.126917
N2    N     N_R   0.200880 0.519800 0.482910 -0.127186
O1    O     O_R   0.580150 0.341050 0.504560 -0.569539
O2    O     O_R   0.419850 0.658950 0.495440 -0.570990
O3    O     O_R   0.388090 0.353760 0.493600 -0.627900
O4    O     O_R   0.611910 0.646240 0.506400 -0.630359
O5    O     O_R   0.650890 0.490020 0.640860 -0.579989
O6    O     O_R   0.349110 0.509980 0.359140 -0.579189
O7    O     O_R   0.458830 0.502730 0.629890 -0.634566
O8    O     O_R   0.541170 0.497270 0.370110 -0.632676
Zn1   Zn    Zn3+2 0.628240 0.491510 0.507320 0.983645
Zn2   Zn    Zn3+2 0.371760 0.508490 0.492680 0.987322

loop_
_geom_bond_atom_site_label_1
_geom_bond_atom_site_label_2
_ccdc_geom_bond_type
C15   N1    A    
C2    C7    A    
C25   H31   S    
C23   C36   S    
C11   N2    A    
C16   O7    A    
C42   H22   S    
C4    C46   A    
Br6   C3    S    
O7    Zn2   S    
C12   C46   S    
C33   C35   A    
C17   O8    A    
Br3   C22   S    
C29   C31   A    
C13   N1    A    
C9    C19   A    
O6    Zn2   S    
C1    O1    A    
C43   H24   S    
C24   C32   A    
C40   H15   S    
C37   H4    S    
C36   H2    S    
C34   C37   S    
C14   C18   A    
C39   H13   S    
C36   H32   S    
C17   C21   S    
C5    C47   A    
C37   H5    S    
C15   C42   S    
C20   C25   A    
C10   C18   A    
C7    C8    A    
Br2   C11   S    
C42   H21   S    
C30   C35   A    
C36   H3    S    
C6    C46   A    
O4    Zn1   S    
C23   C44   A    
C21   C28   A    
C26   H30   S    
Br1   C13   S    
C12   O2    A    
C42   H20   S    
C18   C19   A    
C41   H19   S    
C33   C34   A    
C32   C45   A    
C38   H8    S    
C43   H25   S    
O1    Zn1   S    
C45   H12   S    
C29   C33   A    
C40   H14   S    
C14   C43   S    
C20   C27   A    
C1    O3    A    
O8    Zn1   S    
C40   C48   S    
C27   H29   S    
C41   H17   S    
C37   H6    S    
C8    C48   A    
C6    C8    A    
C39   H11   S    
C16   O5    A    
C5    C39   S    
C3    C47   A    
C1    C47   S    
O5    Zn1   S    
C9    C11   A    
C15   C19   A    
C23   C35   A    
C21   C26   A    
C22   C25   A    
C43   H26   S    
C38   H7    S    
C34   C45   A    
C39   H10   S    
C44   H1    S    
C17   O6    A    
C12   O4    A    
C30   C32   A    
C2    C41   S    
Br5   C4    S    
C6    C38   S    
C24   C26   A    
C31   C44   A    
C5    C7    A    
C9    H23   S    
C22   C31   A    
C10   C13   A    
C14   N2    A    
C10   H27   S    
C27   C29   A    
C28   C30   A    
O3    Zn2   S    
Br4   C24   S    
C41   H18   S    
C40   H16   S    
C2    C4    A    
C38   H9    S    
C16   C20   S    
C3    C48   A    
C28   H28   S    
O2    Zn2   S    
N2    Zn2   S    
N1    Zn1   S    
