data_mof_unit_763.cif
_audit_creation_date              2012-12-10T18:43:40-0500
_audit_creation_method            fapswitch 2.2
_symmetry_space_group_name_H-M    P1
_symmetry_Int_Tables_number       1
_space_group_crystal_system       triclinic
_cell_length_a                    10.79548
_cell_length_b                    10.61637
_cell_length_c                    9.948293
_cell_angle_alpha                 87.889547
_cell_angle_beta                  104.077344
_cell_angle_gamma                 92.478161
_cell_volume                      1104.47943617

loop_
_atom_site_label
_atom_site_type_symbol
_atom_type_description
_atom_site_fract_x
_atom_site_fract_y
_atom_site_fract_z
_atom_type_partial_charge
C1    C     C_R   0.498834 0.260321 0.501423 0.899456
C2    C     C_2   0.880043 0.515896 0.593937 0.205632
C3    C     C_2   0.070187 0.554388 0.504962 -0.204517
C4    C     C_2   0.934481 0.551639 0.490449 -0.161057
C5    C     C_R   0.418502 0.065006 0.391140 -0.146455
C6    C     C_R   0.581552 0.935010 0.608768 -0.141627
C7    C     C_R   0.421004 0.936018 0.388288 -0.095454
C8    C     C_R   0.579036 0.063995 0.611642 -0.076458
C9    C     C_R   0.502880 0.872335 0.496799 -0.010722
C10   C     C_R   0.497141 0.127675 0.503140 -0.018921
C11   C     C_R   0.501126 0.739685 0.498560 0.868395
C12   C     C_R   0.258906 0.501529 0.441315 0.824547
C13   C     C_R   0.741483 0.502570 0.558783 0.821550
C14   C     C_R   0.559872 0.596985 0.079694 0.503160
C15   C     C_R   0.439557 0.403320 0.920007 0.468567
C16   C     C_R   0.558944 0.594901 0.937245 -0.200687
C17   C     C_R   0.441218 0.404954 0.062728 -0.210615
C18   C     C_2   0.121426 0.510892 0.406440 0.223801
H1    H     H_    0.877098 0.570062 0.386966 0.250249
H2    H     H_    0.315477 0.130314 0.987261 0.366895
H3    H     H_    0.843068 0.496879 0.903879 0.395295
H4    H     H_    0.147806 0.461385 0.094748 0.400342
H5    H     H_    0.130057 0.585790 0.603076 0.218095
H6    H     H_    0.603812 0.670666 0.888610 0.217687
H7    H     H_    0.396041 0.329375 0.111232 0.203302
H8    H     H_    0.355227 0.115834 0.307234 0.169915
H9    H     H_    0.644810 0.884181 0.692678 0.172941
H10   H     H_    0.357976 0.885968 0.303840 0.179401
H11   H     H_    0.641949 0.114044 0.696187 0.191572
H12   H     H_    0.753191 0.889961 0.110564 0.405679
N1    N     N_R   0.499970 0.499970 0.857200 -0.171600
N2    N     N_R   0.500030 0.500030 0.142800 -0.167764
O1    O     O_R   0.499990 0.316750 0.614620 -0.537533
O2    O     O_2   0.707521 0.716642 0.305940 -0.300927
O3    O     O_3   0.729099 0.806209 0.069348 -0.544969
O4    O     O_2   0.285977 0.290145 0.692804 -0.209847
O5    O     O_2   0.465534 0.173437 0.832622 -0.323159
O6    O     O_3   0.265657 0.196762 0.928081 -0.485834
O7    O     O_2   0.068198 0.388600 0.763185 -0.178882
O8    O     O_2   0.035944 0.602121 0.827823 -0.302695
O9    O     O_3   0.875274 0.422812 0.866970 -0.455696
O10   O     O_2   0.926165 0.367300 0.262158 -0.237546
O11   O     O_2   0.967090 0.573467 0.161008 -0.278107
O12   O     O_R   0.500010 0.683250 0.385380 -0.539238
O13   O     O_3   0.119893 0.392476 0.151753 -0.464817
O14   O     O_R   0.499990 0.316780 0.385290 -0.629053
O15   O     O_R   0.500010 0.683220 0.614710 -0.641014
O16   O     O_R   0.317810 0.500000 0.571850 -0.586528
O17   O     O_R   0.682190 0.500000 0.428150 -0.582061
O18   O     O_R   0.317810 0.500030 0.342520 -0.598401
O19   O     O_R   0.682190 0.499970 0.657480 -0.597249
O20   O     O_2   0.526287 0.827087 0.159304 -0.313494
S1    S     S_3+6 0.630692 0.737748 0.160581 0.059032
S2    S     S_3+6 0.364397 0.265014 0.836848 0.099303
S3    S     S_3+6 0.969310 0.482846 0.766222 0.074143
S4    S     S_3+6 0.029038 0.460913 0.242048 0.078585
Zn1   Zn    Zn3+2 0.500000 0.499980 0.653120 1.056276
Zn2   Zn    Zn3+2 0.500000 0.500020 0.346880 1.059109

loop_
_geom_bond_atom_site_label_1
_geom_bond_atom_site_label_2
_ccdc_geom_bond_type
O12   Zn2   S    
C2    C4    D    
C15   N1    A    
O19   Zn1   S    
N2    Zn2   S    
O3    S1    S    
H2    O6    S    
C3    H5    S    
C6    H9    S    
O6    S2    S    
C18   S4    S    
C12   O16   A    
O8    S3    D    
C17   H7    S    
C7    C9    A    
N1    Zn1   S    
C6    C9    A    
C1    O1    A    
C5    C10   A    
C16   H6    S    
O14   Zn2   S    
C16   N1    A    
C9    C11   S    
C13   O17   A    
H12   O3    S    
O2    S1    D    
H3    O9    S    
C8    H11   S    
C2    C13   S    
O1    Zn1   S    
C5    C7    A    
C2    S3    S    
C14   C16   A    
C1    O14   A    
O4    S2    D    
O5    S2    D    
C3    C4    S    
O18   Zn2   S    
C15   S2    S    
C11   O12   A    
O11   S4    D    
O16   Zn1   S    
C14   S1    S    
O20   S1    D    
C3    C18   D    
C8    C10   A    
H4    O13   S    
C1    C10   S    
C12   C18   S    
O15   Zn1   S    
C15   C17   A    
C17   N2    A    
O9    S3    S    
C6    C8    A    
C7    H10   S    
O10   S4    D    
C13   O19   A    
C4    H1    S    
C11   O15   A    
O7    S3    D    
O17   Zn2   S    
C5    H8    S    
O13   S4    S    
C14   N2    A    
C12   O18   A    
