data_mof_unit_2970.cif
_audit_creation_date              2012-12-10T17:37:16-0500
_audit_creation_method            fapswitch 2.2
_symmetry_space_group_name_H-M    P1
_symmetry_Int_Tables_number       1
_space_group_crystal_system       triclinic
_cell_length_a                    12.402705
_cell_length_b                    13.106253
_cell_length_c                    15.847996
_cell_angle_alpha                 76.807799
_cell_angle_beta                  101.267369
_cell_angle_gamma                 116.436523
_cell_volume                      2232.8395631

loop_
_atom_site_label
_atom_site_type_symbol
_atom_type_description
_atom_site_fract_x
_atom_site_fract_y
_atom_site_fract_z
_atom_type_partial_charge
C1    C     C_R   0.854541 0.284790 0.510685 0.764927
C2    C     C_3   0.000292 0.499953 0.917233 0.197744
C3    C     C_3   0.113655 0.559373 0.034220 -0.159202
C4    C     C_3   0.999922 0.499568 0.082618 0.195126
C5    C     C_3   0.042703 0.609092 0.957855 -0.158862
C6    C     C_3   0.928959 0.549269 0.007750 -0.160157
C7    C     C_1   0.000474 0.500281 0.825424 -0.082851
C8    C     C_1   0.999914 0.499705 0.174450 -0.081954
C9    C     C_R   0.281427 0.033923 0.384830 -0.227653
C10   C     C_R   0.226417 0.838839 0.464982 -0.095330
C11   C     C_R   0.799475 0.076730 0.586812 0.135130
C12   C     C_R   0.000064 0.500099 0.659937 0.829839
C13   C     C_R   0.709096 0.987691 0.634480 -0.201050
C14   C     C_R   0.586854 0.964848 0.612043 0.117960
C15   C     C_R   0.553222 0.023493 0.530647 0.068212
C16   C     C_R   0.645185 0.125844 0.490438 0.024812
C17   C     C_R   0.432770 0.987550 0.488299 0.080065
C18   C     C_R   0.401193 0.064996 0.422015 0.121080
C19   C     C_R   0.491171 0.168117 0.387312 -0.228524
C20   C     C_R   0.611614 0.193007 0.416131 -0.162019
C21   C     C_R   0.346926 0.872983 0.502279 -0.282394
C22   C     C_R   0.192491 0.921931 0.406022 0.159031
C23   C     C_R   0.144658 0.714439 0.483587 0.792743
C24   C     C_R   0.768913 0.159231 0.524667 -0.171557
C25   C     C_R   0.356976 0.339131 0.645449 -0.308264
C26   C     C_R   0.753964 0.637237 0.376695 0.055985
C27   C     C_R   0.654341 0.664046 0.346005 0.110640
C28   C     C_R   0.553964 0.612878 0.393588 -0.223080
C29   C     C_R   0.550578 0.532088 0.469941 -0.027093
C30   C     C_R   0.654018 0.506454 0.496776 0.213142
C31   C     C_R   0.448118 0.474342 0.519670 -0.041807
C32   C     C_R   0.453631 0.393085 0.595110 0.061302
C33   C     C_R   0.555299 0.366533 0.620161 0.094510
C34   C     C_R   0.000174 0.500235 0.339989 0.815735
C35   C     C_R   0.651388 0.422648 0.569501 -0.156864
C36   C     C_R   0.340122 0.493828 0.498371 -0.005940
C37   C     C_R   0.255858 0.362901 0.624061 0.361234
C38   C     C_3   0.957492 0.390394 0.041978 -0.159769
C39   C     C_3   0.886543 0.440115 0.965581 -0.159544
C40   C     C_1   0.000423 0.500414 0.749747 -0.193243
C41   C     C_1   0.000021 0.499961 0.250115 -0.190027
C42   C     C_3   0.071232 0.450220 0.992054 -0.161042
Cu1   Cu    Cu3+1 0.098270 0.475420 0.519690 0.920986
Cu2   Cu    Cu3+1 0.901730 0.524580 0.480310 0.915953
H1    H     H_    0.793392 0.391176 0.935908 0.130261
H2    H     H_    0.376303 0.807245 0.535418 0.170509
H3    H     H_    0.329745 0.554175 0.442215 0.130359
H4    H     H_    0.478848 0.635495 0.368471 0.130087
H5    H     H_    0.206895 0.608307 0.063728 0.127696
H6    H     H_    0.469104 0.225039 0.332677 0.141442
H7    H     H_    0.258256 0.095931 0.335910 0.132883
N1    N     N_R   0.246280 0.438200 0.549540 -0.195567
N2    N     N_R   0.754330 0.561180 0.450980 -0.217634
O1    O     O_R   0.972510 0.318130 0.524770 -0.602853
O2    O     O_R   0.806530 0.359650 0.491510 -0.591725
O3    O     O_R   0.082970 0.479240 0.637550 -0.572052
O4    O     O_R   0.916990 0.520750 0.604290 -0.593108
O5    O     O_R   0.193470 0.640350 0.508490 -0.584834
O6    O     O_R   0.027490 0.681870 0.475230 -0.575578
O7    O     O_R   0.083010 0.479250 0.395710 -0.574542
O8    O     O_R   0.917030 0.520760 0.362450 -0.590994
C43   C     C_3   0.924684 0.078630 0.606631 -0.413982
C44   C     C_3   0.922967 0.965377 0.594601 -0.856150
H8    H     H_    0.879735 0.894359 0.647507 0.249054
H9    H     H_    0.872227 0.941354 0.530995 0.266882
H10   H     H_    0.017203 0.975570 0.596463 0.243839
H11   H     H_    0.989489 0.147061 0.563212 0.236980
H12   H     H_    0.957574 0.090660 0.675418 0.189175
C45   C     C_3   0.501846 0.885921 0.681199 -0.390712
C46   C     C_3   0.430107 0.941568 0.706321 -0.833516
H13   H     H_    0.492977 0.016677 0.738364 0.253078
H14   H     H_    0.376680 0.969736 0.649137 0.262108
H15   H     H_    0.366508 0.878351 0.753484 0.234894
H16   H     H_    0.441245 0.799813 0.664273 0.193738
H17   H     H_    0.555091 0.865551 0.742434 0.190568
H18   H     H_    0.735216 0.935752 0.690971 0.141680
H19   H     H_    0.678065 0.265224 0.378582 0.167021
C47   C     C_3   0.163194 0.302552 0.689028 -0.380796
C48   C     C_3   0.206629 0.356528 0.772425 -0.832119
H20   H     H_    0.282921 0.337446 0.809851 0.229599
H21   H     H_    0.237876 0.451658 0.757328 0.272232
H22   H     H_    0.131436 0.319778 0.814100 0.235332
H23   H     H_    0.073047 0.297656 0.662700 0.243009
H24   H     H_    0.150142 0.211142 0.707808 0.156225
C49   C     C_3   0.560062 0.278137 0.701470 -0.400995
C50   C     C_3   0.673229 0.253917 0.723022 -0.876462
H25   H     H_    0.683152 0.217322 0.669830 0.261342
H26   H     H_    0.755052 0.333849 0.734602 0.254244
H27   H     H_    0.664887 0.189988 0.783744 0.239656
H28   H     H_    0.552224 0.308346 0.759143 0.201965
H29   H     H_    0.481046 0.194710 0.693632 0.207225
H30   H     H_    0.358676 0.277972 0.703831 0.136478
H31   H     H_    0.830649 0.675201 0.339539 0.135074
H32   H     H_    0.922509 0.300618 0.077848 0.126857
C51   C     C_3   0.654220 0.745074 0.261368 -0.427223
C52   C     C_3   0.642536 0.688925 0.183617 -0.842317
H33   H     H_    0.721161 0.668356 0.186949 0.244262
H34   H     H_    0.557701 0.608353 0.182450 0.255437
H35   H     H_    0.639701 0.749230 0.122225 0.238669
H36   H     H_    0.577776 0.770297 0.253114 0.205971
H37   H     H_    0.739134 0.825482 0.261560 0.194243
H38   H     H_    0.723892 0.398371 0.587655 0.227026
H39   H     H_    0.870544 0.589913 0.015537 0.126604
H40   H     H_    0.077692 0.698852 0.921951 0.126542
H41   H     H_    0.129601 0.409592 0.984132 0.126709
C53   C     C_3   0.067711 0.894068 0.357394 -0.393961
C54   C     C_3   0.986642 0.908183 0.410504 -0.820165
H42   H     H_    0.896252 0.890127 0.373574 0.223732
H43   H     H_    0.975371 0.848145 0.473364 0.275015
H44   H     H_    0.026827 0.998287 0.423695 0.251785
H45   H     H_    0.072936 0.953515 0.294247 0.184468
H46   H     H_    0.027666 0.806963 0.339155 0.197403

loop_
_geom_bond_atom_site_label_1
_geom_bond_atom_site_label_2
_ccdc_geom_bond_type
C23   O5    A    
C44   H9    S    
C3    C42   S    
C51   C52   S    
C27   C51   S    
C19   C20   A    
C9    H7    S    
C4    C8    S    
C11   C43   S    
C49   H29   S    
C53   H46   S    
C49   C50   S    
C10   C22   A    
C23   O6    A    
C26   C27   A    
C43   C44   S    
C20   H19   S    
Cu2   O2    S    
C28   C29   A    
C38   C42   S    
C31   C36   A    
C5    C6    S    
C33   C35   A    
C50   H26   S    
C9    C22   A    
C53   C54   S    
Cu2   O6    S    
C15   C16   A    
C52   H35   S    
C11   C24   A    
C36   H3    S    
C18   C19   A    
C33   C49   S    
Cu1   O5    S    
C25   C37   A    
C2    C39   S    
C2    C7    S    
C52   H34   S    
C7    C40   T    
C46   H13   S    
C36   N1    A    
C16   C20   A    
C39   H1    S    
C35   H38   S    
C25   C32   A    
C44   H10   S    
C16   C24   A    
C13   C14   A    
C34   O7    A    
C54   H43   S    
C34   C41   S    
Cu2   N2    S    
C53   H45   S    
C10   C21   A    
C3    H5    S    
C30   N2    A    
C8    C41   T    
C4    C6    S    
C48   H21   S    
C37   N1    A    
C51   H36   S    
C22   C53   S    
C34   O8    A    
C17   C21   A    
C44   H8    S    
C12   C40   S    
C1    O1    A    
C29   C30   A    
Cu1   O3    S    
Cu1   O1    S    
C31   C32   A    
C14   C15   A    
C13   H18   S    
Cu2   O4    S    
C54   H42   S    
C52   H33   S    
C38   H32   S    
C46   H15   S    
C17   C18   A    
C45   H16   S    
C6    H39   S    
C12   O3    A    
Cu1   O7    S    
C12   O4    A    
C43   H11   S    
C4    C38   S    
Cu1   Cu2   S    
Cu2   O8    S    
C14   C45   S    
C2    C5    S    
C3    C4    S    
C26   N2    A    
C50   H25   S    
C21   H2    S    
C15   C17   A    
C28   H4    S    
C25   H30   S    
C47   C48   S    
C3    C5    S    
C50   H27   S    
C47   H23   S    
C48   H22   S    
C49   H28   S    
C10   C23   S    
C30   C35   A    
C37   C47   S    
C43   H12   S    
C32   C33   A    
C1    O2    A    
C29   C31   A    
C11   C13   A    
C19   H6    S    
C38   C39   S    
C2    C42   S    
C54   H44   S    
C45   H17   S    
C45   C46   S    
Cu1   N1    S    
C42   H41   S    
C5    H40   S    
C26   H31   S    
C48   H20   S    
C47   H24   S    
C9    C18   A    
C1    C24   S    
C27   C28   A    
C6    C39   S    
C46   H14   S    
C51   H37   S    
