data_mof_unit_1631.cif
_audit_creation_date              2013-03-05T15:46:22-0500
_audit_creation_method            fapswitch 2.2
_symmetry_space_group_name_H-M    P1
_symmetry_Int_Tables_number       1
_space_group_crystal_system       triclinic
_cell_length_a                    11.299952
_cell_length_b                    11.179851
_cell_length_c                    18.81687
_cell_angle_alpha                 91.704638
_cell_angle_beta                  90.206654
_cell_angle_gamma                 60.382905
_cell_volume                      2065.50276424

loop_
_atom_site_label
_atom_site_type_symbol
_atom_site_description
_atom_site_fract_x
_atom_site_fract_y
_atom_site_fract_z
_atom_type_partial_charge
O1    O     O_R   0.748800 0.497470 0.428000 -0.503628
O2    O     O_R   0.476420 0.724060 0.429470 -0.533692
C1    C     C_R   0.353375 0.779763 0.400853 0.527075
O3    O     O_R   0.264580 0.744340 0.416750 -0.517074
O4    O     O_R   0.309380 0.472470 0.418200 -0.534999
C2    C     C_R   0.390293 0.345829 0.389787 0.496390
O5    O     O_R   0.501710 0.260430 0.414300 -0.508703
O6    O     O_R   0.728090 0.305600 0.428960 -0.442033
C3    C     C_R   0.775362 0.381290 0.402512 0.587036
O7    O     O_R   0.738760 0.495930 0.588610 -0.528126
O8    O     O_R   0.467110 0.722640 0.578360 -0.476226
C4    C     C_R   0.346898 0.762990 0.605055 0.566731
O9    O     O_R   0.254530 0.742800 0.577360 -0.535808
O10   O     O_R   0.300070 0.471040 0.567100 -0.492741
C5    C     C_R   0.374907 0.354913 0.597673 0.551723
O11   O     O_R   0.491670 0.258900 0.574910 -0.524709
O12   O     O_R   0.718780 0.304180 0.577850 -0.506327
C6    C     C_R   0.755421 0.382117 0.611923 0.540698
Cr1   Cr    Cr6+3 0.601770 0.606860 0.505860 1.011272
Cr2   Cr    Cr6+3 0.291380 0.601660 0.495070 0.994641
Cr3   Cr    Cr6+3 0.606880 0.291510 0.499120 1.061882
O13   O     O_3   0.500010 0.500010 0.500020 -0.294022
C7    C     C_R   0.877252 0.947327 0.087912 0.314910
C8    C     C_R   0.862755 0.027546 0.150057 0.351698
C9    C     C_R   0.734462 0.136955 0.171740 -0.137885
C10   C     C_R   0.619484 0.127145 0.155179 0.030549
H1    H     H_    0.593373 0.170667 0.297871 0.195883
C11   C     C_R   0.353141 0.289351 0.169600 -0.021923
C12   C     C_R   0.493924 0.218836 0.273960 -0.105055
C13   C     C_R   0.486744 0.212544 0.198969 0.028390
C14   C     C_R   0.115939 0.587822 0.329495 0.299369
C15   C     C_R   0.040987 0.680230 0.386082 -0.062683
C16   C     C_R   0.644558 0.015657 0.106812 -0.042526
C17   C     C_R   0.761508 0.943891 0.066495 -0.216239
C18   C     C_R   0.239358 0.343965 0.214062 -0.130419
C19   C     C_R   0.248467 0.350054 0.287261 0.015634
C20   C     C_R   0.994115 0.637902 0.443214 -0.129111
C21   C     C_R   0.022712 0.501923 0.446312 -0.032787
C22   C     C_R   0.095859 0.406771 0.390399 0.297533
C23   C     C_R   0.134984 0.452716 0.330067 0.130436
C24   C     C_R   0.375445 0.296129 0.317709 -0.004313
H2    H     H_    0.764507 0.870645 0.026664 0.090186
H3    H     H_    0.026118 0.783118 0.389853 0.151440
H4    H     H_    0.727998 0.205181 0.215274 0.115286
H5    H     H_    0.574959 0.980194 0.096487 0.258493
H6    H     H_    0.143706 0.386641 0.189974 0.208315
H7    H     H_    0.938007 0.710603 0.486130 0.091478
H8    H     H_    0.986448 0.471662 0.491698 0.134166
C25   C     C_R   0.916179 0.219752 0.303929 0.197969
C26   C     C_R   0.971943 0.201856 0.235746 -0.176874
H9    H     H_    0.041756 0.102081 0.214401 0.185055
C27   C     C_R   0.939933 0.314609 0.193953 -0.081925
C28   C     C_R   0.889323 0.445155 0.227571 0.245616
C29   C     C_R   0.843428 0.462898 0.297134 0.243106
C30   C     C_R   0.844048 0.352384 0.333188 0.006892
C31   C     C_R   0.397029 0.910781 0.307193 -0.134789
H10   H     H_    0.471115 0.918213 0.340630 0.152079
C32   C     C_R   0.396462 0.927462 0.233137 0.182704
C33   C     C_R   0.310192 0.903311 0.188222 -0.011071
C34   C     C_R   0.236601 0.848133 0.218143 0.252561
C35   C     C_R   0.216384 0.862687 0.291717 -0.043312
H11   H     H_    0.143312 0.840991 0.314209 0.224807
C36   C     C_R   0.316542 0.863123 0.335670 -0.058454
C37   C     C_R   0.458876 0.296351 0.717530 -0.165972
H12   H     H_    0.560126 0.263900 0.697081 0.162037
C38   C     C_R   0.443026 0.283062 0.789205 0.210432
C39   C     C_R   0.311109 0.334666 0.816976 -0.011716
C40   C     C_R   0.195378 0.408566 0.773143 0.218663
C41   C     C_R   0.214186 0.407677 0.699237 0.239167
C42   C     C_R   0.347060 0.348188 0.672054 -0.040800
C43   C     C_R   0.725961 0.472816 0.734879 -0.094403
H13   H     H_    0.664776 0.574881 0.714338 0.141371
C44   C     C_R   0.741934 0.457050 0.808344 0.178600
C45   C     C_R   0.821725 0.323865 0.834772 0.072644
C46   C     C_R   0.874223 0.208663 0.787473 -0.153767
H14   H     H_    0.937515 0.105742 0.806570 0.127626
C47   C     C_R   0.855069 0.225785 0.714306 -0.162294
H15   H     H_    0.897706 0.136168 0.678569 0.123270
C48   C     C_R   0.785622 0.358347 0.687602 0.011262
C49   C     C_R   0.289485 0.725818 0.723511 -0.184180
H16   H     H_    0.276202 0.642290 0.702180 0.126763
C50   C     C_R   0.273334 0.754743 0.795886 -0.161883
H17   H     H_    0.244781 0.696530 0.829988 0.113098
C51   C     C_R   0.296511 0.857734 0.823639 0.003501
C52   C     C_R   0.332517 0.934104 0.779054 -0.101628
H18   H     H_    0.346672 0.017358 0.800166 0.145151
C53   C     C_R   0.345366 0.907776 0.706437 0.241722
C54   C     C_R   0.325269 0.802210 0.679011 0.040028
O14   O     O_R   0.186690 0.923650 0.086970 -0.442374
O15   O     O_R   0.957250 0.194250 0.084630 -0.508011
C55   C     C_R   0.971249 0.293256 0.117554 0.538805
O16   O     O_R   0.934970 0.407490 0.085330 -0.512667
O17   O     O_R   0.203780 0.365190 0.067090 -0.524660
C56   C     C_R   0.326571 0.287237 0.094169 0.518902
O18   O     O_R   0.417600 0.174890 0.067840 -0.544610
O19   O     O_R   0.375320 0.946260 0.070860 -0.469987
C57   C     C_R   0.281803 0.944580 0.112847 0.540536
O20   O     O_R   0.160600 0.919630 0.926660 -0.538774
O21   O     O_R   0.933060 0.190520 0.936020 -0.514474
C58   C     C_R   0.882691 0.308143 0.905455 0.580559
O22   O     O_R   0.908880 0.403460 0.925020 -0.470644
O23   O     O_R   0.179600 0.361450 0.918490 -0.486219
C59   C     C_R   0.295595 0.289080 0.886607 0.584894
O24   O     O_R   0.391510 0.170860 0.907530 -0.494161
O25   O     O_R   0.351130 0.942530 0.922260 -0.502051
C60   C     C_R   0.273169 0.898225 0.897650 0.548959
Cr4   Cr    Cr6+3 0.062440 0.063090 0.008210 1.034364
Cr5   Cr    Cr6+3 0.062880 0.375170 0.998920 1.010942
Cr6   Cr    Cr6+3 0.374700 0.061720 0.992470 1.017918
O26   O     O_3   0.166667 0.166667 0.999870 -0.314901
O27   O     O_3   0.130767 0.268800 0.391768 -0.568805
C61   C     C_3   0.182108 0.212575 0.458546 -0.085943
H19   H     H_    0.097258 0.235746 0.496068 0.139319
H20   H     H_    0.250804 0.248299 0.481359 0.113939
H21   H     H_    0.243142 0.099018 0.451547 0.167056
N1    N     N_R   0.938029 0.104919 0.344706 0.081947
O28   O     O_R   0.023175 0.069363 0.396989 -0.352341
O29   O     O_R   0.841861 0.073339 0.347296 -0.389618
O30   O     O_3   0.930578 0.535839 0.204919 -0.589155
C62   C     C_3   0.836794 0.634398 0.160119 -0.048854
H22   H     H_    0.789414 0.733158 0.189215 0.185208
H23   H     H_    0.760738 0.607633 0.138587 0.196731
H24   H     H_    0.892484 0.645590 0.114678 0.146731
O31   O     O_3   0.840638 0.570905 0.335881 -0.560410
C63   C     C_3   0.722070 0.695230 0.325216 -0.059435
H25   H     H_    0.652929 0.689514 0.284616 0.144465
H26   H     H_    0.754421 0.769933 0.311494 0.172970
H27   H     H_    0.667908 0.733287 0.376710 0.165280
N2    N     N_R   0.516468 0.908842 0.202686 0.027615
O32   O     O_R   0.594086 0.939824 0.240255 -0.479641
O33   O     O_R   0.569832 0.812261 0.153778 -0.466706
O34   O     O_3   0.190767 0.771739 0.177791 -0.443691
C64   C     C_3   0.294020 0.665528 0.133200 -0.017491
H28   H     H_    0.288845 0.569933 0.138533 0.131574
H29   H     H_    0.399615 0.643183 0.144821 0.071343
H30   H     H_    0.274687 0.688112 0.076223 0.172627
O35   O     O_3   0.554701 0.227980 0.833709 -0.540864
C65   C     C_3   0.643996 0.088757 0.813674 -0.083651
H31   H     H_    0.702503 0.080080 0.764674 0.106201
H32   H     H_    0.589299 0.029322 0.806407 0.140950
H33   H     H_    0.718605 0.040524 0.856780 0.127291
O36   O     O_3   0.064254 0.466758 0.800342 -0.520902
C66   C     C_3   0.027738 0.598262 0.830405 -0.096087
H34   H     H_    0.096319 0.592624 0.874167 0.102420
H35   H     H_    0.923090 0.644781 0.852872 0.150365
H36   H     H_    0.028115 0.668771 0.790197 0.066165
O37   O     O_3   0.107915 0.440580 0.652463 -0.570703
C67   C     C_3   0.018242 0.583829 0.653137 -0.063960
H37   H     H_    0.969753 0.611185 0.600511 0.119643
H38   H     H_    0.069855 0.645740 0.662404 0.103678
H39   H     H_    0.934590 0.612441 0.692240 0.161112
N3    N     N_R   0.682526 0.574602 0.856892 -0.269000
O38   O     O_R   0.628949 0.699759 0.834792 -0.000002
O39   O     O_R   0.628948 0.699759 0.834792 -0.000002
O40   O     O_3   0.378476 0.984546 0.663003 -0.570988
C68   C     C_3   0.256418 0.092807 0.637002 -0.111639
H40   H     H_    0.189129 0.160663 0.681139 0.152416
H41   H     H_    0.200923 0.053498 0.603447 0.110660
H42   H     H_    0.282084 0.155951 0.602957 0.154788
O41   O     O_3   0.007670 0.846967 0.066230 -0.501840
C69   C     C_3   0.012904 0.785633 0.998711 -0.098559
H43   H     H_    0.952522 0.863590 0.958679 0.101990
H44   H     H_    0.980256 0.707208 0.002630 0.083268
H45   H     H_    0.120090 0.729830 0.979667 0.137684
O42   O     O_3   0.951238 0.964253 0.203802 -0.539635
C70   C     C_3   0.920277 0.867908 0.232405 -0.021838
H46   H     H_    0.969486 0.770251 0.200492 0.209713
H47   H     H_    0.810641 0.908249 0.239819 0.144520
H48   H     H_    0.957604 0.848217 0.285869 0.174290
O43   O     O_3   0.178072 0.626991 0.277673 -0.572388
C71   C     C_3   0.324057 0.562880 0.281444 -0.060568
H49   H     H_    0.367072 0.621232 0.259545 0.090902
H50   H     H_    0.376139 0.474202 0.245194 0.090990
H51   H     H_    0.368439 0.556075 0.333085 0.153279

loop_
_geom_bond_atom_site_label_1
_geom_bond_atom_site_label_2
_geom_bond_distance
_ccdc_geom_bond_type
C66   H36   1.110258 S    
C71   H49   1.078186 S    
O42   C70   1.407328 S    
C6    C48   1.464357 S    
H1    C12   1.080691 S    
C16   H5    1.056388 S    
C44   C45   1.411099 A    
O37   C67   1.409486 S    
C17   H2    1.081525 S    
C67   H39   1.108777 S    
C53   C54   1.392342 A    
C34   O34   1.403566 S    
C61   H20   1.113637 S    
C69   H43   1.113610 S    
C39   C59   1.461800 S    
O24   Cr6   2.103991 S    
O4    Cr2   1.951187 S    
C52   H18   1.083709 S    
N1    O28   1.300012 A    
C4    O9    1.278245 A    
C71   H50   1.086510 S    
O8    Cr1   1.953236 S    
C12   C13   1.414801 A    
C31   C36   1.377562 A    
C68   H40   1.113712 S    
C67   H38   1.113877 S    
O15   Cr4   1.948071 S    
C41   C42   1.398810 A    
O17   Cr5   2.002767 S    
O4    C2    1.343637 A    
O43   C71   1.439981 S    
C32   N2    1.389268 S    
C5    O11   1.285849 A    
C31   H10   1.079567 S    
C11   C56   1.451637 S    
C35   C36   1.401224 A    
O25   Cr6   1.958434 S    
C59   O24   1.299447 A    
C14   C23   1.416892 A    
C40   C41   1.406597 A    
O16   Cr5   2.080681 S    
O27   C61   1.411342 S    
C11   C18   1.388282 A    
Cr5   O26   2.027240 S    
O34   C64   1.433089 S    
C2    C24   1.490664 S    
C64   H30   1.104923 S    
C26   C27   1.394473 A    
C7    C8    1.411507 A    
O23   Cr5   1.963220 S    
C3    C30   1.463829 S    
C37   C42   1.400906 A    
C31   C32   1.410977 A    
C20   H7    1.081677 S    
C21   H8    1.080961 S    
C62   H24   1.109455 S    
O22   Cr5   2.127601 S    
C22   O27   1.391567 S    
C38   C39   1.402007 A    
C33   C34   1.385688 A    
Cr3   O13   2.026741 S    
C7    O41   1.392829 S    
C70   H47   1.096793 S    
C19   C24   1.382075 A    
C56   O18   1.253310 A    
C9    H4    1.079984 S    
C43   C48   1.402671 A    
C61   H19   1.110594 S    
C69   H44   1.110875 S    
C62   H23   1.112104 S    
O12   C6    1.289627 A    
C52   C53   1.382058 A    
C71   H51   1.079212 S    
O1    Cr1   2.074877 S    
C45   C46   1.408292 A    
C4    C54   1.431367 S    
O23   C59   1.288869 A    
O10   Cr2   1.988534 S    
C19   C23   1.451973 S    
Cr1   O13   2.027377 S    
O1    C3    1.259291 A    
C8    C9    1.409311 A    
C49   C50   1.381956 A    
O18   Cr6   2.083669 S    
C55   O16   1.301362 A    
C43   C44   1.398528 A    
O6    C3    1.312565 A    
C45   C58   1.470410 S    
C26   H9    1.064793 S    
C32   C33   1.406472 A    
C47   H15   1.083174 S    
C50   H17   1.083202 S    
O12   Cr3   1.991150 S    
O20   Cr4   2.065169 S    
C39   C40   1.427569 A    
O14   C57   1.298070 A    
C34   C35   1.395515 A    
C18   C19   1.383011 A    
C37   C38   1.383139 A    
C46   H14   1.083489 S    
C20   C21   1.392305 A    
C63   H27   1.103108 S    
C64   H28   1.106291 S    
C10   C16   1.430897 A    
C51   C60   1.435651 S    
C14   C15   1.412316 A    
O7    Cr1   2.135141 S    
O8    C4    1.298776 A    
C7    C17   1.385433 A    
O19   C57   1.329576 A    
O14   Cr4   2.134700 S    
C16   C17   1.374309 A    
C47   C48   1.398801 A    
O17   C56   1.330606 A    
C15   C20   1.393670 A    
C51   C52   1.409552 A    
C40   O36   1.383283 S    
C46   C47   1.396999 A    
O19   Cr6   1.986537 S    
C65   H32   1.114521 S    
Cr2   O13   2.052959 S    
C10   C13   1.544991 S    
C50   C51   1.388662 A    
C44   N3    1.439907 S    
C63   H25   1.113675 S    
C41   O37   1.388166 S    
Cr4   O26   2.027998 S    
C53   O40   1.380554 S    
C1    O3    1.286488 A    
C22   C23   1.418073 A    
C69   H45   1.107962 S    
C62   H22   1.089655 S    
C64   H29   1.113885 S    
N2    O32   1.292371 A    
O35   C65   1.413663 S    
C66   H35   1.109147 S    
C5    C42   1.447892 S    
C29   O31   1.378695 S    
C29   C30   1.424116 A    
O9    Cr2   2.066582 S    
C12   C24   1.427913 A    
O2    Cr1   2.013030 S    
O36   C66   1.415745 S    
C68   H42   1.106112 S    
N3    O39   1.301094 A    
C49   H16   1.082348 S    
C27   C55   1.465815 S    
C65   H33   1.109600 S    
O6    Cr3   1.970375 S    
O30   C62   1.393723 S    
C28   O30   1.386057 S    
O11   Cr3   2.091668 S    
C28   C29   1.381835 A    
C2    O5    1.242302 A    
C14   O43   1.403504 S    
C1    C36   1.492362 S    
O21   Cr4   2.013555 S    
O25   C60   1.284750 A    
O20   C60   1.292153 A    
O21   C58   1.298779 A    
C37   H12   1.083192 S    
C11   C13   1.436254 A    
O2    C1    1.330304 A    
C9    C10   1.390354 A    
C43   H13   1.083506 S    
C49   C54   1.407269 A    
C25   C30   1.387898 A    
Cr6   O26   2.046607 S    
O41   C69   1.412972 S    
O5    Cr3   2.107581 S    
O15   C55   1.328748 A    
C21   C22   1.411503 A    
C70   H46   1.106875 S    
O7    C6    1.281699 A    
C33   C57   1.488891 S    
C68   H41   1.112672 S    
C58   O22   1.283063 A    
C15   H3    1.077308 S    
N1    O29   1.299443 A    
C8    O42   1.363502 S    
C67   H37   1.105813 S    
C35   H11   1.061292 S    
C65   H31   1.110097 S    
O3    Cr2   2.113590 S    
C25   N1    1.428920 S    
N3    O38   1.301094 A    
C70   H48   1.075540 S    
C25   C26   1.396105 A    
O40   C68   1.409604 S    
C63   H26   1.101409 S    
O10   C5    1.298999 A    
C38   O35   1.388499 S    
C18   H6    1.049266 S    
C61   H21   1.109074 S    
C66   H34   1.110331 S    
C27   C28   1.407124 A    
O31   C63   1.393306 S    
N2    O33   1.295296 A    
