data_mof_unit_3347.cif
_audit_creation_date              2012-10-26T21:05:43-0400
_audit_creation_method            fapswitch 2.2
_symmetry_space_group_name_H-M    P1
_symmetry_Int_Tables_number       1
_space_group_crystal_system       triclinic
_cell_length_a                    12.963119
_cell_length_b                    9.087244
_cell_length_c                    7.78133
_cell_angle_alpha                 90.039492
_cell_angle_beta                  96.734693
_cell_angle_gamma                 89.966553
_cell_volume                      910.307825983

loop_
_atom_site_label
_atom_site_type_symbol
_atom_type_description
_atom_site_fract_x
_atom_site_fract_y
_atom_site_fract_z
_atom_type_partial_charge
C1    C     C_R   0.499959 0.220024 0.499956 0.553569
C2    C     C_R   0.866820 0.597917 0.683195 0.253663
C3    C     C_R   0.130670 0.582887 0.539501 0.064912
C4    C     C_R   0.868547 0.411931 0.457498 0.042154
C5    C     C_R   0.026723 0.548341 0.558010 -0.031247
C6    C     C_R   0.974179 0.441109 0.444222 -0.044620
C7    C     C_1   0.499907 0.065387 0.499922 -0.018196
C8    C     C_1   0.499922 0.934629 0.500019 -0.005722
C9    C     C_3   0.797271 0.601812 0.941826 -0.028931
C10   C     C_3   0.217270 0.160104 0.313788 -0.055449
C11   C     C_R   0.500008 0.779985 0.500035 0.572091
C12   C     C_R   0.300175 0.498113 0.467148 0.578810
C13   C     C_R   0.700180 0.501940 0.533539 0.589473
C14   C     C_R   0.813559 0.505180 0.557547 -0.009212
C15   C     C_R   0.187693 0.487488 0.446652 0.012261
C16   C     C_R   0.029864 0.368685 0.321639 0.131036
C17   C     C_R   0.974422 0.614666 0.688359 0.164410
C18   C     C_R   0.138065 0.380051 0.337856 0.256351
Cu1   Cu    Cu3+1 0.500010 0.500000 0.669080 1.083976
Cu2   Cu    Cu3+1 0.499990 0.500000 0.330920 1.092699
H1    H     H_    0.861287 0.622408 0.046373 0.160970
H2    H     H_    0.788877 0.481021 0.920268 0.145428
H3    H     H_    0.724715 0.641230 0.989355 0.160035
H4    H     H_    0.145024 0.096301 0.324149 0.176774
H5    H     H_    0.262083 0.173625 0.443934 0.106853
H6    H     H_    0.265962 0.095121 0.233356 0.169209
I1    I     I_    0.797084 0.202273 0.393978 -0.247816
I2    I     I_    0.193565 0.800811 0.579494 -0.303349
I3    I     I_    0.962481 0.271239 0.083716 -0.246128
I4    I     I_    0.053438 0.712246 0.918592 -0.204326
N1    N     N_1   0.499980 0.500000 0.076820 -0.070794
N2    N     N_1   0.500020 0.500000 0.923180 -0.075936
O1    O     O_R   0.500000 0.288400 0.642760 -0.496967
O2    O     O_3   0.194846 0.297135 0.232998 -0.523446
O3    O     O_R   0.500000 0.711600 0.357240 -0.502360
O4    O     O_R   0.500000 0.288400 0.357240 -0.487188
O5    O     O_R   0.500000 0.711600 0.642760 -0.483287
O6    O     O_R   0.349000 0.500000 0.619590 -0.490585
O7    O     O_R   0.651000 0.500000 0.380410 -0.503429
O8    O     O_R   0.348990 0.500000 0.334020 -0.455458
O9    O     O_R   0.651010 0.500000 0.665980 -0.497371
O10   O     O_3   0.812650 0.682445 0.791181 -0.532857

loop_
_geom_bond_atom_site_label_1
_geom_bond_atom_site_label_2
_ccdc_geom_bond_type
C12   O8    A    
C15   C18   A    
Cu1   O6    S    
N1    N2    T    
C12   C15   S    
C10   H6    S    
C13   O9    A    
C1    O1    A    
C7    C8    T    
C10   O2    S    
C13   C14   S    
C2    C17   A    
C4    C14   A    
C17   I4    S    
C18   O2    S    
C9    H1    S    
C9    O10   S    
C2    O10   S    
C8    C11   S    
Cu2   O8    S    
Cu1   N2    S    
C10   H5    S    
C4    C6    A    
C3    I2    S    
C12   O6    A    
C5    C6    A    
C2    C14   A    
C9    H2    S    
C13   O7    A    
C5    C17   A    
C6    C16   A    
Cu2   O4    S    
Cu1   O9    S    
C4    I1    S    
C3    C15   A    
C16   C18   A    
Cu1   O1    S    
C11   O5    A    
Cu2   O7    S    
C9    H3    S    
Cu1   O5    S    
C10   H4    S    
C16   I3    S    
C1    C7    S    
Cu2   O3    S    
C11   O3    A    
Cu1   Cu2   S    
C1    O4    A    
C3    C5    A    
Cu2   N1    S    
