data_mof_unit_1988.cif
_audit_creation_date              2012-12-10T17:56:44-0500
_audit_creation_method            fapswitch 2.2
_symmetry_space_group_name_H-M    P1
_symmetry_Int_Tables_number       1
_space_group_crystal_system       triclinic
_cell_length_a                    10.832045
_cell_length_b                    9.489813
_cell_length_c                    10.817137
_cell_angle_alpha                 89.999521
_cell_angle_beta                  90.287975
_cell_angle_gamma                 89.999987
_cell_volume                      1111.92361713

loop_
_atom_site_label
_atom_site_type_symbol
_atom_type_description
_atom_site_fract_x
_atom_site_fract_y
_atom_site_fract_z
_atom_type_partial_charge
C1    C     C_R   0.261975 0.499982 0.499975 0.784783
C2    C     C_R   0.738025 0.499982 0.500025 0.784789
C3    C     C_R   0.936150 0.628124 0.500045 -0.206229
C4    C     C_R   0.063850 0.628124 0.499956 -0.206226
C5    C     C_R   0.428013 0.074503 0.418339 -0.034040
C6    C     C_R   0.571987 0.074501 0.581661 -0.034042
C7    C     C_R   0.428034 0.925467 0.418322 0.025125
C8    C     C_R   0.571966 0.925466 0.581678 0.025123
C9    C     C_R   0.510528 0.500746 0.262225 0.824202
C10   C     C_R   0.489472 0.500745 0.737775 0.824189
C11   C     C_R   0.570501 0.762371 0.108966 0.525468
C12   C     C_R   0.429492 0.762369 0.891028 0.525466
C13   C     C_R   0.537240 0.889312 0.052489 -0.322557
C14   C     C_R   0.462753 0.889311 0.947501 -0.322545
C15   C     C_R   0.476276 0.632770 0.939302 -0.079073
C16   C     C_R   0.523718 0.632771 0.060696 -0.079074
C17   C     C_R   0.520317 0.503649 0.127404 -0.089801
C18   C     C_R   0.479683 0.503648 0.872596 -0.089808
C19   C     C_R   0.506645 0.376262 0.063494 -0.213485
C20   C     C_R   0.493359 0.376261 0.936508 -0.213486
C21   C     C_R   0.063844 0.371994 0.500021 -0.188813
C22   C     C_R   0.936156 0.371994 0.499979 -0.188811
C23   C     C_R   0.871817 0.500048 0.499984 -0.016807
C24   C     C_R   0.128183 0.500048 0.500017 -0.016808
Cu1   Cu    Cu3+1 0.500000 0.640660 0.500000 0.999527
Cu2   Cu    Cu3+1 0.500000 0.359340 0.500000 0.939153
H1    H     H_    0.507413 0.275987 0.111381 0.158522
H2    H     H_    0.492595 0.275986 0.888622 0.158521
H3    H     H_    0.568306 0.988464 0.091236 0.176410
H4    H     H_    0.431688 0.988462 0.908751 0.176412
H5    H     H_    0.111887 0.271876 0.500017 0.150584
H6    H     H_    0.888113 0.271876 0.499982 0.150584
H7    H     H_    0.888089 0.728231 0.500070 0.154063
H8    H     H_    0.111911 0.728231 0.499932 0.154065
H9    H     H_    0.370350 0.130843 0.353064 0.117081
H10   H     H_    0.629650 0.130840 0.646936 0.117080
H11   H     H_    0.370467 0.869091 0.352982 0.109649
H12   H     H_    0.629533 0.869088 0.647018 0.109649
N1    N     N_R   0.500000 0.852070 0.500000 -0.139641
N2    N     N_R   0.500000 0.147940 0.500000 -0.158204
O1    O     O_R   0.319640 0.618740 0.499990 -0.576750
O2    O     O_R   0.680360 0.618740 0.500010 -0.576752
O3    O     O_R   0.319620 0.381170 0.499990 -0.592138
O4    O     O_R   0.680380 0.381170 0.500010 -0.592137
O5    O     O_R   0.500000 0.618810 0.319650 -0.540583
O6    O     O_R   0.500000 0.618810 0.680350 -0.540586
O7    O     O_R   0.499970 0.381240 0.319640 -0.598927
O8    O     O_R   0.500030 0.381240 0.680360 -0.598925
O9    O     O_3   0.652269 0.768743 0.207612 -0.554799
C25   C     C_3   0.767239 0.713544 0.170765 -0.324334
H13   H     H_    0.802585 0.767565 0.086640 0.150312
H14   H     H_    0.761983 0.597919 0.155297 0.152958
H15   H     H_    0.835069 0.731751 0.246234 0.188761
O10   O     O_3   0.347722 0.768742 0.792382 -0.554804
C26   C     C_3   0.232761 0.713514 0.829220 -0.324295
H16   H     H_    0.197423 0.767476 0.913378 0.150294
H17   H     H_    0.238027 0.597878 0.844629 0.152959
H18   H     H_    0.164918 0.731766 0.753769 0.188751

loop_
_geom_bond_atom_site_label_1
_geom_bond_atom_site_label_2
_ccdc_geom_bond_type
Cu1   O2    S    
C10   O6    A    
C15   C18   A    
C25   H14   S    
C26   H16   S    
C9    O5    A    
C11   O9    S    
C8    N1    A    
C13   C14   A    
C19   H1    S    
C11   C16   A    
C3    C23   A    
C19   C20   A    
C12   C15   A    
Cu2   O8    S    
C6    C8    A    
C25   H13   S    
C7    H11   S    
Cu2   O4    S    
C21   C22   A    
Cu1   N1    S    
C21   H5    S    
Cu2   N2    S    
C22   H6    S    
Cu2   O7    S    
C2    O2    A    
C4    C24   A    
C5    H9    S    
C1    O1    A    
C17   C19   A    
C14   H4    S    
Cu2   O3    S    
C9    O7    A    
C18   C20   A    
C26   H17   S    
C10   O8    A    
C10   C18   S    
C4    H8    S    
C26   H18   S    
C25   H15   S    
C13   H3    S    
Cu1   O1    S    
C15   C16   A    
Cu1   O5    S    
C12   C14   A    
C11   C13   A    
C6    N2    A    
C2    O4    A    
C1    C24   S    
O9    C25   S    
C21   C24   A    
C9    C17   S    
C2    C23   S    
C5    C7    A    
C3    H7    S    
O10   C26   S    
C7    N1    A    
C20   H2    S    
Cu1   Cu2   S    
C5    N2    A    
Cu1   O6    S    
C1    O3    A    
C22   C23   A    
C12   O10   S    
C3    C4    A    
C6    H10   S    
C16   C17   A    
C8    H12   S    
