data_mof_unit_3599.cif
_audit_creation_date              2012-12-11T14:17:25-0500
_audit_creation_method            fapswitch 2.2
_symmetry_space_group_name_H-M    P1
_symmetry_Int_Tables_number       1
_space_group_crystal_system       triclinic
_cell_length_a                    6.94077
_cell_length_b                    13.698004
_cell_length_c                    20.403309
_cell_angle_alpha                 102.103913
_cell_angle_beta                  90.188304
_cell_angle_gamma                 90.587582
_cell_volume                      1896.58461813

loop_
_atom_site_label
_atom_site_type_symbol
_atom_type_description
_atom_site_fract_x
_atom_site_fract_y
_atom_site_fract_z
_atom_type_partial_charge
O1    O     O_R   0.506860 0.599390 0.449240 -0.532528
O2    O     O_R   0.180220 0.594600 0.586780 -0.547096
O3    O     O_R   0.004500 0.400610 0.550760 -0.549019
C1    C     C_R   0.349672 0.615183 0.613634 0.721429
O4    O     O_R   0.177490 0.611290 0.451970 -0.539160
O5    O     O_R   0.001750 0.417420 0.414990 -0.558905
C2    C     C_R   0.347255 0.637601 0.434897 0.720249
O6    O     O_R   0.509610 0.582580 0.585010 -0.532062
O7    O     O_3   0.337420 0.436370 0.488020 -0.383041
V1    V     V_3+5 0.064680 0.511800 0.502220 1.442999
O8    O     O_R   0.671710 0.405400 0.413220 -0.545388
C3    C     C_R   0.840068 0.378619 0.388875 0.633562
O9    O     O_R   0.674440 0.388710 0.548030 -0.549907
C4    C     C_R   0.843363 0.361757 0.564413 0.738033
V2    V     V_3+5 0.564010 0.488200 0.497780 1.452957
O10   O     O_3   0.841140 0.563630 0.511980 -0.361026
C5    C     C_R   0.896109 0.114479 0.613250 -0.116464
H1    H     H_    0.863357 0.162732 0.520446 0.126305
H2    H     H_    0.965639 0.993896 0.696532 0.168622
H3    H     H_    0.915322 0.037250 0.588189 0.137614
C6    C     C_R   0.853992 0.286318 0.605472 -0.112920
C7    C     C_R   0.797673 0.308568 0.927920 -0.036836
C8    C     C_R   0.752195 0.379810 0.891435 -0.065344
C9    C     C_R   0.770482 0.358415 0.822170 -0.177798
C10   C     C_R   0.843189 0.266074 0.787250 0.091585
C11   C     C_R   0.881472 0.191552 0.824654 0.022429
C12   C     C_R   0.867577 0.243271 0.716088 -0.013205
C13   C     C_R   0.898759 0.142367 0.683466 0.056039
C14   C     C_R   0.934766 0.070206 0.721092 -0.007740
C15   C     C_R   0.933165 0.095155 0.790663 -0.109708
C16   C     C_R   0.866279 0.316387 0.675708 0.338981
C17   C     C_R   0.867292 0.185632 0.574608 -0.257682
C18   C     C_R   0.858304 0.214071 0.895205 -0.117017
H4    H     H_    0.778263 0.325872 0.981679 0.199838
H5    H     H_    0.721424 0.414995 0.797303 0.181517
H6    H     H_    0.697206 0.451397 0.916656 0.173161
H7    H     H_    0.964162 0.036777 0.817501 0.134040
C19   C     C_2   0.978643 0.301991 0.279896 -0.069251
C20   C     C_2   0.848240 0.296761 0.327867 0.280393
H8    H     H_    0.073611 0.366619 0.284354 0.122950
C21   C     C_2   0.992568 0.222120 0.218570 -0.174285
C22   C     C_2   0.854862 0.204189 0.170327 0.338023
H9    H     H_    0.118935 0.175207 0.213836 0.132035
C23   C     C_2   0.226978 0.772229 0.788230 -0.212525
C24   C     C_2   0.356387 0.845530 0.812352 0.269965
H10   H     H_    0.126759 0.748729 0.822865 0.167733
C25   C     C_2   0.210530 0.718440 0.717155 -0.075439
C26   C     C_2   0.364601 0.678811 0.681633 -0.232504
H11   H     H_    0.066448 0.701701 0.696734 0.157505
H12   H     H_    0.506980 0.690266 0.704410 0.186671
C27   C     C_R   0.498741 0.872433 0.381921 -0.158784
H13   H     H_    0.494027 0.823325 0.474927 0.132659
H14   H     H_    0.583449 0.985279 0.295207 0.140342
H15   H     H_    0.571237 0.941799 0.404337 0.116602
C28   C     C_R   0.363920 0.714386 0.394848 -0.054568
C29   C     C_R   0.259564 0.689760 0.071871 0.281137
C30   C     C_R   0.187313 0.625745 0.112454 0.347952
C31   C     C_R   0.225143 0.647646 0.181330 -0.266490
C32   C     C_R   0.326513 0.734438 0.213067 0.023957
C33   C     C_R   0.384789 0.803313 0.173335 0.000740
C34   C     C_R   0.364367 0.756916 0.283748 0.121179
C35   C     C_R   0.456971 0.848792 0.313020 0.135735
C36   C     C_R   0.510801 0.915718 0.273260 -0.204682
C37   C     C_R   0.475396 0.893691 0.204741 -0.157696
C38   C     C_R   0.318458 0.690431 0.326391 -0.192800
C39   C     C_R   0.453919 0.805384 0.422362 -0.158768
C40   C     C_R   0.347750 0.781754 0.103201 -0.261097
H16   H     H_    0.257419 0.617206 0.307768 0.115163
H17   H     H_    0.167816 0.596129 0.209550 0.189127
H18   H     H_    0.521487 0.948448 0.176650 0.121559
O11   O     O_R   0.203230 0.917310 0.915020 -0.544284
O12   O     O_R   0.535500 0.888690 0.048040 -0.538748
O13   O     O_R   0.711080 0.082610 0.085000 -0.520572
C41   C     C_R   0.365689 0.861985 0.064999 0.825834
O14   O     O_R   0.532630 0.905370 0.913230 -0.526713
O15   O     O_R   0.708190 0.099410 0.949230 -0.552975
C42   C     C_R   0.363903 0.890311 0.884947 0.702409
O16   O     O_R   0.206120 0.900510 0.050790 -0.536266
O17   O     O_3   0.375360 0.063570 0.011990 -0.369337
V3    V     V_3+5 0.648170 0.988200 0.997780 1.599133
O18   O     O_R   0.038240 0.111390 0.951940 -0.539985
C43   C     C_R   0.869676 0.136963 0.934703 0.692113
O19   O     O_R   0.041120 0.094710 0.086750 -0.550974
C44   C     C_R   0.871791 0.120296 0.111523 0.624979
V4    V     V_3+5 0.148810 0.011930 0.002180 1.579198
O20   O     O_3   0.871750 0.936430 0.988010 -0.359000
O21   O     O_3   0.755215 0.205226 0.325338 -0.588526
C45   C     C_3   0.554037 0.213784 0.335370 0.135862
H19   H     H_    0.483834 0.157402 0.295117 0.164471
H20   H     H_    0.493855 0.286948 0.330326 0.160780
C46   C     C_3   0.500454 0.187980 0.402566 -0.368535
H21   H     H_    0.565006 0.115400 0.405852 0.189382
H22   H     H_    0.559628 0.245154 0.444594 0.211847
C47   C     C_3   0.282458 0.180720 0.410271 -0.784114
H23   H     H_    0.214540 0.252451 0.406951 0.238111
H24   H     H_    0.248411 0.163784 0.459883 0.229231
H25   H     H_    0.221331 0.120222 0.370472 0.230806
S1    S     S_3+6 0.650991 0.282633 0.170411 0.031941
O22   O     O_2   0.474733 0.229373 0.188021 -0.383745
O23   O     O_2   0.673004 0.381504 0.218537 -0.319752
O24   O     O_3   0.621116 0.303136 0.092670 -0.489886
H26   H     H_    0.503425 0.343998 0.095040 0.391354
S2    S     S_3+6 0.496493 0.906545 0.759622 -0.020259
O25   O     O_2   0.700638 0.870683 0.758344 -0.364619
O26   O     O_2   0.418666 0.887773 0.689232 -0.313602
O27   O     O_3   0.492958 0.030460 0.790043 -0.503316
H27   H     H_    0.560697 0.040704 0.833613 0.319053
S3    S     S_3+6 0.242205 0.657294 0.982433 0.024108
O28   O     O_2   0.058545 0.698575 0.960699 -0.306896
O29   O     O_2   0.408995 0.701278 0.951254 -0.372813
O30   O     O_3   0.242876 0.533150 0.953307 -0.442862
H28   H     H_    0.373053 0.511970 0.964193 0.343197
S4    S     S_3+6 0.032431 0.521968 0.081712 0.066617
O31   O     O_2   0.150901 0.432669 0.051699 -0.305370
O32   O     O_2   0.915134 0.496642 0.137806 -0.300611
O33   O     O_3   0.880638 0.547616 0.023415 -0.452380
H29   H     H_    0.798740 0.602120 0.047705 0.345491
O34   O     O_3   0.885866 0.417247 0.703444 -0.594878
C48   C     C_3   0.083171 0.445609 0.706979 0.040149
H30   H     H_    0.091394 0.521054 0.695813 0.151567
H31   H     H_    0.175566 0.396787 0.669202 0.115861
C49   C     C_3   0.164551 0.450860 0.777521 -0.292885
H32   H     H_    0.066731 0.494503 0.815439 0.258651
H33   H     H_    0.177344 0.374158 0.786736 0.202226
C50   C     C_3   0.363112 0.500155 0.786013 -0.735194
H34   H     H_    0.457958 0.466724 0.743678 0.215225
H35   H     H_    0.427785 0.490236 0.833878 0.254188
H36   H     H_    0.351607 0.581216 0.788494 0.246259

loop_
_geom_bond_atom_site_label_1
_geom_bond_atom_site_label_2
_ccdc_geom_bond_type
O21   C45   S    
O24   H26   S    
C21   C22   D    
O30   H28   S    
C2    C28   S    
C1    O6    A    
O18   C43   A    
C25   H11   S    
V4    O20   S    
O33   H29   S    
C6    C16   A    
C14   C15   A    
C4    C6    S    
C13   C14   A    
C22   S1    S    
O5    C3    A    
C19   C20   D    
O27   H27   S    
V2    O10   S    
C8    H6    S    
C5    H3    S    
S3    O28   D    
O34   C48   S    
C29   S3    S    
V3    O20   S    
C24   S2    S    
O11   V4    S    
O8    V2    S    
C25   C26   D    
C33   C40   A    
C50   H36   S    
C8    C9    A    
O1    V2    S    
C20   O21   S    
S2    O25   D    
O7    V1    S    
O13   C44   A    
C23   C25   S    
S4    O33   S    
C26   H12   S    
C32   C33   A    
O9    C4    A    
C21   H9    S    
C47   H23   S    
C27   C35   A    
C28   C38   A    
C23   H10   S    
C48   H31   S    
C7    H4    S    
C6    C17   A    
C32   C34   A    
C9    H5    S    
C12   C16   A    
C22   C44   S    
C9    C10   A    
C19   C21   S    
O12   C41   A    
O17   V4    S    
O15   C43   A    
C46   H21   S    
O4    C2    A    
C30   S4    S    
C47   H25   S    
C31   C32   A    
O17   V3    S    
C15   H7    S    
C27   C39   A    
O2    C1    A    
C16   O34   S    
C35   C36   A    
C46   H22   S    
C11   C18   A    
O19   C44   A    
C45   C46   S    
C48   H30   S    
C38   H16   S    
S2    O26   D    
C40   C41   S    
C47   H24   S    
O14   C42   A    
O3    C4    A    
O16   V4    S    
O19   V4    S    
C45   H20   S    
C11   C15   A    
O6    V2    S    
C37   H18   S    
O9    V2    S    
C50   H34   S    
H1    C17   S    
C29   C30   A    
C49   H33   S    
O2    V1    S    
O11   C42   A    
C28   C39   A    
H13   C39   S    
C23   C24   D    
S4    O31   D    
C1    C26   S    
C48   C49   S    
C7    C18   A    
O1    C2    A    
C5    C13   A    
O15   V3    S    
O5    V1    S    
O8    C3    A    
S3    O30   S    
C31   H17   S    
C10   C12   A    
C29   C40   A    
S1    O23   D    
S1    O24   S    
C33   C37   A    
C27   H15   S    
C49   C50   S    
C10   C11   A    
O4    V1    S    
O12   V3    S    
O3    V1    S    
V1    O10   S    
C46   C47   S    
C19   H8    S    
H14   C36   S    
C30   C31   A    
C3    C20   S    
O13   V3    S    
S3    O29   D    
S2    O27   S    
O7    V2    S    
C34   C35   A    
C18   C43   S    
C36   C37   A    
C34   C38   A    
O14   V3    S    
C45   H19   S    
S1    O22   D    
C41   O16   A    
C12   C13   A    
C50   H35   S    
C5    C17   A    
C7    C8    A    
C24   C42   S    
C49   H32   S    
O18   V4    S    
S4    O32   D    
H2    C14   S    
