data_mof_unit_1582.cif
_audit_creation_date              2013-03-05T16:12:14-0500
_audit_creation_method            fapswitch 2.2
_symmetry_space_group_name_H-M    P1
_symmetry_Int_Tables_number       1
_space_group_crystal_system       triclinic
_cell_length_a                    10.732569
_cell_length_b                    9.40657
_cell_length_c                    27.840513
_cell_angle_alpha                 90.11024
_cell_angle_beta                  90.293538
_cell_angle_gamma                 90.183069
_cell_volume                      2810.62872433

loop_
_atom_site_label
_atom_site_type_symbol
_atom_site_description
_atom_site_fract_x
_atom_site_fract_y
_atom_site_fract_z
_atom_type_partial_charge
O1    O     O_R   0.317570 0.620260 0.500030 -0.605315
O2    O     O_R   0.317570 0.379740 0.500030 -0.577332
C1    C     C_R   0.259574 0.500091 0.500205 0.797601
O3    O     O_R   0.499900 0.620250 0.430280 -0.568605
O4    O     O_R   0.499900 0.379750 0.430280 -0.567434
C2    C     C_R   0.501069 0.499922 0.407474 0.941735
Cu1   Cu    Cu3+1 0.499860 0.642410 0.500020 0.925868
Cu2   Cu    Cu3+1 0.499860 0.357590 0.500020 0.923866
O5    O     O_R   0.682190 0.620260 0.500010 -0.575665
O6    O     O_R   0.682190 0.379740 0.500010 -0.609607
O7    O     O_R   0.499860 0.620280 0.569750 -0.596930
O8    O     O_R   0.499860 0.379720 0.569750 -0.596559
C3    C     C_R   0.740092 0.500357 0.500328 0.807284
C4    C     C_R   0.500376 0.500141 0.592549 0.791665
C5    C     C_R   0.409806 0.550118 0.177119 0.539208
O9    O     O_2   0.308251 0.593154 0.201501 -0.536730
N1    N     N_R   0.513523 0.506202 0.201631 -0.458833
C6    C     C_R   0.618380 0.463531 0.177962 0.540083
C7    C     C_R   0.585156 0.598460 0.279423 -0.187475
C8    C     C_R   0.585730 0.596186 0.329668 -0.054570
C9    C     C_R   0.429330 0.404726 0.327056 -0.049925
C10   C     C_R   0.435966 0.406106 0.276915 -0.187314
C11   C     C_R   0.511690 0.503511 0.253151 0.354679
C12   C     C_R   0.515616 0.507995 0.101536 -0.048199
C13   C     C_R   0.408732 0.551234 0.126699 -0.023816
C14   C     C_R   0.303569 0.595397 0.101137 -0.142066
C15   C     C_R   0.621501 0.464063 0.127546 -0.024251
C16   C     C_R   0.505339 0.500119 0.354350 -0.106603
H1    H     H_    0.379055 0.333564 0.255812 0.140167
H2    H     H_    0.220886 0.631565 0.119623 0.188744
C17   C     C_R   0.502822 0.500651 0.645439 -0.040245
C18   C     C_R   0.406203 0.538603 0.973834 0.040208
C19   C     C_R   0.629111 0.478154 0.974599 -0.021470
C20   C     C_R   0.518354 0.507737 0.948832 0.076939
C21   C     C_R   0.295910 0.558557 0.946874 -0.183630
C22   C     C_R   0.296661 0.554659 0.897193 -0.080231
C23   C     C_R   0.407056 0.530170 0.872254 -0.023792
C24   C     C_R   0.519314 0.506476 0.897670 -0.087096
C25   C     C_R   0.631422 0.481577 0.871928 -0.147497
C26   C     C_R   0.624743 0.480734 0.820883 0.575030
N2    N     N_R   0.514015 0.503376 0.797677 -0.481154
C27   C     C_R   0.406597 0.527792 0.822087 0.548394
C28   C     C_R   0.497936 0.630115 0.720953 -0.092122
C29   C     C_R   0.494339 0.629464 0.670899 -0.218116
C30   C     C_R   0.515014 0.372628 0.671005 -0.218420
C31   C     C_R   0.519011 0.373660 0.721084 -0.089722
C32   C     C_R   0.510467 0.502347 0.746169 0.347249
O10   O     O_2   0.299229 0.548985 0.797662 -0.499331
C33   C     C_R   0.407256 0.547043 0.024811 0.043962
C34   C     C_R   0.516482 0.508341 0.050470 0.075164
C35   C     C_R   0.626439 0.469585 0.025632 0.066631
C36   C     C_R   0.302647 0.593689 0.051250 -0.200989
H3    H     H_    0.484870 0.729719 0.652223 0.143928
H4    H     H_    0.491351 0.729899 0.740221 0.140353
H5    H     H_    0.209357 0.571011 0.878311 0.235517
H6    H     H_    0.206060 0.574112 0.963056 0.166252
H7    H     H_    0.218896 0.632860 0.034509 0.145177
O11   O     O_2   0.718867 0.419599 0.203148 -0.536764
C37   C     C_R   0.727283 0.419608 0.102801 -0.144983
H8    H     H_    0.644579 0.672332 0.260276 0.140874
H9    H     H_    0.809017 0.382295 0.121922 0.189877
C38   C     C_R   0.740188 0.460249 0.948620 -0.273716
C39   C     C_R   0.743890 0.460510 0.898444 0.377647
O12   O     O_2   0.726694 0.458376 0.794070 -0.430582
C40   C     C_R   0.729761 0.421512 0.052924 -0.203713
H10   H     H_    0.827748 0.450041 0.967082 0.187938
H11   H     H_    0.522135 0.271843 0.652380 0.144884
H12   H     H_    0.528518 0.274548 0.740461 0.141078
H13   H     H_    0.813399 0.380439 0.036890 0.149681
C41   C     C_3   0.071576 0.655890 0.500590 -0.384852
C42   C     C_3   0.072115 0.424060 0.545786 -0.376710
H14   H     H_    0.106070 0.714428 0.468536 0.169350
H15   H     H_    0.105393 0.312116 0.546473 0.162873
H16   H     H_    0.105711 0.713548 0.533085 0.165660
H17   H     H_    0.108353 0.477442 0.578750 0.164353
C43   C     C_3   0.928923 0.656032 0.500143 -0.367988
C44   C     C_3   0.928187 0.425413 0.546061 -0.383826
H18   H     H_    0.894765 0.715387 0.532096 0.156000
H19   H     H_    0.894722 0.481007 0.578859 0.164468
H20   H     H_    0.895341 0.712985 0.467566 0.201678
H21   H     H_    0.892799 0.314137 0.547514 0.163540
H22   H     H_    0.103195 0.479964 0.422325 0.202495
H23   H     H_    0.105193 0.312915 0.453769 0.196317
H24   H     H_    0.890914 0.473819 0.422287 0.208512
H25   H     H_    0.893264 0.310354 0.455262 0.161883
C45   C     C_3   0.070408 0.424182 0.455143 -0.336520
C46   C     C_3   0.121528 0.500914 0.500455 0.128347
C47   C     C_3   0.877935 0.501196 0.500518 0.151328
C48   C     C_3   0.926847 0.422454 0.455499 -0.389662
C49   C     C_3   0.627508 0.084143 0.507759 -0.194825
C50   C     C_3   0.627457 0.916730 0.507900 -0.187029
H26   H     H_    0.668457 0.124208 0.542021 0.140528
H27   H     H_    0.667941 0.877726 0.542290 0.135297
H28   H     H_    0.689363 0.121734 0.478431 0.142588
H29   H     H_    0.689618 0.878760 0.478748 0.163821
H30   H     H_    0.456578 0.121481 0.575680 0.142918
H31   H     H_    0.455477 0.878467 0.575583 0.141190
C51   C     C_3   0.421886 0.083822 0.540199 -0.188160
C52   C     C_3   0.421523 0.916100 0.540085 -0.187071
C53   C     C_3   0.450563 0.083164 0.455344 -0.178280
C54   C     C_3   0.451171 0.915860 0.455240 -0.195279
N3    N     N_3   0.500250 0.143650 0.501060 -0.120951
N4    N     N_3   0.500250 0.856350 0.501060 -0.116354
H32   H     H_    0.354088 0.121929 0.449045 0.175076
H33   H     H_    0.355268 0.875050 0.448436 0.140245
H34   H     H_    0.507488 0.120698 0.424613 0.150874
H35   H     H_    0.509270 0.879412 0.424694 0.160387
H36   H     H_    0.324666 0.123100 0.536662 0.138321
H37   H     H_    0.324172 0.876758 0.536255 0.138209
C55   C     C_2   0.337673 0.304910 0.348260 0.327861
H38   H     H_    0.311419 0.209202 0.328785 0.075121
O13   O     O_2   0.285310 0.331237 0.385952 -0.592550
S1    S     S_3+6 0.893481 0.434072 0.872154 0.052588
O14   O     O_2   0.926456 0.560558 0.841794 -0.196645
O15   O     O_2   0.992923 0.416470 0.909906 -0.335140
O16   O     O_3   0.891393 0.287187 0.837597 -0.439737
H39   H     H_    0.861994 0.210346 0.859064 0.337155
C56   C     C_2   0.675771 0.693167 0.353878 0.329355
H40   H     H_    0.705399 0.789751 0.335893 0.072848
O17   O     O_2   0.723208 0.663542 0.392459 -0.586486

loop_
_geom_bond_atom_site_label_1
_geom_bond_atom_site_label_2
_geom_bond_distance
_ccdc_geom_bond_type
C54   H35   1.111420 S    
C52   N4    1.490088 S    
C10   H1    1.084431 S    
N2    C27   1.361185 A    
C21   C22   1.383611 A    
C12   C15   1.407942 A    
C4    C17   1.472569 S    
C8    C56   1.485172 S    
C9    C55   1.483221 S    
Cu1   Cu2   2.679178 S    
C30   C31   1.394696 A    
Cu1   O7    1.952846 S    
N1    C11   1.434864 S    
C22   C23   1.395888 A    
C43   H18   1.113674 S    
O4    C2    1.297642 A    
O7    C4    1.297235 A    
C5    C13   1.403778 A    
C5    O9    1.349801 S    
C52   H37   1.111848 S    
C53   H32   1.112029 S    
C51   H36   1.111975 S    
O16   H39   0.990633 S    
C5    N1    1.368093 A    
C35   C40   1.416822 A    
C23   C27   1.396803 A    
O5    C3    1.289505 A    
C55   H38   1.085734 S    
C49   N3    1.488695 S    
O1    Cu1   1.966844 S    
C56   H40   1.085711 S    
C29   H3    1.082584 S    
C6    O11   1.349722 S    
C2    C16   1.479943 S    
C7    C8    1.399025 A    
C44   C47   1.551009 S    
C19   C38   1.407958 A    
H30   C51   1.110832 S    
C41   H16   1.113691 S    
C49   H28   1.112480 S    
C43   C47   1.554320 S    
S1    O16   1.682135 S    
C54   N4    1.488574 S    
Cu1   N4    2.012585 S    
C9    C10   1.398231 A    
C54   H33   1.112595 S    
O3    Cu1   1.952358 S    
C41   C46   1.554862 S    
H31   C52   1.110536 S    
C19   C20   1.413932 A    
C55   O13   1.218309 D    
C44   H19   1.113107 S    
C12   C34   1.421792 A    
C37   H9    1.083517 S    
C17   C29   1.406041 A    
C38   H10   1.073475 S    
C1    C46   1.481675 S    
C18   C21   1.411621 A    
C12   C13   1.407927 A    
O3    C2    1.296857 A    
C25   C26   1.422562 A    
C42   H15   1.113184 S    
H25   C48   1.113290 S    
C45   C46   1.549303 S    
C8    C16   1.427142 A    
C34   C35   1.419113 A    
C13   C14   1.395998 A    
H22   C45   1.112596 S    
O6    C3    1.291880 A    
O1    C1    1.288711 A    
C18   C20   1.423952 A    
C7    C11   1.393364 A    
C28   C29   1.393887 A    
C31   H12   1.082866 S    
C23   C24   1.412642 A    
C14   C36   1.388954 A    
C50   H27   1.112733 S    
C28   H4    1.082880 S    
C49   H26   1.112777 S    
C44   H21   1.113233 S    
Cu2   O8    1.952050 S    
C33   C36   1.416050 A    
C38   C39   1.397687 A    
C53   N3    1.488742 S    
N1    C6    1.367948 A    
N2    C32   1.434313 S    
C27   O10   1.350544 S    
C42   C46   1.550643 S    
C26   N2    1.367237 A    
C9    C16   1.426330 A    
O8    C4    1.297385 A    
C14   H2    1.083520 S    
C41   C43   1.531024 S    
H24   C48   1.111937 S    
C42   C44   1.544864 S    
S1    O14   1.503172 D    
Cu1   O5    1.968593 S    
C31   C32   1.399853 A    
C21   H6    1.076758 S    
C20   C24   1.424490 A    
O2    Cu2   1.968168 S    
C6    C15   1.404208 A    
C43   H20   1.113197 S    
C50   N4    1.488202 S    
C45   C48   1.540892 S    
O4    Cu2   1.953156 S    
C41   H14   1.113807 S    
C30   H11   1.082809 S    
C7    H8    1.084345 S    
C19   C35   1.423654 A    
C25   C39   1.426265 A    
C53   H34   1.111322 S    
C26   O12   1.344611 S    
O2    C1    1.293682 A    
C22   H5    1.083583 S    
C51   N3    1.490007 S    
C37   C40   1.389141 A    
C42   H17   1.113098 S    
C49   C50   1.574793 S    
C24   C25   1.423447 A    
Cu2   N3    2.012723 S    
C40   H13   1.077023 S    
C3    C47   1.479388 S    
C53   C54   1.573783 S    
C51   C52   1.577678 S    
C56   O17   1.219436 D    
C18   C33   1.421280 A    
C36   H7    1.076764 S    
C50   H29   1.112352 S    
C39   S1    1.785797 S    
H23   C45   1.113001 S    
C47   C48   1.549443 S    
Cu2   O6    1.967270 S    
C33   C34   1.418532 A    
C17   C30   1.406178 A    
C10   C11   1.393114 A    
C15   C37   1.395835 A    
C28   C32   1.399535 A    
S1    O15   1.503818 D    
