data_mof_unit_1819.cif
_audit_creation_date              2012-12-11T15:41:17-0500
_audit_creation_method            fapswitch 2.2
_symmetry_space_group_name_H-M    P1
_symmetry_Int_Tables_number       1
_space_group_crystal_system       triclinic
_cell_length_a                    19.093307
_cell_length_b                    10.95878
_cell_length_c                    18.815467
_cell_angle_alpha                 90.010833
_cell_angle_beta                  90.098376
_cell_angle_gamma                 89.963245
_cell_volume                      3936.92941896

loop_
_atom_site_label
_atom_site_type_symbol
_atom_type_description
_atom_site_fract_x
_atom_site_fract_y
_atom_site_fract_z
_atom_type_partial_charge
C1    C     C_R   0.724342 0.962272 0.856214 0.544328
C2    C     C_R   0.303876 0.469760 0.038347 0.017433
C3    C     C_R   0.763000 0.853920 0.356622 0.546906
C4    C     C_2   0.498193 0.169481 0.921326 -0.122598
C5    C     C_2   0.501824 0.169353 0.078682 -0.123564
C6    C     C_2   0.998196 0.669482 0.921327 -0.122766
C7    C     C_2   0.001826 0.669353 0.078683 -0.123456
C8    C     C_2   0.494209 0.068684 0.038677 -0.165190
C9    C     C_2   0.505714 0.068713 0.961261 -0.164799
C10   C     C_2   0.994211 0.568684 0.038678 -0.165092
C11   C     C_2   0.005717 0.568713 0.961262 -0.164870
C12   C     C_R   0.765079 0.443416 0.068124 0.021903
C13   C     C_R   0.196062 0.969786 0.961682 0.017864
C14   C     C_R   0.234892 0.443510 0.931887 0.021557
C15   C     C_R   0.265083 0.943429 0.068119 0.021839
C16   C     C_R   0.734889 0.943522 0.931890 0.021761
C17   C     C_R   0.803871 0.969777 0.038352 0.017486
C18   C     C_R   0.816985 0.408966 0.952146 -0.151335
C19   C     C_R   0.182991 0.408952 0.047841 -0.151814
C20   C     C_R   0.316989 0.908972 0.952142 -0.151181
C21   C     C_R   0.682988 0.908959 0.047844 -0.151882
C22   C     C_R   0.823266 0.414424 0.025597 -0.149654
C23   C     C_R   0.176715 0.414500 0.974391 -0.149453
C24   C     C_R   0.323270 0.914432 0.025594 -0.149758
C25   C     C_R   0.275645 0.962216 0.143791 0.543856
C26   C     C_R   0.676713 0.914509 0.974394 -0.149400
C27   C     C_3   0.630484 0.442756 0.048701 -0.286775
C28   C     C_3   0.369484 0.442858 0.951329 -0.286211
C29   C     C_3   0.130488 0.942797 0.048693 -0.286760
C30   C     C_3   0.869483 0.942890 0.951335 -0.286330
C31   C     C_3   0.622126 0.426734 0.969073 -0.260748
C32   C     C_3   0.377842 0.426760 0.030951 -0.260904
C33   C     C_3   0.122130 0.926777 0.969064 -0.260757
C34   C     C_3   0.877840 0.926791 0.030957 -0.260831
C35   C     C_R   0.751097 0.424435 0.920081 0.015988
C36   C     C_R   0.224344 0.462267 0.856212 0.545183
C37   C     C_R   0.248862 0.424388 0.079924 0.015405
C38   C     C_R   0.251102 0.924446 0.920077 0.016127
C39   C     C_R   0.748859 0.924397 0.079927 0.015457
C40   C     C_R   0.479614 0.168538 0.432866 -0.033488
C41   C     C_R   0.489458 0.171629 0.580348 -0.025637
C42   C     C_R   0.984427 0.669082 0.431322 -0.025564
C43   C     C_R   0.991682 0.671358 0.579120 -0.020128
C44   C     C_R   0.476278 0.277685 0.470162 -0.036282
C45   C     C_R   0.480186 0.280391 0.542267 -0.040472
C46   C     C_R   0.979354 0.777798 0.468883 -0.038401
C47   C     C_R   0.775643 0.462210 0.143793 0.544013
C48   C     C_R   0.982358 0.780079 0.541077 -0.044931
C49   C     C_R   0.476789 0.060242 0.545625 0.345120
C50   C     C_R   0.473434 0.058231 0.471296 0.348607
C51   C     C_R   0.982528 0.559849 0.543627 0.338139
C52   C     C_R   0.981415 0.558364 0.469315 0.341614
C53   C     C_R   0.529731 0.177639 0.850711 0.545307
C54   C     C_R   0.470276 0.177587 0.149293 0.542494
C55   C     C_R   0.029732 0.677640 0.850712 0.544740
C56   C     C_R   0.970276 0.677587 0.149293 0.542524
C57   C     C_3   0.516553 0.392637 0.459925 -0.263630
C58   C     C_R   0.703748 0.482529 0.034574 0.030535
C59   C     C_3   0.521383 0.397672 0.539889 -0.249974
C60   C     C_3   0.019466 0.893142 0.459505 -0.267293
C61   C     C_3   0.023534 0.897317 0.539484 -0.252931
C62   C     C_R   0.747919 0.413490 0.421498 0.017870
C63   C     C_R   0.249885 0.398834 0.581008 0.013093
C64   C     C_R   0.260454 0.935557 0.428696 -0.004373
C65   C     C_R   0.747937 0.899581 0.580444 0.018173
C66   C     C_R   0.777187 0.311001 0.453866 -0.000816
C67   C     C_R   0.201024 0.329474 0.542706 -0.005031
C68   C     C_R   0.313143 0.876304 0.466184 0.105649
C69   C     C_R   0.296186 0.482594 0.965467 0.030111
C70   C     C_R   0.696417 0.838745 0.540833 -0.009616
C71   C     C_R   0.776611 0.300750 0.526634 0.024623
C72   C     C_R   0.206201 0.317671 0.470346 0.001608
C73   C     C_R   0.310903 0.866460 0.538653 0.095806
C74   C     C_R   0.702031 0.827546 0.468673 -0.006292
C75   C     C_R   0.704534 0.479117 0.537572 -0.172861
C76   C     C_R   0.316050 0.424018 0.471895 -0.154748
C77   C     C_R   0.206781 0.990763 0.541777 -0.176267
C78   C     C_R   0.816893 0.915770 0.472793 -0.152528
C79   C     C_R   0.705920 0.491827 0.463459 -0.161741
C80   C     C_R   0.203756 0.982553 0.034568 0.030500
C81   C     C_R   0.311659 0.434435 0.546226 -0.161377
C82   C     C_R   0.209421 0.000569 0.467409 -0.172358
C83   C     C_R   0.811880 0.925296 0.547175 -0.156498
C84   C     C_3   0.847995 0.253390 0.448605 -0.258557
C85   C     C_3   0.122931 0.340841 0.537929 -0.197257
C86   C     C_3   0.340739 0.750453 0.455764 -0.266168
C87   C     C_3   0.618991 0.859442 0.535395 -0.193530
C88   C     C_3   0.848545 0.248507 0.529029 -0.243860
C89   C     C_3   0.129314 0.326381 0.458490 -0.229895
C90   C     C_3   0.338181 0.738368 0.535608 -0.253447
C91   C     C_R   0.796182 0.982612 0.965472 0.030174
C92   C     C_3   0.625765 0.845119 0.455842 -0.233170
C93   C     C_R   0.744884 0.387898 0.570122 0.030148
C94   C     C_R   0.259598 0.374652 0.432948 0.012153
C95   C     C_R   0.254758 0.914743 0.577273 0.008151
C96   C     C_R   0.758627 0.876745 0.432470 0.016579
C97   C     C_R   0.738223 0.364786 0.852344 0.548379
C98   C     C_R   0.261768 0.364742 0.147656 0.547861
C99   C     C_R   0.238224 0.864789 0.852342 0.548605
C100  C     C_R   0.761767 0.864745 0.147657 0.547948
C101  C     C_R   0.728079 0.953033 0.648338 0.538188
C102  C     C_R   0.696055 0.469762 0.961689 0.017831
C103  C     C_R   0.273424 0.959134 0.354052 0.544765
C104  C     C_R   0.228277 0.453090 0.648312 0.534176
C105  C     C_R   0.771726 0.455457 0.352355 0.549966
C106  C     C_R   0.527882 0.176697 0.646296 0.569281
C107  C     C_R   0.466531 0.176090 0.357610 0.568049
C108  C     C_R   0.028284 0.676712 0.646006 0.570516
C109  C     C_R   0.968100 0.676094 0.356737 0.570387
C110  C     C_R   0.738739 0.359457 0.645163 0.549427
C111  C     C_R   0.263246 0.353135 0.356876 0.546141
C112  C     C_R   0.239864 0.862894 0.646718 0.545242
Cr1   Cr    Cr6+3 0.769260 0.163750 0.750730 1.025316
Cr2   Cr    Cr6+3 0.385810 0.322400 0.252290 1.010758
Cr3   Cr    Cr6+3 0.114190 0.822400 0.747710 1.008523
Cr4   Cr    Cr6+3 0.885810 0.822400 0.252290 1.010771
Cr5   Cr    Cr6+3 0.230740 0.163750 0.249270 1.018176
Cr6   Cr    Cr6+3 0.269260 0.663750 0.750730 1.023308
Cr7   Cr    Cr6+3 0.730740 0.663750 0.249270 1.016567
Cr8   Cr    Cr6+3 0.612640 0.009910 0.748780 1.049982
Cr9   Cr    Cr6+3 0.387360 0.009910 0.251220 1.055394
Cr10  Cr    Cr6+3 0.112640 0.509910 0.748780 1.050334
Cr11  Cr    Cr6+3 0.887360 0.509910 0.251220 1.050741
Cr12  Cr    Cr6+3 0.614190 0.322400 0.747710 1.009992
F1    F     F_    0.474900 0.953684 0.582366 -0.630740
F2    F     F_    0.467967 0.949255 0.437582 -0.630695
F3    F     F_    0.982157 0.453109 0.580083 -0.649237
F4    F     F_    0.981914 0.449884 0.434983 -0.653447
H1    H     H_    0.478642 0.983330 0.063007 0.139193
H2    H     H_    0.492089 0.475620 0.563278 0.136893
H3    H     H_    0.071053 0.878263 0.433531 0.137262
H4    H     H_    0.994150 0.975101 0.562942 0.139358
H5    H     H_    0.674197 0.542538 0.569218 0.125060
H6    H     H_    0.361614 0.459427 0.444924 0.137105
H7    H     H_    0.164807 0.035165 0.570486 0.127417
H8    H     H_    0.864978 0.942163 0.446945 0.137684
H9    H     H_    0.679323 0.569299 0.440105 0.143598
H10   H     H_    0.352965 0.480895 0.574923 0.125748
H11   H     H_    0.170962 0.056083 0.440308 0.137751
H12   H     H_    0.521201 0.983310 0.936872 0.139888
H13   H     H_    0.855577 0.960234 0.577615 0.121556
H14   H     H_    0.888795 0.313701 0.426873 0.253064
H15   H     H_    0.105162 0.433503 0.553009 0.210794
H16   H     H_    0.394886 0.749444 0.434284 0.209140
H17   H     H_    0.604451 0.953686 0.551033 0.191475
H18   H     H_    0.845527 0.161964 0.423296 0.124988
H19   H     H_    0.095289 0.263733 0.564073 0.165930
H20   H     H_    0.303009 0.689910 0.427692 0.112826
H21   H     H_    0.588258 0.785199 0.560786 0.176322
H22   H     H_    0.849530 0.155583 0.550910 0.138951
H23   H     H_    0.978643 0.483330 0.063008 0.139367
H24   H     H_    0.106179 0.240062 0.438377 0.151834
H25   H     H_    0.298086 0.672176 0.553499 0.144125
H26   H     H_    0.600146 0.761197 0.435214 0.156649
H27   H     H_    0.886744 0.311864 0.553603 0.236669
H28   H     H_    0.114572 0.409688 0.428241 0.185885
H29   H     H_    0.390732 0.728968 0.560565 0.189181
H30   H     H_    0.614060 0.930159 0.425810 0.167328
H31   H     H_    0.521079 0.253218 0.055341 0.101665
H32   H     H_    0.479017 0.253412 0.944723 0.101445
H33   H     H_    0.021083 0.753218 0.055343 0.101651
H34   H     H_    0.021203 0.483311 0.936873 0.139816
H35   H     H_    0.979019 0.753413 0.944724 0.101502
H36   H     H_    0.861921 0.378848 0.921709 0.140277
H37   H     H_    0.138071 0.378814 0.078255 0.139044
H38   H     H_    0.361924 0.878848 0.921705 0.140559
H39   H     H_    0.638068 0.878816 0.078258 0.138855
H40   H     H_    0.873260 0.391670 0.049011 0.133384
H41   H     H_    0.126737 0.391789 0.950960 0.133589
H42   H     H_    0.373262 0.891673 0.049009 0.133292
H43   H     H_    0.626734 0.891795 0.950963 0.133629
H44   H     H_    0.097893 0.017918 0.070640 0.141914
H45   H     H_    0.987417 0.968030 0.436520 0.147203
H46   H     H_    0.902019 0.018043 0.929436 0.142319
H47   H     H_    0.597882 0.517868 0.070648 0.141821
H48   H     H_    0.402025 0.518005 0.929429 0.142419
H49   H     H_    0.628362 0.355757 0.078988 0.132938
H50   H     H_    0.371681 0.355893 0.920991 0.134101
H51   H     H_    0.128360 0.855799 0.078980 0.132926
H52   H     H_    0.871685 0.855925 0.920997 0.133848
H53   H     H_    0.615587 0.329721 0.953278 0.156611
H54   H     H_    0.384455 0.329734 0.046694 0.157231
H55   H     H_    0.115585 0.829767 0.953267 0.156688
H56   H     H_    0.078037 0.886381 0.558683 0.170598
H57   H     H_    0.884459 0.829767 0.046700 0.157234
H58   H     H_    0.583890 0.491353 0.945145 0.141533
H59   H     H_    0.416019 0.491366 0.054923 0.140958
H60   H     H_    0.083903 0.991409 0.945133 0.141548
H61   H     H_    0.916012 0.991405 0.054930 0.141038
H62   H     H_    0.484494 0.467494 0.436964 0.144651
H63   H     H_    0.576099 0.387702 0.558673 0.174322
H64   H     H_    0.567855 0.377021 0.433530 0.142424
O1    O     O_R   0.784290 0.290360 0.830540 -0.518976
O2    O     O_R   0.456020 0.282110 0.333230 -0.529107
O3    O     O_R   0.043980 0.782110 0.666770 -0.535716
O4    O     O_R   0.956020 0.782110 0.333230 -0.530266
O5    O     O_R   0.679070 0.374030 0.674430 -0.513642
O6    O     O_R   0.320930 0.374030 0.325570 -0.509107
O7    O     O_R   0.179070 0.874030 0.674430 -0.513361
O8    O     O_R   0.820930 0.874030 0.325570 -0.509577
O9    O     O_3   0.665360 0.165350 0.749070 -0.260471
O10   O     O_3   0.334640 0.165350 0.250930 -0.261850
O11   O     O_3   0.165360 0.665350 0.749070 -0.260007
O12   O     O_R   0.215710 0.290360 0.169460 -0.520279
O13   O     O_3   0.834640 0.665350 0.250930 -0.259781
O14   O     O_R   0.762610 0.041070 0.825230 -0.496871
O15   O     O_R   0.237390 0.041070 0.174770 -0.496537
O16   O     O_R   0.262610 0.541070 0.825230 -0.495849
O17   O     O_R   0.737390 0.541070 0.174770 -0.496793
O18   O     O_R   0.667390 0.924160 0.829970 -0.527543
O19   O     O_R   0.332610 0.924160 0.170030 -0.530325
O20   O     O_R   0.167390 0.424160 0.829970 -0.527116
O21   O     O_R   0.832610 0.424160 0.170030 -0.529549
O22   O     O_R   0.553980 0.081420 0.821780 -0.495964
O23   O     O_R   0.284290 0.790360 0.830540 -0.518246
O24   O     O_R   0.446020 0.081420 0.178220 -0.501018
O25   O     O_R   0.053980 0.581420 0.821780 -0.496574
O26   O     O_R   0.946020 0.581420 0.178220 -0.500227
O27   O     O_R   0.543210 0.283170 0.826740 -0.524658
O28   O     O_R   0.456790 0.283170 0.173260 -0.525063
O29   O     O_R   0.043210 0.783170 0.826740 -0.524663
O30   O     O_R   0.956790 0.783170 0.173260 -0.525277
O31   O     O_R   0.678350 0.375000 0.822720 -0.499933
O32   O     O_R   0.321650 0.375000 0.177280 -0.499784
O33   O     O_R   0.178350 0.875000 0.822720 -0.499974
O34   O     O_R   0.715710 0.790360 0.169460 -0.520609
O35   O     O_R   0.821650 0.875000 0.177280 -0.499561
O36   O     O_R   0.785060 0.289300 0.670580 -0.505535
O37   O     O_R   0.214940 0.289300 0.329420 -0.516078
O38   O     O_R   0.285060 0.789300 0.670580 -0.507131
O39   O     O_R   0.714940 0.789300 0.329420 -0.517564
O40   O     O_R   0.763330 0.040090 0.676940 -0.506561
O41   O     O_R   0.236670 0.040090 0.323060 -0.512418
O42   O     O_R   0.263330 0.540090 0.676940 -0.512134
O43   O     O_R   0.736670 0.540090 0.323060 -0.513379
O44   O     O_R   0.668160 0.923110 0.670000 -0.513368
O45   O     O_R   0.554690 0.080440 0.673480 -0.451553
O46   O     O_R   0.331840 0.923110 0.330000 -0.482685
O47   O     O_R   0.168160 0.423110 0.670000 -0.511360
O48   O     O_R   0.831840 0.423110 0.330000 -0.500545
O49   O     O_R   0.445310 0.080440 0.326520 -0.438456
O50   O     O_R   0.054690 0.580440 0.673480 -0.447610
O51   O     O_R   0.945310 0.580440 0.326520 -0.439074
O52   O     O_R   0.543980 0.282110 0.666770 -0.534425

loop_
_geom_bond_atom_site_label_1
_geom_bond_atom_site_label_2
_ccdc_geom_bond_type
C53   O27   A    
C7    C10   D    
C21   C26   A    
C59   H2    S    
C53   O22   A    
C60   H45   S    
Cr10  O25   S    
C29   C33   S    
C4    C53   S    
C64   C103  S    
C68   C86   S    
C59   H63   S    
Cr6   O11   S    
C17   C91   A    
C65   C101  S    
C6    C55   S    
C35   C102  A    
C85   H15   S    
C56   O26   A    
C52   F4    S    
C86   H16   S    
Cr10  O50   S    
C62   C105  S    
C54   O24   A    
C7    H33   S    
C99   O23   A    
C63   C81   A    
C64   C68   A    
C32   H54   S    
C42   C109  S    
C73   C90   S    
Cr3   O33   S    
C35   C97   S    
C95   C112  S    
C111  O6    A    
C14   C36   S    
Cr4   O8    S    
C9    H12   S    
C38   C99   S    
C57   C59   S    
C109  O51   A    
C74   C92   S    
C65   C70   A    
C12   C22   A    
C94   C111  S    
C112  O38   A    
Cr11  O13   S    
C109  O4    A    
C2    C32   S    
C67   C72   A    
C17   C39   A    
C97   O1    A    
C25   O19   A    
Cr6   O42   S    
C92   H30   S    
C19   C37   A    
C61   H4    S    
C76   C94   A    
C104  O47   A    
C18   H36   S    
C78   C83   A    
C89   H24   S    
C20   C24   A    
C78   C96   A    
C8    C9    S    
C5    H31   S    
C106  O45   A    
C98   O32   A    
C33   H55   S    
Cr2   O10   S    
Cr6   O23   S    
C50   F2    S    
C84   H14   S    
Cr12  O52   S    
Cr5   O12   S    
C24   H42   S    
C18   C35   A    
C112  O7    A    
Cr4   O13   S    
Cr7   O39   S    
C93   C110  S    
C55   O29   A    
C12   C58   A    
C104  O42   A    
C33   H60   S    
Cr12  O27   S    
C103  O41   A    
C87   C92   S    
C31   H53   S    
C110  O5    A    
Cr8   O18   S    
Cr8   O9    S    
C105  O43   A    
C88   H22   S    
C7    C56   S    
C101  O44   A    
C12   C47   S    
C70   C87   S    
C60   H3    S    
C41   C49   A    
C37   C98   S    
C76   H6    S    
C46   C48   A    
Cr2   O2    S    
C16   C26   A    
C81   H10   S    
C63   C67   A    
C67   C85   S    
Cr7   O17   S    
C41   C106  S    
C30   C34   S    
Cr4   O35   S    
C27   C31   S    
C51   C52   A    
C88   H27   S    
C74   C96   A    
C62   C79   A    
C28   C32   S    
C57   H64   S    
C55   O25   A    
C86   C90   S    
C3    O39   A    
C6    C11   D    
C83   H13   S    
C62   C66   A    
C19   C23   A    
C28   H48   S    
Cr1   O36   S    
C68   C73   A    
Cr3   O7    S    
Cr12  O5    S    
C77   C95   A    
C11   H34   S    
C97   O31   A    
C34   H57   S    
Cr3   O11   S    
C60   C61   S    
C90   H25   S    
C14   C23   A    
C100  O35   A    
Cr6   O16   S    
C31   C102  S    
C66   C71   A    
C70   C74   A    
C82   H11   S    
C106  O52   A    
C10   H23   S    
C20   C38   A    
C5    C54   S    
C15   C80   A    
C21   C39   A    
Cr12  O31   S    
Cr5   O41   S    
C44   C57   S    
C43   C48   A    
C30   C91   S    
C28   C69   S    
C3    O8    A    
C1    C16   S    
C99   O33   A    
C41   C45   A    
Cr11  O51   S    
C108  O3    A    
C100  O34   A    
C1    O14   A    
C64   C82   A    
C13   C38   A    
C3    C96   S    
C72   C94   A    
C36   O20   A    
C40   C107  S    
C36   O16   A    
Cr7   O43   S    
C15   C24   A    
C79   H9    S    
Cr11  O26   S    
C26   H43   S    
C49   C50   A    
Cr10  O47   S    
Cr1   O9    S    
C10   C11   S    
Cr11  O21   S    
C42   C46   A    
C111  O37   A    
C14   C69   A    
Cr10  O20   S    
Cr10  O11   S    
C75   C79   A    
C17   C34   S    
C73   C95   A    
C27   H47   S    
Cr5   O10   S    
C2    C69   A    
C20   H38   S    
C44   C45   A    
C75   C93   A    
Cr1   O40   S    
C27   H49   S    
Cr11  O48   S    
Cr9   O49   S    
C98   O12   A    
Cr3   O3    S    
C45   C59   S    
C61   H56   S    
C85   C89   S    
C15   C25   S    
C87   H17   S    
C32   H59   S    
C46   C60   S    
C1    O18   A    
C18   C22   A    
Cr8   O22   S    
Cr1   O1    S    
Cr2   O6    S    
Cr3   O29   S    
C34   H61   S    
C84   C88   S    
Cr2   O28   S    
C63   C104  S    
Cr5   O15   S    
C27   C58   S    
C86   H20   S    
C76   C81   A    
Cr9   O10   S    
C5    C8    D    
C75   H5    S    
C54   O28   A    
C71   C93   A    
C89   H28   S    
C49   F1    S    
Cr8   O45   S    
C21   H39   S    
Cr12  O9    S    
C51   F3    S    
Cr1   O14   S    
Cr7   O13   S    
C90   H29   S    
C47   O17   A    
C85   H19   S    
C22   H40   S    
C57   H62   S    
C110  O36   A    
Cr8   O44   S    
C29   H51   S    
C56   O30   A    
C72   C89   S    
C2    C37   A    
C43   C51   A    
C39   C100  S    
C4    H32   S    
C29   C80   S    
C28   H50   S    
C77   C82   A    
Cr6   O38   S    
C103  O46   A    
C40   C50   A    
C58   C102  A    
C47   O21   A    
C31   H58   S    
Cr5   O37   S    
C105  O48   A    
C101  O40   A    
C108  O50   A    
C43   C108  S    
Cr9   O19   S    
C29   H44   S    
Cr4   O30   S    
C23   H41   S    
C13   C80   A    
C65   C83   A    
Cr9   O24   S    
C66   C84   S    
C71   C88   S    
Cr4   O4    S    
C40   C44   A    
C19   H37   S    
C6    H35   S    
C16   C91   A    
C13   C33   S    
C87   H21   S    
C48   C61   S    
C8    H1    S    
C30   H52   S    
C107  O49   A    
C92   H26   S    
C84   H18   S    
C77   H7    S    
Cr2   O32   S    
C4    C9    D    
C25   O15   A    
C78   H8    S    
C30   H46   S    
C107  O2    A    
Cr9   O46   S    
Cr7   O34   S    
C42   C52   A    
