data_mof_unit_719.cif
_audit_creation_date              2012-10-26T20:18:18-0400
_audit_creation_method            fapswitch 2.2
_symmetry_space_group_name_H-M    P1
_symmetry_Int_Tables_number       1
_space_group_crystal_system       triclinic
_cell_length_a                    23.526058
_cell_length_b                    8.686563
_cell_length_c                    7.567392
_cell_angle_alpha                 103.475506
_cell_angle_beta                  95.627104
_cell_angle_gamma                 94.781764
_cell_volume                      1487.61422033

loop_
_atom_site_label
_atom_site_type_symbol
_atom_type_description
_atom_site_fract_x
_atom_site_fract_y
_atom_site_fract_z
_atom_type_partial_charge
C1    C     C_R   0.498181 0.199759 0.452790 0.540738
C2    C     C_R   0.696169 0.563656 0.365843 -0.151478
C3    C     C_R   0.234164 0.453360 0.311837 0.056987
C4    C     C_R   0.755167 0.570444 0.354430 0.060898
C5    C     C_R   0.207712 0.503459 0.471935 0.219124
C6    C     C_R   0.790487 0.513996 0.481878 0.223023
C7    C     C_2   0.497464 0.031096 0.427244 -0.138689
C8    C     C_2   0.502687 0.968949 0.572786 -0.143954
C9    C     C_R   0.391108 0.503138 0.500639 0.532223
C10   C     C_R   0.608742 0.497553 0.499649 0.526502
C11   C     C_R   0.886262 0.651802 0.550378 0.472811
C12   C     C_R   0.501879 0.800258 0.547221 0.546067
C13   C     C_R   0.111765 0.366402 0.426024 0.486941
C14   C     C_R   0.871853 0.377497 0.392905 0.411145
C15   C     C_R   0.124976 0.649297 0.500789 0.414032
C16   C     C_R   0.931197 0.374173 0.378292 -0.022314
C17   C     C_R   0.065959 0.656831 0.520007 -0.006008
C18   C     C_R   0.968577 0.515846 0.456393 -0.047302
C19   C     C_R   0.028549 0.513271 0.457257 -0.047236
C20   C     C_R   0.945910 0.659522 0.534312 0.022564
C21   C     C_R   0.051443 0.366292 0.397783 0.027704
C22   C     C_R   0.953893 0.233576 0.290027 -0.017912
C23   C     C_R   0.241281 0.556210 0.642101 -0.049321
C24   C     C_R   0.043474 0.802120 0.593572 -0.004600
C25   C     C_R   0.014008 0.226323 0.310281 0.076039
C26   C     C_R   0.983411 0.803735 0.598228 0.083187
C27   C     C_2   0.915312 0.103799 0.157221 0.385159
C28   C     C_2   0.082989 0.950577 0.677209 0.361816
C29   C     C_2   0.037626 0.077564 0.222227 0.709366
C30   C     C_2   0.960493 0.958107 0.667388 0.686463
C31   C     C_2   0.334020 0.641336 0.839333 0.248896
C32   C     C_2   0.683002 0.352404 0.752012 0.249045
C33   C     C_2   0.202026 0.406036 0.124867 0.315480
C34   C     C_R   0.766305 0.449978 0.614456 -0.028420
C35   C     C_2   0.777368 0.635113 0.205931 0.335825
C36   C     C_2   0.440535 0.337263 0.934994 0.420733
C37   C     C_2   0.559373 0.662945 0.064977 0.408090
C38   C     C_R   0.301341 0.563873 0.657747 -0.018545
C39   C     C_R   0.706843 0.437983 0.622185 -0.013508
C40   C     C_R   0.328144 0.507054 0.498275 -0.034482
C41   C     C_R   0.671391 0.498642 0.497660 -0.025084
C42   C     C_R   0.293763 0.451709 0.328163 -0.138584
Cu1   Cu    Cu3+1 0.506340 0.517380 0.684380 1.006901
Cu2   Cu    Cu3+1 0.493660 0.482620 0.315620 1.035021
H1    H     H_    0.219963 0.597648 0.762316 0.175471
H2    H     H_    0.909673 0.121807 0.615085 0.342294
H3    H     H_    0.376593 0.703298 0.850352 0.151414
H4    H     H_    0.638097 0.305607 0.732815 0.141109
H5    H     H_    0.223343 0.348853 0.010040 0.123210
H6    H     H_    0.748448 0.685692 0.119601 0.129200
H7    H     H_    0.430841 0.311328 0.790073 0.142945
H8    H     H_    0.568881 0.689308 0.209945 0.132299
H9    H     H_    0.794356 0.404232 0.707749 0.185123
H10   H     H_    0.313600 0.409183 0.205112 0.179835
H11   H     H_    0.669156 0.609427 0.269998 0.122120
H12   H     H_    0.492640 0.957863 0.287822 0.147571
H13   H     H_    0.507521 0.042185 0.712206 0.144000
H14   H     H_    0.884600 0.134460 0.057729 0.158382
H15   H     H_    0.122253 0.945410 0.762490 0.143404
H16   H     H_    0.092201 0.975031 0.055140 0.332572
N1    N     N_R   0.851186 0.514799 0.474235 -0.371752
N2    N     N_R   0.146594 0.506154 0.465010 -0.373128
N3    N     N_2   0.484110 0.456420 0.038520 -0.177379
N4    N     N_2   0.515890 0.543580 0.961480 -0.181541
O1    O     O_R   0.504120 0.286130 0.619770 -0.558432
O2    O     O_2   0.135925 0.229621 0.415586 -0.413849
O3    O     O_2   0.834794 0.243887 0.333028 -0.468600
O4    O     O_2   0.160689 0.782165 0.513200 -0.469696
O5    O     O_2   0.915865 0.964175 0.160475 -0.363845
O6    O     O_2   0.072569 0.079308 0.651043 -0.416161
O7    O     O_2   0.024583 0.953389 0.265311 -0.434913
O8    O     O_R   0.076343 0.081029 0.094359 -0.617046
O9    O     O_2   0.975320 0.034553 0.824611 -0.496970
O10   O     O_R   0.922323 0.016154 0.551982 -0.589799
O11   O     O_2   0.312785 0.641093 0.980225 -0.516918
O12   O     O_R   0.495880 0.713870 0.380230 -0.545444
O13   O     O_2   0.713811 0.329593 0.880934 -0.492337
O14   O     O_2   0.152497 0.433978 0.094740 -0.444849
O15   O     O_2   0.827247 0.630993 0.175162 -0.431236
O16   O     O_2   0.411717 0.257924 0.013998 -0.504147
O17   O     O_2   0.588345 0.741847 0.985900 -0.496844
O18   O     O_R   0.493410 0.256770 0.308360 -0.448615
O19   O     O_R   0.506590 0.743230 0.691640 -0.455270
O20   O     O_R   0.423230 0.514630 0.655730 -0.568245
O21   O     O_R   0.576770 0.485370 0.344270 -0.539822
O22   O     O_R   0.412530 0.485280 0.344320 -0.446021
O23   O     O_R   0.587470 0.514720 0.655680 -0.472891
O24   O     O_2   0.862985 0.777562 0.644979 -0.430541

loop_
_geom_bond_atom_site_label_1
_geom_bond_atom_site_label_2
_ccdc_geom_bond_type
C3    C42   A    
C23   H1    S    
Cu1   O19   S    
C7    C8    D    
C10   O21   A    
C6    N1    S    
C19   C21   A    
C24   C26   A    
Cu2   O18   S    
C2    H11   S    
C8    H13   S    
C33   O14   D    
H16   O8    S    
C2    C41   A    
C33   H5    S    
C18   C19   A    
C32   C39   S    
Cu2   O12   S    
C32   O13   D    
C13   N2    A    
C22   C25   A    
C1    O1    A    
C14   O3    S    
C36   N3    S    
C27   O5    D    
Cu1   O1    S    
C29   O8    S    
C40   C42   A    
C4    C35   S    
C31   H3    S    
C10   C41   S    
Cu1   O20   S    
C32   H4    S    
C37   O17   D    
C7    H12   S    
Cu2   O22   S    
Cu1   N4    S    
C13   O2    S    
Cu2   N3    S    
C25   C29   S    
C11   C20   A    
C10   O23   A    
C17   C24   A    
C34   C39   A    
C4    C6    A    
C36   O16   D    
C37   H8    S    
C3    C5    A    
C1    O18   A    
C30   O9    D    
C14   N1    A    
C9    C40   S    
C6    C34   A    
C12   O19   A    
C2    C4    A    
Cu1   Cu2   S    
C9    O22   A    
C31   O11   D    
C5    C23   A    
C11   O24   S    
C8    C12   S    
C35   H6    S    
C13   C21   A    
C36   H7    S    
C26   C30   S    
C22   C27   S    
C12   O12   A    
C14   C16   A    
Cu2   O21   S    
H2    O10   S    
C37   N4    S    
C28   H15   S    
C15   C17   A    
C21   C25   A    
C16   C22   A    
C1    C7    S    
C28   O6    D    
C24   C28   S    
C11   N1    A    
C27   H14   S    
C23   C38   A    
C31   C38   S    
Cu1   O23   S    
C42   H10   S    
C38   C40   A    
C20   C26   A    
C30   O10   S    
C15   O4    S    
C35   O15   D    
C17   C19   A    
C15   N2    A    
C5    N2    S    
C18   C20   A    
C9    O20   A    
N3    N4    D    
C39   C41   A    
C34   H9    S    
C16   C18   A    
C3    C33   S    
C29   O7    D    
