data_mof_unit_3899.cif
_audit_creation_date              2012-12-11T15:29:48-0500
_audit_creation_method            fapswitch 2.2
_symmetry_space_group_name_H-M    P1
_symmetry_Int_Tables_number       1
_space_group_crystal_system       triclinic
_cell_length_a                    13.492186
_cell_length_b                    13.496579
_cell_length_c                    27.584391
_cell_angle_alpha                 90.623497
_cell_angle_beta                  90.063757
_cell_angle_gamma                 60.066171
_cell_volume                      4352.69404968

loop_
_atom_site_label
_atom_site_type_symbol
_atom_type_description
_atom_site_fract_x
_atom_site_fract_y
_atom_site_fract_z
_atom_type_partial_charge
Br1   Br    Br    0.796540 0.296711 0.789021 -0.639965
Br2   Br    Br    0.109689 0.984464 0.123734 -0.507161
C1    C     C_R   0.619999 0.100826 0.570155 0.545856
C2    C     C_1   0.647773 0.708665 0.658414 -0.056626
C3    C     C_3   0.076116 0.173386 0.736751 -0.072837
C4    C     C_R   0.599527 0.779698 0.568562 0.546931
C5    C     C_3   0.147455 0.077341 0.773274 -0.084580
C6    C     C_1   0.099632 0.199158 0.900623 0.003804
C7    C     C_1   0.233248 0.136461 0.617685 -0.012502
C8    C     C_3   0.082270 0.262009 0.770872 -0.072943
C9    C     C_3   0.154023 0.165792 0.806644 0.059315
C10   C     C_3   0.193856 0.240228 0.745665 -0.113004
C11   C     C_3   0.187190 0.151872 0.712292 0.038613
C12   C     C_1   0.630085 0.734177 0.616339 -0.013025
C13   C     C_3   0.265300 0.144276 0.782151 -0.114110
C14   C     C_3   0.259226 0.055573 0.747932 -0.110370
C15   C     C_1   0.129360 0.179478 0.858776 -0.033094
C16   C     C_R   0.278339 0.121453 0.569518 0.546507
C17   C     C_1   0.207965 0.144627 0.659969 -0.057148
C18   C     C_3   0.599292 0.276149 0.741936 -0.080997
C19   C     C_3   0.544470 0.232785 0.779548 -0.129804
C20   C     C_1   0.688190 0.203914 0.902621 0.012636
C21   C     C_1   0.633876 0.131325 0.618689 -0.012278
C22   C     C_3   0.710376 0.222116 0.771894 0.191576
C23   C     C_3   0.628815 0.604858 0.769955 -0.071077
C24   C     C_3   0.655993 0.179211 0.808857 0.061794
C25   C     C_3   0.757895 0.108780 0.743124 -0.078829
C26   C     C_3   0.646323 0.162327 0.713825 0.026601
C27   C     C_3   0.702921 0.065628 0.780615 -0.129589
C28   C     C_R   0.621768 0.099997 0.431427 0.538036
C29   C     C_3   0.591156 0.118775 0.750537 -0.122648
C30   C     C_1   0.668861 0.190984 0.861064 -0.013074
C31   C     C_1   0.640845 0.148793 0.661198 -0.052313
C32   C     C_R   0.632016 0.738640 0.380298 0.025593
C33   C     C_R   0.684762 0.786407 0.352571 -0.113934
C34   C     C_3   0.677386 0.659232 0.804982 0.057781
C35   C     C_R   0.695430 0.769613 0.303067 -0.092854
C36   C     C_R   0.658520 0.700608 0.280886 0.051079
C37   C     C_R   0.608258 0.650107 0.308309 -0.113869
C38   C     C_R   0.593758 0.670232 0.358077 -0.132586
C39   C     C_R   0.572473 0.712399 0.201286 -0.144590
C40   C     C_R   0.600607 0.779410 0.429839 0.537479
C41   C     C_R   0.582841 0.686035 0.152172 -0.131494
C42   C     C_R   0.787439 0.613264 0.157021 -0.097612
C43   C     C_R   0.778310 0.636472 0.206311 0.089813
C44   C     C_R   0.670324 0.683727 0.228774 0.035564
C45   C     C_3   0.559236 0.721553 0.744779 -0.112469
C46   C     C_R   0.691185 0.631905 0.130341 -0.000682
C47   C     C_R   0.232458 0.133272 0.382355 0.023931
C48   C     C_R   0.272998 0.035884 0.352392 -0.122910
C49   C     C_R   0.252420 0.047312 0.303048 -0.121403
C50   C     C_R   0.187888 0.156194 0.283004 0.032518
C51   C     C_R   0.141311 0.253419 0.313495 -0.108782
C52   C     C_R   0.279801 0.119558 0.430857 0.539870
C53   C     C_R   0.164854 0.242100 0.362885 -0.124810
C54   C     C_R   0.167428 0.259853 0.206266 -0.116007
C55   C     C_R   0.137427 0.277963 0.157723 -0.142190
C56   C     C_3   0.661231 0.688551 0.710626 0.041167
C57   C     C_R   0.126014 0.103582 0.155195 0.153519
C58   C     C_R   0.152895 0.088268 0.204171 -0.086453
C59   C     C_R   0.169706 0.168064 0.230406 0.002259
C60   C     C_R   0.110470 0.203786 0.132232 0.028474
C61   C     C_R   0.640257 0.138312 0.384590 0.018618
C62   C     C_R   0.547547 0.230127 0.361491 -0.123387
C63   C     C_R   0.554159 0.249533 0.312639 -0.121024
C64   C     C_3   0.730638 0.572221 0.735066 -0.077383
C65   C     C_R   0.654244 0.178817 0.286329 0.032357
C66   C     C_R   0.750204 0.093088 0.310336 -0.118936
C67   C     C_3   0.607846 0.775718 0.780541 -0.113472
C68   C     C_R   0.743123 0.072575 0.359153 -0.132735
C69   C     C_R   0.714496 0.095745 0.203343 -0.108972
C70   C     C_R   0.727362 0.108662 0.154236 -0.104503
C71   C     C_R   0.616940 0.314846 0.164471 -0.121780
C72   C     C_R   0.605819 0.301977 0.213682 -0.116137
C73   C     C_R   0.657544 0.192405 0.233730 0.032382
C74   C     C_R   0.681800 0.218356 0.134880 0.023384
C75   C     C_R   0.050077 0.234732 0.948024 0.550909
C76   C     C_3   0.779466 0.626248 0.770855 -0.092362
C77   C     C_R   0.711949 0.561919 0.946439 0.552874
C78   C     C_3   0.709697 0.743233 0.745550 -0.108109
C79   C     C_R   0.722042 0.223620 0.949409 0.547631
C80   C     C_R   0.049334 0.242704 0.086020 0.559225
C81   C     C_R   0.709036 0.572714 0.084053 0.541809
C82   C     C_R   0.719727 0.233315 0.087398 0.537902
C83   C     C_1   0.696631 0.608975 0.898906 0.001927
C84   C     C_1   0.686880 0.636780 0.857064 -0.036307
Cr1   Cr    Cr6+3 0.417550 0.169090 0.500530 1.025165
Cr2   Cr    Cr6+3 0.669180 0.913420 0.499920 1.026784
Cr3   Cr    Cr6+3 0.413260 0.917540 0.499520 1.025349
Cr4   Cr    Cr6+3 0.909770 0.175810 0.018240 1.091644
Cr5   Cr    Cr6+3 0.913300 0.427650 0.016090 1.034286
Cr6   Cr    Cr6+3 0.657770 0.431010 0.016900 1.039258
H1    H     H_    0.870151 0.587135 0.782237 0.106907
H2    H     H_    0.711597 0.842830 0.368601 0.143028
H3    H     H_    0.780985 0.488965 0.715807 0.141756
H4    H     H_    0.488867 0.750685 0.218335 0.118520
H5    H     H_    0.507540 0.701564 0.132031 0.151553
H6    H     H_    0.731198 0.811593 0.281919 0.137598
H7    H     H_    0.871958 0.570596 0.140753 0.160374
H8    H     H_    0.578829 0.597029 0.291034 0.111897
H9    H     H_    0.550840 0.634979 0.378899 0.123361
H10   H     H_    0.327783 0.950900 0.366412 0.140329
H11   H     H_    0.185204 0.319860 0.225271 0.141281
H12   H     H_    0.343051 0.132088 0.801226 0.102309
H13   H     H_    0.129303 0.353903 0.141002 0.153174
H14   H     H_    0.743014 0.800283 0.734835 0.108733
H15   H     H_    0.291235 0.970960 0.280469 0.106600
H16   H     H_    0.156204 0.015664 0.222036 0.137278
H17   H     H_    0.088650 0.338199 0.299074 0.152760
H18   H     H_    0.133513 0.318042 0.385526 0.132003
H19   H     H_    0.466957 0.282351 0.380177 0.137023
H20   H     H_    0.751902 0.010259 0.217792 0.117960
H21   H     H_    0.777311 0.033212 0.131882 0.147199
H22   H     H_    0.478922 0.316074 0.294990 0.110279
H23   H     H_    0.212786 0.307366 0.733720 0.109410
H24   H     H_    0.561869 0.377871 0.236356 0.107067
H25   H     H_    0.557476 0.859252 0.799609 0.103072
H26   H     H_    0.582197 0.400493 0.150452 0.139599
H27   H     H_    0.829618 0.039770 0.291032 0.121439
H28   H     H_    0.816038 0.001785 0.376223 0.133712
H29   H     H_    0.468672 0.759859 0.733370 0.103135
H30   H     H_    0.594499 0.548598 0.780556 0.148287
H31   H     H_    0.128482 0.010252 0.785234 0.118860
H32   H     H_    0.999108 0.185074 0.717214 0.145779
H33   H     H_    0.332332 0.970672 0.737731 0.103851
H34   H     H_    0.009361 0.347362 0.780842 0.139855
H35   H     H_    0.456876 0.282843 0.794976 0.108468
H36   H     H_    0.558058 0.362517 0.725704 0.117655
H37   H     H_    0.541683 0.075752 0.741103 0.112963
H38   H     H_    0.744595 0.979302 0.796902 0.109114
H39   H     H_    0.845671 0.059045 0.727837 0.118197
I1    I     I_    0.934170 0.580501 0.244488 -0.486227
O1    O     O_R   0.301780 0.195490 0.553940 -0.506287
O2    O     O_R   0.636050 0.541380 0.962520 -0.500357
O3    O     O_R   0.666480 0.323610 0.968170 -0.492787
O4    O     O_R   0.522450 0.158840 0.550250 -0.493913
O5    O     O_R   0.817280 0.156800 0.072180 -0.483517
O6    O     O_R   0.005110 0.187160 0.067410 -0.445255
O7    O     O_R   0.026450 0.340060 0.069950 -0.531299
O8    O     O_R   0.808300 0.527240 0.065170 -0.506843
O9    O     O_R   0.634070 0.548770 0.069460 -0.515834
O10   O     O_R   0.664650 0.330470 0.067300 -0.509720
O11   O     O_3   0.826940 0.344820 0.017080 -0.257288
O12   O     O_R   0.658840 0.818280 0.449970 -0.504369
O13   O     O_R   0.694460 0.003360 0.553820 -0.505184
O14   O     O_R   0.657750 0.819520 0.549120 -0.492988
O15   O     O_R   0.501990 0.803120 0.552700 -0.506021
O16   O     O_R   0.318230 0.023430 0.549370 -0.493754
O17   O     O_R   0.302950 0.194150 0.446980 -0.516304
O18   O     O_R   0.523540 0.157600 0.451100 -0.503842
O19   O     O_R   0.695630 0.002030 0.446860 -0.523404
O20   O     O_R   0.503160 0.801780 0.445740 -0.520388
O21   O     O_R   0.319320 0.022190 0.450230 -0.505075
O22   O     O_3   0.499990 0.000010 0.499990 -0.249463
O23   O     O_R   0.819250 0.149410 0.965240 -0.501888
O24   O     O_R   0.006940 0.180310 0.968270 -0.484763
O25   O     O_R   0.028420 0.332670 0.963010 -0.508409
O26   O     O_R   0.810130 0.520390 0.966030 -0.493703

loop_
_geom_bond_atom_site_label_1
_geom_bond_atom_site_label_2
_ccdc_geom_bond_type
Cr3   O16   S    
C55   H13   S    
C19   C24   S    
C24   C30   S    
C25   C27   S    
C25   H39   S    
C71   C72   A    
Cr1   O1    S    
C1    C21   S    
C32   C40   S    
C22   C25   S    
C70   C74   A    
C74   C82   S    
C77   O26   A    
C28   O19   A    
C55   C60   A    
C83   C84   T    
C50   C51   A    
C5    C9    S    
C19   C29   S    
C3    H32   S    
C35   C36   A    
C20   C30   T    
C32   C38   A    
C33   C35   A    
C22   C24   S    
C1    O4    A    
C16   O16   A    
C50   C59   S    
C66   H27   S    
C36   C37   A    
C4    O14   A    
C42   H7    S    
C76   C78   S    
C28   O18   A    
C39   H4    S    
C76   H1    S    
C47   C52   S    
C78   H14   S    
C54   C55   A    
C16   O1    A    
C32   C33   A    
C63   H22   S    
C37   H8    S    
Cr6   O11   S    
C45   C67   S    
Cr5   O26   S    
C38   H9    S    
C9    C13   S    
C56   C64   S    
Cr3   O20   S    
C18   C22   S    
C68   H28   S    
C63   C65   A    
Cr1   O18   S    
Cr2   O13   S    
C10   C13   S    
C13   H12   S    
C19   H35   S    
Cr6   O10   S    
C23   H30   S    
C23   C45   S    
C3    C11   S    
Cr4   O11   S    
C58   H16   S    
C56   C78   S    
C10   H23   S    
C60   C80   S    
C57   C58   A    
C28   C61   S    
C39   C41   A    
C52   O21   A    
C49   H15   S    
C35   H6    S    
Cr4   O6    S    
C7    C17   T    
C79   O3    A    
C52   O17   A    
Cr5   O11   S    
C51   C53   A    
C64   C76   S    
Cr5   O25   S    
C72   C73   A    
C11   C17   S    
C49   C50   A    
C20   C79   S    
C37   C38   A    
C3    C5    S    
C75   O24   A    
Br2   C57   S    
C62   H19   S    
C18   C26   S    
C21   C31   T    
C47   C53   A    
C70   H21   S    
C65   C66   A    
C58   C59   A    
Cr2   O22   S    
C80   O7    A    
C4    C12   S    
Cr3   O21   S    
C27   H38   S    
C61   C68   A    
C82   O10   A    
C39   C44   A    
C72   H24   S    
C69   H20   S    
C48   C49   A    
Cr1   O22   S    
C10   C11   S    
Cr6   O9    S    
C8    C10   S    
C43   I1    S    
Cr5   O7    S    
C14   H33   S    
C66   C68   A    
C5    C14   S    
C82   O5    A    
C48   H10   S    
C53   H18   S    
C40   O12   A    
C6    C75   S    
C71   C74   A    
Cr6   O3    S    
C65   C73   S    
Cr4   O24   S    
C77   C83   S    
Cr4   O5    S    
C40   O20   A    
C42   C43   A    
C81   O9    A    
C41   C46   A    
C33   H2    S    
C51   H17   S    
Cr3   O15   S    
C77   O2    A    
C9    C15   S    
C57   C60   A    
C71   H26   S    
Cr1   O4    S    
C26   C29   S    
Cr6   O2    S    
C23   C64   S    
C41   H5    S    
C54   H11   S    
C5    H31   S    
C26   C31   S    
Cr5   O8    S    
C1    O13   A    
C6    C15   T    
C79   O23   A    
C46   C81   S    
C18   H36   S    
C34   C84   S    
C62   C63   A    
C3    C8    S    
C29   H37   S    
C42   C46   A    
C34   C76   S    
Br1   C22   S    
C80   O6    A    
C45   C56   S    
C69   C73   A    
C4    O15   A    
Cr3   O22   S    
C67   H25   S    
Cr2   O19   S    
C2    C12   T    
C34   C67   S    
C36   C44   S    
C45   H29   S    
C8    C9    S    
C23   C34   S    
C81   O8    A    
C61   C62   A    
C43   C44   A    
C7    C16   S    
C69   C70   A    
C18   C19   S    
C24   C27   S    
C27   C29   S    
C47   C48   A    
Cr1   O17   S    
C11   C14   S    
C2    C56   S    
C25   C26   S    
Cr2   O14   S    
C54   C59   A    
C67   C78   S    
Cr4   O23   S    
C8    H34   S    
Cr2   O12   S    
C13   C14   S    
C75   O25   A    
C64   H3    S    
