data_mof_unit_2200.cif
_audit_creation_date              2012-12-10T17:45:32-0500
_audit_creation_method            fapswitch 2.2
_symmetry_space_group_name_H-M    P1
_symmetry_Int_Tables_number       1
_space_group_crystal_system       triclinic
_cell_length_a                    11.536859
_cell_length_b                    10.668644
_cell_length_c                    9.955153
_cell_angle_alpha                 90.245986
_cell_angle_beta                  90.010843
_cell_angle_gamma                 93.904252
_cell_volume                      1222.4514632

loop_
_atom_site_label
_atom_site_type_symbol
_atom_type_description
_atom_site_fract_x
_atom_site_fract_y
_atom_site_fract_z
_atom_type_partial_charge
C1    C     C_R   0.511009 0.261787 0.499600 0.881677
C2    C     C_R   0.741426 0.083110 0.774258 -0.136604
C3    C     C_R   0.741366 0.952819 0.773779 -0.145836
C4    C     C_R   0.671670 0.882177 0.683003 -0.183107
C5    C     C_R   0.597729 0.941270 0.593037 0.108188
C6    C     C_R   0.598498 0.073346 0.592831 0.096906
C7    C     C_R   0.529278 0.130665 0.496591 -0.118643
C8    C     C_R   0.475669 0.061376 0.392206 -0.215894
C9    C     C_R   0.470908 0.933737 0.395436 -0.233284
C10   C     C_R   0.525848 0.873407 0.498734 -0.100702
C11   C     C_R   0.314439 0.351948 0.130144 0.511563
C12   C     C_R   0.282566 0.505035 0.500112 0.924961
C13   C     C_R   0.219576 0.311372 0.045039 -0.311673
C14   C     C_R   0.231913 0.306941 0.908520 -0.258991
C15   C     C_R   0.333162 0.354515 0.851476 -0.127747
C16   C     C_R   0.415902 0.427669 0.925392 0.113999
C17   C     C_R   0.411943 0.427230 0.070476 0.062482
C18   C     C_R   0.581514 0.568286 0.071755 -0.112855
C19   C     C_R   0.581105 0.568688 0.929177 -0.100434
C20   C     C_R   0.508696 0.739835 0.500204 0.852443
C21   C     C_R   0.717933 0.500883 0.500037 0.863017
C22   C     C_1   0.162085 0.506616 0.500458 -0.193623
C23   C     C_1   0.059816 0.506235 0.500572 -0.015140
C24   C     C_1   0.940960 0.504439 0.500417 -0.008857
C25   C     C_1   0.838600 0.502611 0.500195 -0.189791
C26   C     C_R   0.672100 0.143424 0.683636 -0.180451
H1    H     H_    0.429853 0.105237 0.312122 0.212494
H2    H     H_    0.164108 0.261196 0.846674 0.170641
H3    H     H_    0.342425 0.334293 0.747865 0.213712
H4    H     H_    0.647590 0.625254 0.876296 0.133583
H5    H     H_    0.680639 0.244803 0.682815 0.166348
H6    H     H_    0.797519 0.137852 0.842922 0.136120
H7    H     H_    0.797415 0.906374 0.842057 0.132973
H8    H     H_    0.680053 0.782027 0.681551 0.150237
H9    H     H_    0.420235 0.882044 0.319054 0.172807
H10   H     H_    0.648220 0.624486 0.125298 0.143045
H11   H     H_    0.137668 0.269701 0.081199 0.135146
N1    N     N_R   0.498930 0.498800 0.142780 -0.107476
N2    N     N_R   0.498900 0.498720 0.857170 -0.110199
O1    O     O_R   0.500000 0.316780 0.614690 -0.660447
O2    O     O_R   0.499990 0.316750 0.385360 -0.543413
O3    O     O_R   0.334450 0.500030 0.614670 -0.635387
O4    O     O_R   0.334440 0.500000 0.385330 -0.557156
O5    O     O_R   0.500010 0.683250 0.614640 -0.617326
O6    O     O_R   0.500000 0.683220 0.385310 -0.622734
O7    O     O_R   0.665560 0.500000 0.614670 -0.632653
O8    O     O_R   0.665550 0.499970 0.385330 -0.615595
Zn1   Zn    Zn3+2 0.500010 0.500020 0.653130 0.926389
Zn2   Zn    Zn3+2 0.499990 0.499980 0.346870 0.983553
O9    O     O_3   0.319184 0.305456 0.261404 -0.569751
C27   C     C_3   0.214560 0.240034 0.307458 0.083004
H12   H     H_    0.194031 0.153956 0.245989 0.136106
H13   H     H_    0.141778 0.303312 0.303687 0.147307
C28   C     C_3   0.223362 0.195101 0.452387 -0.857983
H14   H     H_    0.135099 0.184085 0.497178 0.211870
H15   H     H_    0.259992 0.101966 0.456301 0.237630
H16   H     H_    0.276859 0.261907 0.514988 0.255552

loop_
_geom_bond_atom_site_label_1
_geom_bond_atom_site_label_2
_ccdc_geom_bond_type
C8    C9    A    
C12   O3    A    
C23   C24   S    
C28   H15   S    
C6    C7    A    
C10   C20   S    
C9    C10   A    
C28   H14   S    
C13   H11   S    
C20   O6    A    
O6    Zn2   S    
C27   C28   S    
C2    C3    A    
C18   N1    A    
O4    Zn2   S    
C26   H5    S    
O8    Zn2   S    
C11   O9    S    
O3    Zn1   S    
C13   C14   A    
C11   C13   A    
C6    C26   A    
C19   N2    A    
N2    Zn1   S    
C2    H6    S    
O2    Zn2   S    
C20   O5    A    
C15   H3    S    
C12   O4    A    
C4    H8    S    
C17   N1    A    
C1    C7    S    
C5    C6    A    
O7    Zn1   S    
C7    C8    A    
C3    H7    S    
C16   N2    A    
C9    H9    S    
C15   C16   A    
C12   C22   S    
C5    C10   A    
C27   H12   S    
C24   C25   T    
C2    C26   A    
C21   O7    A    
C1    O2    A    
N1    Zn2   S    
C18   C19   A    
O1    Zn1   S    
C22   C23   T    
C16   C17   A    
C21   C25   S    
O9    C27   S    
C1    O1    A    
C14   H2    S    
C8    H1    S    
C14   C15   A    
C19   H4    S    
C18   H10   S    
C11   C17   A    
C3    C4    A    
O5    Zn1   S    
C21   O8    A    
C4    C5    A    
C27   H13   S    
C28   H16   S    
