data_mof_unit_2364.cif
_audit_creation_date              2012-12-10T16:39:34-0500
_audit_creation_method            fapswitch 2.2
_symmetry_space_group_name_H-M    P1
_symmetry_Int_Tables_number       1
_space_group_crystal_system       triclinic
_cell_length_a                    16.745388
_cell_length_b                    16.877997
_cell_length_c                    16.869281
_cell_angle_alpha                 65.226904
_cell_angle_beta                  66.181788
_cell_angle_gamma                 65.760848
_cell_volume                      3789.46675838

loop_
_atom_site_label
_atom_site_type_symbol
_atom_type_description
_atom_site_fract_x
_atom_site_fract_y
_atom_site_fract_z
_atom_type_partial_charge
C1    C     C_R   0.303839 0.022210 0.432160 -0.010139
C2    C     C_R   0.327561 0.460409 0.942874 -0.006756
C3    C     C_R   0.524524 0.404848 0.028007 0.026820
C4    C     C_R   0.011944 0.453928 0.586828 0.026784
C5    C     C_R   0.983359 0.547355 0.413890 0.026315
C6    C     C_3   0.215141 0.126911 0.206039 0.120704
C7    C     C_3   0.135935 0.153675 0.167616 -0.303042
C8    C     C_3   0.164372 0.118335 0.087567 -0.764251
C9    C     C_3   0.780776 0.875051 0.795296 0.126088
C10   C     C_3   0.823323 0.848208 0.871213 -0.306618
C11   C     C_3   0.912327 0.872706 0.835568 -0.778810
C12   C     C_3   0.808351 0.315192 0.290914 0.104038
C13   C     C_R   0.051264 0.674187 0.540170 -0.007686
C14   C     C_3   0.754102 0.263653 0.382373 -0.359198
C15   C     C_3   0.654573 0.289297 0.385174 -0.945607
C16   C     C_3   0.193578 0.711354 0.674988 0.105518
C17   C     C_3   0.208820 0.781902 0.697447 -0.320190
C18   C     C_3   0.308331 0.782337 0.658550 -0.953416
C19   C     C_3   0.327943 0.297391 0.807759 0.119694
C20   C     C_3   0.285094 0.393315 0.750729 -0.403442
C21   C     C_3   0.308772 0.398495 0.651682 -0.934983
C22   C     C_3   0.703485 0.647962 0.202637 0.086432
C23   C     C_3   0.677511 0.701664 0.267167 -0.336946
C24   C     C_R   0.945831 0.326430 0.459990 -0.012848
C25   C     C_3   0.682522 0.639060 0.362679 -0.956385
C26   C     C_R   0.449526 0.997375 0.452406 -0.031225
C27   C     C_R   0.549226 0.006543 0.547443 -0.032777
C28   C     C_R   0.973044 0.459315 0.458896 -0.034191
C29   C     C_R   0.022567 0.541859 0.541739 -0.033865
C30   C     C_R   0.451939 0.455512 0.988062 -0.031880
C31   C     C_R   0.549858 0.545485 0.007311 -0.033551
C32   C     C_R   0.962908 0.179578 0.437313 0.929805
C33   C     C_R   0.695087 0.980057 0.568208 -0.010201
C34   C     C_R   0.036619 0.820378 0.562797 0.931023
C35   C     C_R   0.179257 0.439402 0.960018 0.922653
C36   C     C_R   0.820700 0.561081 0.038866 0.893368
C37   C     C_R   0.434302 0.969272 0.179022 0.928688
C38   C     C_R   0.565174 0.032106 0.820867 0.918188
C39   C     C_R   0.569191 0.822913 0.021994 0.948775
C40   C     C_R   0.430738 0.176943 0.978294 0.921270
C41   C     C_R   0.037096 0.562471 0.820487 0.925196
C42   C     C_R   0.962225 0.437799 0.179429 0.911822
C43   C     C_R   0.833189 0.000182 0.574303 0.943882
C44   C     C_R   0.943952 0.461087 0.326386 -0.008416
C45   C     C_R   0.166391 0.000518 0.425667 0.949951
C46   C     C_R   0.399822 0.993977 0.403911 0.068248
C47   C     C_R   0.599104 0.009697 0.595808 0.069056
C48   C     C_R   0.953136 0.415987 0.415448 0.064169
C49   C     C_R   0.043266 0.584866 0.584942 0.060622
C50   C     C_R   0.404596 0.410346 0.976331 0.069851
C51   C     C_R   0.596986 0.590550 0.019456 0.069904
C52   C     C_R   0.256654 0.012429 0.384916 -0.244404
C53   C     C_R   0.742683 0.989279 0.615194 -0.250463
C54   C     C_R   0.937205 0.410943 0.279195 -0.251965
C55   C     C_R   0.052702 0.539628 0.673962 -0.004066
C56   C     C_R   0.060923 0.589371 0.720724 -0.226129
C57   C     C_R   0.394373 0.272458 0.971852 -0.241064
C58   C     C_R   0.606183 0.727673 0.026833 -0.222431
C59   C     C_R   0.605758 0.029265 0.728157 -0.222424
C60   C     C_R   0.393539 0.974173 0.271185 -0.226476
C61   C     C_R   0.721393 0.588898 0.060214 -0.271020
C62   C     C_R   0.278678 0.411021 0.938299 -0.237130
C63   C     C_R   0.060226 0.720489 0.589818 -0.234594
C64   C     C_R   0.938767 0.279438 0.409881 -0.221005
C65   C     C_R   0.457761 0.082196 0.691561 -0.230057
C66   C     C_R   0.432189 0.314488 0.000899 -0.016584
C67   C     C_R   0.541782 0.925014 0.306188 -0.233400
C68   C     C_R   0.049661 0.713375 0.447646 -0.218257
C69   C     C_R   0.946425 0.287568 0.552740 -0.218817
C70   C     C_R   0.697914 0.444119 0.081733 -0.218507
C71   C     C_R   0.302930 0.556763 0.914632 -0.222165
C72   C     C_R   0.258465 0.061818 0.503774 -0.215973
C73   C     C_R   0.740239 0.940125 0.497046 -0.216865
C74   C     C_R   0.497326 0.265214 0.051387 -0.217611
C75   C     C_R   0.503487 0.735932 0.945995 -0.221007
C76   C     C_R   0.942368 0.554375 0.288201 -0.223966
C77   C     C_R   0.569238 0.686386 0.995780 -0.024077
C78   C     C_R   0.053313 0.446563 0.712340 -0.205734
C79   C     C_R   0.299043 0.007820 0.297769 0.372591
C80   C     C_R   0.700267 0.995157 0.701746 0.376727
C81   C     C_R   0.920974 0.326662 0.326216 0.371877
C82   C     C_R   0.078979 0.672554 0.673137 0.345413
C83   C     C_R   0.322993 0.323945 0.932415 0.385266
C84   C     C_R   0.675426 0.674903 0.069094 0.376738
C85   C     C_R   0.691076 0.934957 0.450137 0.109637
C86   C     C_R   0.307644 0.068676 0.549840 0.106848
C87   C     C_R   0.028021 0.405970 0.672387 0.107578
C88   C     C_R   0.553463 0.042381 0.672019 -0.017976
C89   C     C_R   0.967119 0.595312 0.328345 0.115377
C90   C     C_R   0.454874 0.691812 0.935649 0.112342
C91   C     C_R   0.545957 0.309304 0.061506 0.109030
C92   C     C_R   0.591445 0.926769 0.354891 0.113552
C93   C     C_R   0.407676 0.079812 0.643350 0.115453
C94   C     C_R   0.353401 0.602122 0.921029 0.114880
C95   C     C_R   0.647249 0.398846 0.075958 0.113800
C96   C     C_R   0.973032 0.326721 0.592944 0.103669
C97   C     C_R   0.022257 0.674544 0.407781 0.101863
C98   C     C_R   0.736397 0.896363 0.378687 -0.207259
C99   C     C_R   0.445779 0.962391 0.326910 -0.016647
C100  C     C_R   0.262584 0.109378 0.619915 -0.209838
C101  C     C_R   0.016961 0.318281 0.717770 -0.210975
C102  C     C_R   0.977671 0.683187 0.283189 -0.205536
C103  C     C_R   0.382647 0.742034 0.895738 -0.204681
C104  C     C_R   0.616812 0.259136 0.103419 -0.201751
C105  C     C_R   0.687008 0.892815 0.331113 -0.214864
C106  C     C_R   0.312204 0.115206 0.666045 -0.219301
C107  C     C_R   0.331472 0.697662 0.889998 -0.215541
C108  C     C_R   0.667758 0.303462 0.109581 -0.218130
C109  C     C_R   0.987566 0.279908 0.679345 -0.221187
C110  C     C_R   0.673584 0.540232 0.053338 0.012284
C111  C     C_R   0.007189 0.721537 0.321571 -0.222932
C112  C     C_R   0.545332 0.964560 0.427258 0.024775
C113  C     C_R   0.453462 0.040068 0.572243 0.023734
C114  C     C_R   0.986562 0.413143 0.545903 0.029931
C115  C     C_R   0.008773 0.588135 0.454821 0.029715
C116  C     C_R   0.427383 0.551239 0.959024 0.024703
C117  C     C_R   0.574129 0.449745 0.036741 0.024800
C118  C     C_R   0.595199 0.969006 0.474779 0.023835
C119  C     C_R   0.403504 0.034894 0.525142 0.022769
C120  C     C_R   0.477036 0.596176 0.967825 0.026942
H1    H     H_    0.275778 0.146451 0.720207 0.136046
H2    H     H_    0.364180 0.815861 0.871018 0.143636
H3    H     H_    0.965469 0.721291 0.217076 0.134839
H4    H     H_    0.028911 0.280239 0.783995 0.136118
H5    H     H_    0.421290 0.115294 0.744044 0.152008
H6    H     H_    0.579543 0.894306 0.252227 0.166971
H7    H     H_    0.072308 0.772675 0.403179 0.184849
H8    H     H_    0.923952 0.228080 0.596877 0.184154
H9    H     H_    0.753199 0.404283 0.112588 0.145912
H10   H     H_    0.247478 0.596764 0.883620 0.161633
H11   H     H_    0.185149 0.091614 0.521377 0.167253
H12   H     H_    0.723829 0.864624 0.274920 0.136368
H13   H     H_    0.813417 0.909291 0.480003 0.167397
H14   H     H_    0.510863 0.192616 0.084460 0.174811
H15   H     H_    0.488926 0.808777 0.914320 0.175330
H16   H     H_    0.919391 0.598149 0.228538 0.175678
H17   H     H_    0.075559 0.402394 0.772223 0.174449
H18   H     H_    0.271450 0.153471 0.151433 0.134462
H19   H     H_    0.189077 0.160877 0.259588 0.063511
H20   H     H_    0.080277 0.126222 0.222015 0.244907
H21   H     H_    0.109018 0.229192 0.144727 0.211515
H22   H     H_    0.215950 0.149269 0.030247 0.290624
H23   H     H_    0.016398 0.788801 0.284625 0.135880
H24   H     H_    0.103947 0.137438 0.064117 0.205622
H25   H     H_    0.192724 0.042900 0.107844 0.269811
H26   H     H_    0.831756 0.843584 0.741473 0.116598
H27   H     H_    0.721584 0.846819 0.825472 0.075271
H28   H     H_    0.774536 0.883109 0.922825 0.243755
H29   H     H_    0.837176 0.773525 0.904846 0.206849
H30   H     H_    0.963745 0.834376 0.787898 0.296887
H31   H     H_    0.939315 0.853979 0.893298 0.207947
H32   H     H_    0.901052 0.947024 0.800371 0.269542
H33   H     H_    0.800878 0.300676 0.236391 0.153924
H34   H     H_    0.978219 0.212699 0.716328 0.135334
H35   H     H_    0.779514 0.390445 0.278824 0.097162
H36   H     H_    0.784887 0.189111 0.393075 0.260273
H37   H     H_    0.756668 0.279776 0.438591 0.206893
H38   H     H_    0.621761 0.363473 0.375880 0.262066
H39   H     H_    0.617293 0.250835 0.452045 0.272643
H40   H     H_    0.649916 0.271948 0.330802 0.266615
H41   H     H_    0.214440 0.728222 0.599398 0.126809
H42   H     H_    0.237048 0.642255 0.703777 0.125921
H43   H     H_    0.165324 0.850829 0.668957 0.255074
H44   H     H_    0.187849 0.766759 0.772349 0.200423
H45   H     H_    0.722953 0.263155 0.140958 0.136626
H46   H     H_    0.353293 0.714377 0.686981 0.265725
H47   H     H_    0.316761 0.834016 0.676676 0.269121
H48   H     H_    0.329129 0.800116 0.583225 0.274224
H49   H     H_    0.315680 0.246697 0.791654 0.156166
H50   H     H_    0.403473 0.282612 0.788874 0.109739
H51   H     H_    0.209922 0.411871 0.779394 0.231096
H52   H     H_    0.309913 0.443788 0.753177 0.198853
H53   H     H_    0.383923 0.380141 0.621396 0.265288
H54   H     H_    0.277925 0.469063 0.612446 0.265986
H55   H     H_    0.281284 0.351408 0.646864 0.267966
H56   H     H_    0.274501 0.738348 0.861680 0.145836
H57   H     H_    0.773787 0.601191 0.200013 0.139002
H58   H     H_    0.655109 0.606282 0.231490 0.119693
H59   H     H_    0.724203 0.744136 0.240128 0.218025
H60   H     H_    0.606456 0.746383 0.271143 0.219392
H61   H     H_    0.633712 0.598368 0.392051 0.262539
H62   H     H_    0.664550 0.680840 0.407023 0.277102
H63   H     H_    0.752400 0.592077 0.361135 0.270287
H64   H     H_    0.188899 0.136460 0.639273 0.147684
H65   H     H_    0.810133 0.869872 0.358882 0.147212
H66   H     H_    0.634029 0.185415 0.129859 0.144529
O1    O     O_R   0.982940 0.138950 0.510160 -0.673539
O2    O     O_R   0.982940 0.510160 0.138950 -0.644545
O3    O     O_R   0.861050 0.017060 0.489840 -0.656144
O4    O     O_R   0.138950 0.982940 0.510160 -0.656452
O5    O     O_R   0.867700 0.025880 0.612340 -0.574386
O6    O     O_R   0.132300 0.974120 0.387660 -0.575786
O7    O     O_R   0.025880 0.612340 0.867700 -0.575572
O8    O     O_R   0.974120 0.387660 0.132300 -0.593493
O9    O     O_R   0.612340 0.867700 0.025880 -0.597479
O10   O     O_R   0.387660 0.132300 0.974120 -0.601461
O11   O     O_R   0.387660 0.974120 0.132300 -0.564055
O12   O     O_R   0.017060 0.861050 0.489840 -0.670159
O13   O     O_R   0.612340 0.025880 0.867700 -0.568418
O14   O     O_R   0.132300 0.387660 0.974120 -0.584197
O15   O     O_R   0.867700 0.612340 0.025880 -0.609161
O16   O     O_R   0.974120 0.132300 0.387660 -0.596196
O17   O     O_R   0.025880 0.867700 0.612340 -0.604092
O18   O     O_3   0.246610 0.030735 0.240867 -0.579036
O19   O     O_3   0.752423 0.971187 0.759224 -0.577526
O20   O     O_3   0.902549 0.283394 0.284239 -0.618226
O21   O     O_3   0.100827 0.713347 0.714741 -0.626059
O22   O     O_3   0.286583 0.285192 0.902009 -0.625056
O23   O     O_R   0.138950 0.510160 0.982940 -0.633748
O24   O     O_3   0.700528 0.709572 0.114351 -0.616454
O25   O     O_R   0.861050 0.489840 0.017060 -0.627494
O26   O     O_R   0.510160 0.982940 0.138950 -0.658090
O27   O     O_R   0.489840 0.017060 0.861050 -0.658379
O28   O     O_R   0.489840 0.861050 0.017060 -0.648208
O29   O     O_R   0.510160 0.138950 0.982940 -0.645223
O30   O     O_R   0.017060 0.489840 0.861050 -0.654259
Zn1   Zn    Zn3+2 0.004880 0.004880 0.583590 0.903503
Zn2   Zn    Zn3+2 0.995120 0.995120 0.416410 0.925712
Zn3   Zn    Zn3+2 0.004880 0.583590 0.004880 0.942003
Zn4   Zn    Zn3+2 0.995120 0.416410 0.995120 0.942759
Zn5   Zn    Zn3+2 0.583590 0.004880 0.004880 0.948349
Zn6   Zn    Zn3+2 0.416410 0.995120 0.995120 0.938951

loop_
_geom_bond_atom_site_label_1
_geom_bond_atom_site_label_2
_ccdc_geom_bond_type
C78   C87   A    
C44   C48   A    
C62   C83   A    
C78   H17   S    
C60   C79   A    
C89   C102  A    
C8    H25   S    
C19   H50   S    
O6    Zn2   S    
C91   C104  A    
C22   H58   S    
C60   C99   A    
O5    Zn1   S    
C76   H16   S    
C7    C8    S    
C37   O26   A    
C71   C94   A    
C30   C116  A    
C95   C117  A    
C6    O18   S    
O25   Zn4   S    
C98   C105  A    
C72   H11   S    
C33   C73   A    
C4    C114  A    
C98   H65   S    
C32   O1    A    
C10   H29   S    
C7    H21   S    
C7    H20   S    
C97   C111  A    
C84   O24   S    
C1    C46   A    
O2    Zn3   S    
C42   O8    A    
C107  H56   S    
C42   O2    A    
C66   C74   A    
C22   O24   S    
C9    H26   S    
C106  H1    S    
C3    C91   A    
C31   C120  A    
C6    H19   S    
C44   C76   A    
C59   C88   A    
C31   C117  A    
C41   O7    A    
C85   C98   A    
C70   C110  A    
C75   C90   A    
C87   C101  A    
C16   O21   S    
C43   C53   S    
C19   C20   S    
C69   H8    S    
C16   C17   S    
C21   H55   S    
C24   C69   A    
C57   C83   A    
C86   C119  A    
O13   Zn5   S    
C37   O11   A    
C97   C115  A    
C52   C79   A    
C2    C50   A    
C9    C10   S    
C12   H33   S    
C23   H59   S    
C4    C29   A    
C58   C77   A    
C67   C99   A    
C76   C89   A    
C69   C96   A    
C65   C93   A    
C80   O19   S    
C29   C115  A    
C101  C109  A    
C43   O5    A    
C24   C64   A    
C113  C119  A    
C5    C115  A    
C33   C53   A    
C96   C114  A    
C102  C111  A    
O12   Zn2   S    
C22   H57   S    
C61   C110  A    
O29   Zn5   S    
C82   O21   S    
C25   H61   S    
C35   O14   A    
C105  H12   S    
O26   Zn5   S    
C22   C23   S    
C18   H46   S    
C64   C81   A    
C45   O6    A    
C94   C107  A    
C1    C72   A    
O17   Zn1   S    
C63   C82   A    
C101  H4    S    
O30   Zn4   S    
C53   C80   A    
C26   C119  A    
C32   C64   S    
C15   H38   S    
O11   Zn6   S    
C10   C11   S    
C67   H6    S    
O9    Zn5   S    
C41   O30   A    
C18   H48   S    
C92   C112  A    
O8    Zn4   S    
C14   H37   S    
C45   C52   S    
C16   H42   S    
C49   C55   A    
C39   C58   S    
C39   O9    A    
C9    H27   S    
C70   H9    S    
C116  C120  A    
C4    C87   A    
C24   C48   A    
C74   C91   A    
C6    H18   S    
C3    C30   A    
C51   C77   A    
C41   C56   S    
C15   H39   S    
C83   O22   S    
C17   H44   S    
C58   C84   A    
C93   C106  A    
C5    C28   A    
O28   Zn6   S    
O27   Zn6   S    
C34   O12   A    
C11   H30   S    
C13   C63   A    
C34   O17   A    
C73   C85   A    
C55   C56   A    
C17   C18   S    
C68   C97   A    
C8    H24   S    
C93   C113  A    
C29   C49   A    
O23   Zn3   S    
C109  H34   S    
C75   C77   A    
C68   H7    S    
O15   Zn3   S    
C23   H60   S    
C28   C114  A    
C3    C117  A    
C13   C49   A    
C27   C113  A    
C11   H31   S    
C20   H52   S    
C12   C14   S    
C21   H54   S    
C51   C110  A    
C21   H53   S    
C19   O22   S    
C33   C47   A    
C36   O15   A    
C38   O27   A    
C102  H3    S    
O4    Zn1   S    
C26   C112  A    
C104  C108  A    
C86   C100  A    
C25   H62   S    
C65   C88   A    
C40   O10   A    
C27   C118  A    
C27   C47   A    
C11   H32   S    
C55   C78   A    
C90   C120  A    
C28   C48   A    
C94   C116  A    
C40   C57   S    
C39   O28   A    
C14   H36   S    
C14   C15   S    
C67   C92   A    
O7    Zn3   S    
O3    Zn2   S    
C19   H49   S    
C31   C51   A    
C61   C84   A    
C25   H63   S    
C59   C80   A    
C72   C86   A    
C18   H47   S    
C50   C66   A    
C56   C82   A    
C6    C7    S    
C111  H23   S    
C16   H41   S    
C104  H66   S    
C96   C109  A    
C100  C106  A    
C47   C88   A    
O16   Zn2   S    
C46   C99   A    
C70   C95   A    
C35   O23   A    
C15   H40   S    
C57   C66   A    
C9    O19   S    
C42   C54   S    
C71   H10   S    
C112  C118  A    
C30   C50   A    
C108  H45   S    
C17   H43   S    
C45   O4    A    
O14   Zn4   S    
C74   H14   S    
C40   O29   A    
C34   C63   S    
C35   C62   S    
C75   H15   S    
C23   C25   S    
C36   C61   S    
C32   O16   A    
C85   C118  A    
C100  H64   S    
C1    C52   A    
O10   Zn6   S    
C90   C103  A    
C37   C60   S    
C12   O20   S    
C95   C108  A    
C26   C46   A    
C36   O25   A    
O1    Zn1   S    
C38   C59   S    
C44   C54   A    
C92   C105  A    
C20   H51   S    
C20   C21   S    
C43   O3    A    
C79   O18   S    
C73   H13   S    
C10   H28   S    
C38   O13   A    
C103  C107  A    
C12   H35   S    
C8    H22   S    
C103  H2    S    
C2    C62   A    
C54   C81   A    
C5    C89   A    
C2    C71   A    
C65   H5    S    
C81   O20   S    
C13   C68   A    
