data_mof_unit_2553.cif
_audit_creation_date              2012-12-11T18:07:16-0500
_audit_creation_method            fapswitch 2.2
_symmetry_space_group_name_H-M    P1
_symmetry_Int_Tables_number       1
_space_group_crystal_system       triclinic
_cell_length_a                    8.198554
_cell_length_b                    12.725943
_cell_length_c                    26.9661
_cell_angle_alpha                 96.835339
_cell_angle_beta                  92.30589
_cell_angle_gamma                 81.347523
_cell_volume                      2760.98514753

loop_
_atom_site_label
_atom_site_type_symbol
_atom_type_description
_atom_site_fract_x
_atom_site_fract_y
_atom_site_fract_z
_atom_type_partial_charge
Ba1   Ba    Ba6+2 0.859560 0.448380 0.523550 1.685396
Ba2   Ba    Ba6+2 0.330270 0.551530 0.476440 1.676819
C1    C     C_3   0.675415 0.082464 0.666150 -0.379443
C2    C     C_R   0.912239 0.600345 0.181807 0.578073
C3    C     C_2   0.741486 0.530432 0.270010 -0.017227
C4    C     C_3   0.236654 0.149322 0.656003 0.269115
C5    C     C_3   0.696580 0.520863 0.323292 0.000099
C6    C     C_1   0.986932 0.478574 0.342906 0.035190
C7    C     C_2   0.029664 0.474884 0.295471 -0.107097
C8    C     C_2   0.901287 0.505198 0.256068 0.192822
C9    C     C_R   0.042699 0.510765 0.104967 -0.076974
C10   C     C_R   0.072886 0.415222 0.127616 -0.041780
C11   C     C_R   0.149118 0.322027 0.099752 -0.045060
C12   C     C_3   0.664708 0.185360 0.641956 0.311931
C13   C     C_R   0.963191 0.604135 0.132539 -0.030512
C14   C     C_2   0.843244 0.529489 0.358197 -0.327103
C15   C     C_2   0.341906 0.480413 0.645395 -0.342695
C16   C     C_3   0.196087 0.134186 0.709311 -0.194251
C17   C     C_R   0.197877 0.417652 0.974664 0.020769
C18   C     C_R   0.125064 0.613884 0.984009 0.020357
C19   C     C_R   0.182751 0.516680 0.954172 0.053513
C20   C     C_R   0.248887 0.322833 0.942671 -0.094736
C21   C     C_R   0.285208 0.325418 0.892772 -0.067160
C22   C     C_R   0.273290 0.422550 0.872309 -0.029719
C23   C     C_3   0.478125 0.725857 0.628694 0.286182
C24   C     C_R   0.225667 0.518597 0.903308 -0.076912
C25   C     C_R   0.223326 0.616614 0.883655 -0.032919
C26   C     C_R   0.266787 0.617040 0.833343 0.721913
C27   C     C_R   0.306252 0.425618 0.821338 0.576374
C28   C     C_3   0.214459 0.223662 0.418375 0.300606
C29   C     C_2   0.471335 0.496557 0.729914 -0.076385
C30   C     C_3   0.499652 0.495419 0.674768 -0.024748
C31   C     C_1   0.201868 0.535710 0.662337 -0.008467
C32   C     C_2   0.173601 0.551309 0.712166 0.284208
C33   C     C_2   0.317706 0.523550 0.748301 0.156272
C34   C     C_3   0.437442 0.773669 0.681995 -0.301847
C35   C     C_R   0.160771 0.416556 0.026033 0.018311
C36   C     C_R   0.091008 0.512808 0.054605 0.052561
C37   C     C_R   0.068713 0.611075 0.033299 0.019716
C38   C     C_R   0.191113 0.322335 0.050140 -0.095423
C39   C     C_R   0.935465 0.699447 0.110220 -0.052621
C40   C     C_3   0.221106 0.103313 0.407184 -0.323506
C41   C     C_R   0.127334 0.710938 0.963429 -0.093408
C42   C     C_R   0.177055 0.712094 0.914634 -0.034944
C43   C     C_R   0.987920 0.703187 0.061980 -0.095092
C44   C     C_R   0.757039 0.820656 0.478079 -0.285922
C45   C     C_3   0.040652 0.784482 0.338497 0.288542
C46   C     C_R   0.434309 0.189544 0.521603 -0.285910
C47   C     C_R   0.410179 0.010348 0.537224 -0.100751
C48   C     C_R   0.347743 0.118359 0.540993 -0.025423
C49   C     C_R   0.577137 0.152836 0.494572 0.068324
C50   C     C_R   0.639599 0.041525 0.488305 -0.059742
C51   C     C_R   0.555330 0.970044 0.510819 -0.055471
C52   C     C_3   0.984658 0.775610 0.578570 0.283185
C53   C     C_R   0.616530 0.859644 0.505396 0.049799
C54   C     C_R   0.845206 0.889658 0.458033 -0.006648
C55   C     C_R   0.784416 0.999056 0.461307 -0.090600
C56   C     C_3   0.082013 0.808221 0.286905 -0.295560
C57   C     C_3   0.995437 0.894250 0.588703 -0.330617
C58   C     C_3   0.713928 0.297017 0.373594 0.298659
C59   C     C_3   0.761230 0.250406 0.320310 0.341929
C60   C     C_3   0.061847 0.222947 0.730925 -0.157516
C61   C     C_3   0.012566 0.204022 0.782679 -0.387084
C62   C     C_3   0.543930 0.817082 0.359898 0.293680
C63   C     C_3   0.566932 0.916850 0.336643 -0.308912
C64   C     C_R   0.026526 0.414786 0.177692 0.607458
H1    H     H_    0.774383 0.178807 0.618236 0.102668
H2    H     H_    0.823756 0.324783 0.392926 -0.068273
H3    H     H_    0.612794 0.365492 0.373138 0.048342
H4    H     H_    0.654201 0.015513 0.637426 0.088312
H5    H     H_    0.844041 0.172971 0.321133 0.042747
H6    H     H_    0.829497 0.304975 0.303127 -0.035495
H7    H     H_    0.550629 0.194880 0.618517 -0.040660
H8    H     H_    0.581089 0.090867 0.695247 0.133161
H9    H     H_    0.364869 0.699469 0.610613 0.008133
H10   H     H_    0.577540 0.656421 0.629272 0.058192
H11   H     H_    0.341551 0.845276 0.681603 0.116848
H12   H     H_    0.294048 0.073902 0.373357 0.150238
H13   H     H_    0.389587 0.714787 0.702496 0.089948
H14   H     H_    0.549832 0.797509 0.701846 0.168510
H15   H     H_    0.798880 0.064110 0.684207 0.129772
H16   H     H_    0.309561 0.135020 0.733232 0.116458
H17   H     H_    0.109562 0.705499 0.344942 0.094922
H18   H     H_    0.906658 0.780949 0.339527 -0.025669
H19   H     H_    0.209558 0.827602 0.287000 0.152512
H20   H     H_    0.074316 0.737009 0.259467 0.117106
H21   H     H_    0.994573 0.877158 0.275590 0.133893
H22   H     H_    0.661337 0.788109 0.379174 -0.046981
H23   H     H_    0.279308 0.062663 0.438883 0.073889
H24   H     H_    0.443572 0.838529 0.387463 0.083455
H25   H     H_    0.670383 0.898513 0.310194 0.144927
H26   H     H_    0.594781 0.980452 0.366270 0.083619
H27   H     H_    0.275815 0.229499 0.656081 0.014637
H28   H     H_    0.452800 0.946182 0.315846 0.158925
H29   H     H_    0.156774 0.449669 0.284871 0.148840
H30   H     H_    0.175934 0.247494 0.116194 0.136540
H31   H     H_    0.576151 0.479251 0.755116 0.114948
H32   H     H_    0.323266 0.250167 0.870158 0.114158
H33   H     H_    0.257990 0.244393 0.954694 0.072494
H34   H     H_    0.094286 0.083380 0.400516 0.126246
H35   H     H_    0.250936 0.247292 0.031959 0.074751
H36   H     H_    0.644430 0.549252 0.242486 0.111624
H37   H     H_    0.873323 0.772463 0.130216 0.133708
H38   H     H_    0.095117 0.788054 0.984661 0.072389
H39   H     H_    0.338819 0.085447 0.643315 -0.015692
H40   H     H_    0.176130 0.788814 0.900901 0.125703
H41   H     H_    0.958662 0.779365 0.047552 0.077674
H42   H     H_    0.834078 0.582570 0.392953 0.070677
H43   H     H_    0.340538 0.415524 0.615343 0.069964
H44   H     H_    0.340136 0.958826 0.553624 0.099525
H45   H     H_    0.856489 0.764108 0.569180 -0.005892
H46   H     H_    0.853869 0.049206 0.443736 0.106377
H47   H     H_    0.804629 0.736153 0.475410 0.059051
H48   H     H_    0.384204 0.273651 0.524755 0.064754
H49   H     H_    0.154462 0.054853 0.709109 0.117054
H50   H     H_    0.340340 0.242518 0.426486 0.014662
H51   H     H_    0.136023 0.251091 0.451378 0.056185
H52   H     H_    0.399745 0.332174 0.243169 0.369670
H53   H     H_    0.928911 0.504345 0.779477 0.317721
H54   H     H_    0.956230 0.129421 0.780372 0.146808
H55   H     H_    0.121934 0.197113 0.808268 0.154103
H56   H     H_    0.064583 0.742054 0.546639 0.075284
H57   H     H_    0.920916 0.272195 0.798102 0.135264
H58   H     H_    0.105641 0.301855 0.732994 0.148893
H59   H     H_    0.951319 0.225154 0.706089 0.183720
H60   H     H_    0.924400 0.929158 0.622191 0.127975
H61   H     H_    0.945186 0.935913 0.556451 0.089500
H62   H     H_    0.125914 0.906190 0.595841 0.115266
N1    N     N_R   0.947377 0.506880 0.204385 -0.426592
N2    N     N_R   0.294635 0.522373 0.801732 -0.414142
O1    O     O_2   0.907040 0.557650 0.617910 -0.413246
O2    O     O_2   0.182950 0.883712 0.466989 -0.481296
O3    O     O_3   0.086024 0.865155 0.374117 -0.610891
O4    O     O_3   0.139040 0.557570 0.557730 -0.510914
O5    O     O_3   0.571310 0.369620 0.475470 -0.489169
O6    O     O_2   0.348200 0.764910 0.523260 -0.471640
O7    O     O_3   0.533128 0.804142 0.604055 -0.648998
O8    O     O_2   0.353701 0.575642 0.326688 -0.476205
O9    O     O_3   0.501401 0.739611 0.322076 -0.596092
O10   O     O_2   0.054479 0.331864 0.197243 -0.566833
O11   O     O_2   0.345891 0.342099 0.794459 -0.611925
O12   O     O_3   0.662075 0.216762 0.397438 -0.633048
O13   O     O_2   0.837257 0.680614 0.204679 -0.600563
O14   O     O_2   0.279330 0.701591 0.817685 -0.539618
O15   O     O_3   0.684960 0.360550 0.588460 -0.492186
O16   O     O_2   0.843113 0.416607 0.672419 -0.457167
O17   O     O_3   0.032143 0.729332 0.622287 -0.593150
O18   O     O_3   0.659518 0.271689 0.679642 -0.607601
O19   O     O_2   0.841490 0.235060 0.476710 -0.473666
O20   O     O_3   0.099640 0.305100 0.564190 -0.474643
O21   O     O_2   0.011557 0.117522 0.530910 -0.484198
O22   O     O_2   0.639804 0.167979 0.232915 -0.268240
O23   O     O_3   0.097755 0.139147 0.624744 -0.607965
O24   O     O_2   0.475362 0.167703 0.306874 -0.280830
O25   O     O_3   0.476885 0.348672 0.271242 -0.548680
O26   O     O_2   0.022302 0.741689 0.752373 -0.229989
O27   O     O_2   0.839955 0.632365 0.704940 -0.291760
O28   O     O_3   0.944065 0.579367 0.790637 -0.516565
O29   O     O_2   0.282660 0.442310 0.382060 -0.435707
O30   O     O_3   0.050670 0.442340 0.442260 -0.503435
O31   O     O_3   0.504750 0.639360 0.411530 -0.483833
O32   O     O_3   0.150879 0.270737 0.376080 -0.604985
O33   O     O_3   0.618400 0.630290 0.524520 -0.479928
O34   O     O_3   0.090070 0.694820 0.435810 -0.496463
P1    P     P_3+3 0.072810 0.589830 0.610360 1.064306
P2    P     P_3+3 0.661990 0.251250 0.462170 0.979531
P3    P     P_3+3 0.141331 0.167366 0.565267 0.944097
P4    P     P_3+3 0.116900 0.410080 0.389630 1.026313
P5    P     P_3+3 0.050303 0.833808 0.433760 0.933729
P6    P     P_3+3 0.672301 0.389335 0.653183 0.999049
P7    P     P_3+3 0.533272 0.764844 0.539690 0.937218
P8    P     P_3+3 0.514743 0.616816 0.346269 0.993382
S1    S     S_3+6 0.583784 0.229720 0.281787 -0.055321
S2    S     S_3+6 0.989915 0.628707 0.738607 -0.035836

loop_
_geom_bond_atom_site_label_1
_geom_bond_atom_site_label_2
_ccdc_geom_bond_type
C63   H26   S    
C19   C24   A    
Ba1   O20   S    
C54   P5    S    
Ba1   O15   S    
C62   H24   S    
C56   H21   S    
C2    O13   D    
O17   P1    S    
C28   H50   S    
O29   P4    D    
C57   H60   S    
O26   S2    D    
C24   C25   A    
Ba2   O4    S    
Ba1   P2    S    
C17   C19   A    
C22   C24   A    
C32   C33   S    
C35   C38   A    
C34   H11   S    
C36   C37   A    
O21   P3    D    
C55   H46   S    
C57   H61   S    
C12   O18   S    
C54   C55   A    
Ba1   Ba2   S    
C1    H8    S    
O3    P5    S    
C41   H38   S    
C11   C38   A    
C17   C35   A    
C58   O12   S    
C38   H35   S    
O15   P6    S    
O31   P8    S    
C9    C13   A    
C25   C42   A    
O28   S2    S    
C46   C49   A    
C29   C30   S    
Ba2   O29   S    
C52   O17   S    
C44   C53   A    
C1    H15   S    
O18   P6    S    
C21   C22   A    
Ba1   O19   S    
C26   O14   D    
C45   H17   S    
C6    P4    S    
C7    C8    S    
C7    H29   S    
O24   S1    D    
O27   S2    D    
C37   C43   A    
C64   N1    Am   
O25   S1    S    
C46   C48   A    
C52   H56   S    
C6    C14   D    
C5    P8    S    
O23   P3    S    
O34   P5    S    
C15   C31   D    
C56   H20   S    
Ba2   O31   S    
C53   P7    S    
C61   H55   S    
C52   C57   S    
C51   C53   A    
C4    C16   S    
O1    P1    D    
C4    H39   S    
O19   P2    D    
C11   H30   S    
O8    P8    D    
C49   C50   A    
C12   H7    S    
H52   O25   S    
C1    H4    S    
C59   S1    S    
C13   C39   A    
C34   H14   S    
Ba2   O34   S    
C3    C5    S    
C18   C37   A    
C6    C7    D    
C57   H62   S    
C10   C64   A    
Ba2   O6    S    
C39   H37   S    
C58   C59   S    
C23   H9    S    
Ba2   O33   S    
C9    C36   A    
C23   O7    S    
C41   C42   A    
C35   C36   A    
C32   S2    S    
C40   H34   S    
O12   P2    S    
C27   N2    Am   
O6    P7    D    
Ba1   P1    S    
C12   H1    S    
C4    H27   S    
C27   O11   D    
C17   C20   A    
C60   C61   S    
C31   C32   D    
O4    P1    S    
O9    P8    S    
C45   H18   S    
C18   C19   A    
C33   N2    S    
C58   H2    S    
C1    C12   S    
O32   P4    S    
O22   S1    D    
C59   H6    S    
C63   H28   S    
C40   H12   S    
O16   P6    D    
C29   C33   D    
O2    P5    D    
C28   O32   S    
Ba1   O4    S    
C56   H19   S    
Ba2   P4    S    
C25   C26   A    
C18   C41   A    
O33   P7    S    
C50   C51   A    
C46   H48   S    
C63   H25   S    
C30   P6    S    
C3    H36   S    
C5    C14   S    
C20   H33   S    
C44   H47   S    
Ba1   O30   S    
C31   P1    S    
C60   H58   S    
Ba1   O1    S    
C34   H13   S    
C15   H43   S    
C16   H49   S    
C60   H59   S    
C61   H57   S    
C9    C10   A    
C2    N1    Am   
C28   H51   S    
C42   H40   S    
Ba2   O5    S    
C40   H23   S    
C62   C63   S    
C23   H10   S    
C2    C13   A    
C8    N1    S    
C3    C8    D    
C45   C56   S    
C61   H54   S    
C59   H5    S    
C58   H3    S    
H53   O28   S    
C47   C51   A    
O20   P3    S    
C16   H16   S    
O5    P2    S    
C52   H45   S    
C26   N2    Am   
C29   H31   S    
O30   P4    S    
O7    P7    S    
C4    O23   S    
C50   C55   A    
C14   H42   S    
C23   C34   S    
C22   C27   A    
C21   H32   S    
C64   O10   D    
C10   C11   A    
Ba1   O33   S    
Ba2   O30   S    
C47   C48   A    
C44   C54   A    
C48   P3    S    
C15   C30   S    
C39   C43   A    
C20   C21   A    
C28   C40   S    
C49   P2    S    
C16   C60   S    
Ba1   O5    S    
C62   H22   S    
C45   O3    S    
C43   H41   S    
C47   H44   S    
C62   O9    S    
