data_mof_unit_1402.cif
_audit_creation_date              2013-03-05T16:45:43-0500
_audit_creation_method            fapswitch 2.2
_symmetry_space_group_name_H-M    P1
_symmetry_Int_Tables_number       1
_space_group_crystal_system       triclinic
_cell_length_a                    17.383003
_cell_length_b                    10.737307
_cell_length_c                    9.937929
_cell_angle_alpha                 86.155093
_cell_angle_beta                  90.971779
_cell_angle_gamma                 89.770635
_cell_volume                      1850.41536881

loop_
_atom_site_label
_atom_site_type_symbol
_atom_site_description
_atom_site_fract_x
_atom_site_fract_y
_atom_site_fract_z
_atom_type_partial_charge
O1    O     O_R   0.500010 0.316790 0.614690 -0.586428
O2    O     O_R   0.500000 0.316760 0.385350 -0.625661
C1    C     C_R   0.500444 0.259290 0.505155 0.947313
O3    O     O_R   0.389120 0.500020 0.614710 -0.583665
O4    O     O_R   0.389110 0.499990 0.385370 -0.594520
C2    C     C_R   0.352850 0.495485 0.498472 0.907518
Zn1   Zn    Zn3+2 0.500010 0.500020 0.653130 1.013805
Zn2   Zn    Zn3+2 0.499990 0.499980 0.346870 1.067720
O5    O     O_R   0.500000 0.683240 0.614650 -0.653757
O6    O     O_R   0.499990 0.683210 0.385310 -0.589700
O7    O     O_R   0.610890 0.500010 0.614630 -0.588209
O8    O     O_R   0.610880 0.499980 0.385290 -0.549668
C3    C     C_R   0.494957 0.739529 0.495032 0.883115
C4    C     C_R   0.646935 0.499111 0.501472 1.000098
C5    C     C_R   0.846588 0.393067 0.611756 -0.190233
H1    H     H_    0.875465 0.341742 0.695881 0.176775
C6    C     C_R   0.768113 0.417978 0.617000 0.303880
C7    C     C_R   0.730809 0.484956 0.505573 -0.274146
C8    C     C_R   0.774428 0.529594 0.393213 0.304975
C9    C     C_R   0.852232 0.499245 0.389470 -0.190620
H2    H     H_    0.886102 0.532363 0.303771 0.178038
C10   C     C_R   0.887335 0.430754 0.497424 0.019963
C11   C     C_1   0.967125 0.407144 0.492936 -0.011271
C12   C     C_1   0.034904 0.396373 0.483686 0.028045
C13   C     C_R   0.158279 0.363151 0.586793 -0.336682
H3    H     H_    0.130306 0.310408 0.668544 0.172647
C14   C     C_R   0.233736 0.405248 0.602590 0.481951
C15   C     C_R   0.269618 0.468968 0.491857 -0.356112
C16   C     C_R   0.227392 0.494942 0.369095 0.173099
C17   C     C_R   0.150006 0.459286 0.357484 0.408531
C18   C     C_R   0.115725 0.396896 0.470398 -0.104328
C19   C     C_R   0.438448 0.060071 0.561895 -0.046331
C20   C     C_R   0.504567 0.125052 0.517620 -0.252472
C21   C     C_R   0.561690 0.063659 0.445547 0.338130
C22   C     C_R   0.553572 0.936708 0.428364 -0.181999
H4    H     H_    0.599631 0.885887 0.384021 0.221312
C23   C     C_R   0.490323 0.872328 0.480660 -0.168817
C24   C     C_R   0.428882 0.936770 0.532078 -0.070298
C25   C     C_3   0.383611 0.900669 0.653268 0.220567
C26   C     C_3   0.408310 0.025551 0.703273 0.359253
H5    H     H_    0.403080 0.818488 0.719122 0.070080
H6    H     H_    0.456293 0.019711 0.779545 0.047256
C27   C     C_R   0.449035 0.426745 0.072954 0.157404
N1    N     N_R   0.499490 0.499140 0.142800 -0.120366
C28   C     C_R   0.544980 0.579857 0.067451 -0.016323
H7    H     H_    0.582474 0.642828 0.117714 0.195510
C29   C     C_R   0.544920 0.579913 0.923942 -0.053299
H8    H     H_    0.582555 0.642844 0.866966 0.165002
N2    N     N_R   0.499490 0.499180 0.857150 -0.104665
C30   C     C_R   0.450471 0.427934 0.930911 0.095130
C31   C     C_3   0.445315 0.293976 0.920985 -0.478022
C32   C     C_3   0.441968 0.284343 0.073277 0.570115
H9    H     H_    0.391579 0.275686 0.866105 0.241969
H10   H     H_    0.497985 0.253407 0.878769 0.230729
O9    O     O_3   0.303557 0.907938 0.626970 -0.620939
C33   C     C_3   0.273070 0.811635 0.554841 0.071007
H11   H     H_    0.289698 0.719208 0.602925 0.126390
H12   H     H_    0.293706 0.820451 0.449655 0.198814
C34   C     C_3   0.185389 0.831401 0.555737 -0.367235
H13   H     H_    0.164954 0.819393 0.661069 0.220393
H14   H     H_    0.171635 0.928724 0.518071 0.242626
C35   C     C_3   0.139999 0.744928 0.470086 -0.849437
H15   H     H_    0.161261 0.749705 0.365402 0.307254
H16   H     H_    0.078503 0.773519 0.466641 0.265172
H17   H     H_    0.143348 0.648994 0.516925 0.250333
O10   O     O_3   0.343916 0.097720 0.739087 -0.585981
C36   C     C_3   0.322233 0.066183 0.875264 0.128390
H18   H     H_    0.289951 0.147346 0.909557 0.198271
H19   H     H_    0.372931 0.051001 0.944514 0.168039
C37   C     C_3   0.268144 0.953212 0.891503 -0.345050
H20   H     H_    0.219497 0.965354 0.817863 0.257977
H21   H     H_    0.300091 0.866062 0.875275 0.236678
C38   C     C_3   0.235143 0.937771 0.032699 -0.918668
H22   H     H_    0.282064 0.935672 0.110144 0.294941
H23   H     H_    0.203224 0.848611 0.045013 0.292578
H24   H     H_    0.194249 0.014903 0.047749 0.247280
O11   O     O_3   0.368500 0.236861 0.108417 -0.691555
C39   C     C_3   0.359667 0.215493 0.247881 0.146151
H25   H     H_    0.375851 0.298436 0.300363 0.179739
H26   H     H_    0.393481 0.132183 0.286138 0.188754
C40   C     C_3   0.275033 0.193520 0.274875 -0.462385
H27   H     H_    0.244372 0.282768 0.256923 0.244715
H28   H     H_    0.250965 0.127632 0.204983 0.248432
C41   C     C_3   0.262066 0.142559 0.418246 -0.857348
H29   H     H_    0.284037 0.046085 0.427625 0.305790
H30   H     H_    0.199642 0.142458 0.439735 0.257471
H31   H     H_    0.292998 0.198797 0.491250 0.297647
N3    N     N_R   0.727589 0.371392 0.734471 0.227398
O12   O     O_R   0.674794 0.286859 0.724205 -0.320467
O13   O     O_R   0.754060 0.393741 0.853661 -0.337577
N4    N     N_R   0.507491 0.210640 0.130893 0.187124
O14   O     O_R   0.504463 0.089463 0.132552 -0.400053
O15   O     O_R   0.574599 0.262796 0.141400 -0.306319
N5    N     N_R   0.741558 0.609329 0.285033 0.221538
O16   O     O_R   0.699056 0.704311 0.311719 -0.412392
O17   O     O_R   0.763719 0.599321 0.161774 -0.343478
O18   O     O_3   0.274332 0.382201 0.723670 -0.616178
C42   C     C_3   0.233704 0.424851 0.834745 0.098583
H32   H     H_    0.268635 0.399748 0.926928 0.209013
H33   H     H_    0.178846 0.374356 0.850402 0.132402
C43   C     C_3   0.221543 0.567616 0.824636 -0.366350
H34   H     H_    0.275320 0.614867 0.854777 0.235071
H35   H     H_    0.206689 0.600430 0.720147 0.212501
C44   C     C_3   0.154932 0.607617 0.909818 -0.861626
H36   H     H_    0.101248 0.559752 0.880672 0.249084
H37   H     H_    0.145515 0.709711 0.892446 0.250186
H38   H     H_    0.167553 0.586201 0.018064 0.334960
N6    N     N_R   0.261888 0.560762 0.255210 0.246310
O19   O     O_R   0.280122 0.500475 0.151253 -0.454019
O20   O     O_R   0.285786 0.674645 0.262948 -0.442352
O21   O     O_3   0.107842 0.512026 0.246970 -0.639776
C45   C     C_3   0.060220 0.427533 0.179801 0.121601
H39   H     H_    0.035666 0.481120 0.089625 0.182452
H40   H     H_    0.009416 0.397539 0.238253 0.149641
C46   C     C_3   0.103182 0.314063 0.131919 -0.448298
H41   H     H_    0.158291 0.344537 0.086429 0.247368
H42   H     H_    0.114731 0.246525 0.219511 0.223281
C47   C     C_3   0.055726 0.248307 0.027463 -0.907754
H43   H     H_    0.000467 0.215350 0.071291 0.290895
H44   H     H_    0.088237 0.166595 0.995254 0.260214
H45   H     H_    0.043669 0.312587 0.937200 0.256397
N7    N     N_R   0.629997 0.126028 0.396361 0.251970
O22   O     O_R   0.670779 0.078172 0.303818 -0.282315
O23   O     O_R   0.656952 0.222189 0.453913 -0.377614

loop_
_geom_bond_atom_site_label_1
_geom_bond_atom_site_label_2
_geom_bond_distance
_ccdc_geom_bond_type
C13   C18   1.388915 A    
O9    C33   1.398146 S    
C43   H34   1.111600 S    
C6    N3    1.435861 S    
C38   H22   1.111007 S    
C4    C7    1.464876 S    
C8    C9    1.391585 A    
C41   H31   1.108258 S    
C44   H37   1.109278 S    
C40   H27   1.097244 S    
C29   N2    1.371327 A    
O11   C39   1.400713 S    
N6    O19   1.298451 A    
Zn1   O7    1.971390 S    
C23   C24   1.393048 A    
C15   C16   1.423832 A    
C22   C23   1.390704 A    
C41   H30   1.109470 S    
C7    C8    1.418214 A    
O4    C2    1.296148 A    
O7    C4    1.297158 A    
C39   H26   1.110332 S    
C27   C32   1.534225 S    
C1    C20   1.439769 S    
C5    H1    1.084611 S    
C33   H11   1.107342 S    
C6    C7    1.424438 A    
C21   C22   1.392509 A    
O5    C3    1.298384 A    
C47   H43   1.110798 S    
C45   H39   1.110075 S    
C35   H16   1.110347 S    
C21   N7    1.442021 S    
C5    C10   1.387216 A    
C2    C15   1.476903 S    
O21   C45   1.422115 S    
C33   H12   1.109082 S    
C46   H42   1.110022 S    
C11   C12   1.189117 T    
C16   N6    1.434964 S    
C37   H20   1.110407 S    
C19   C24   1.385968 A    
C16   C17   1.405084 A    
C3    C23   1.425303 S    
C26   H6    1.116226 S    
O10   C36   1.430060 S    
C34   H13   1.110606 S    
C43   H35   1.100094 S    
C26   O10   1.422559 S    
C38   H23   1.109123 S    
O3    Zn1   1.958691 S    
C45   H40   1.102575 S    
C44   H36   1.110638 S    
C40   H28   1.102901 S    
O18   C42   1.420789 S    
C28   C29   1.426125 A    
C24   C25   1.480559 S    
C25   O9    1.412429 S    
C34   H14   1.109863 S    
C31   C32   1.512185 S    
C41   H29   1.100119 S    
Zn1   N2    2.027125 S    
C25   H5    1.110911 S    
N4    O14   1.301406 A    
C39   H25   1.097109 S    
C30   C31   1.451342 S    
C13   H3    1.082171 S    
C28   H7    1.081313 S    
C36   H18   1.110362 S    
O1    C1    1.287064 A    
C47   H45   1.111028 S    
C27   N1    1.382914 A    
C35   H15   1.107967 S    
N4    O15   1.301654 A    
C29   H8    1.081652 S    
Zn2   O8    1.958691 S    
C46   C47   1.526605 S    
C37   C38   1.523950 S    
C20   C21   1.419770 A    
C9    H2    1.084675 S    
N5    O17   1.301442 A    
C44   H38   1.103016 S    
C8    N5    1.437726 S    
O3    C2    1.310485 A    
N3    O13   1.301100 A    
C42   H32   1.107845 S    
C43   C44   1.523114 S    
C42   H33   1.106968 S    
C38   H24   1.108645 S    
N7    O23   1.298736 A    
C32   O11   1.417504 S    
C25   C26   1.521848 S    
C40   C41   1.512486 S    
N1    C28   1.369563 A    
C36   H19   1.113592 S    
C5    C6    1.391571 A    
C14   O18   1.391754 S    
C34   C35   1.515994 S    
C35   H17   1.102450 S    
O1    Zn1   2.029133 S    
O2    Zn2   1.978780 S    
Zn2   N1    2.028529 S    
C9    C10   1.390166 A    
O6    C3    1.285910 A    
O4    Zn2   1.971390 S    
C27   C30   1.411453 A    
C13   C14   1.398824 A    
C42   C43   1.542929 S    
C33   C34   1.538274 S    
C17   O21   1.396439 S    
C36   C37   1.539306 S    
C19   C20   1.408478 A    
C31   H10   1.112819 S    
O2    C1    1.303657 A    
O8    C4    1.303835 A    
C12   C18   1.413342 S    
C39   C40   1.516472 S    
C17   C18   1.409999 A    
N6    O20   1.299734 A    
C19   C26   1.530544 S    
N5    O16   1.301209 A    
C47   H44   1.109698 S    
Zn1   O5    1.978780 S    
N3    O12   1.300926 A    
Zn2   O6    2.029133 S    
N2    C30   1.341571 A    
C14   C15   1.412054 A    
C10   C11   1.410950 S    
C32   N4    1.470133 S    
C37   H21   1.108677 S    
C22   H4    1.083371 S    
C31   H9    1.098689 S    
N7    O22   1.301917 A    
C45   C46   1.533327 S    
C46   H41   1.107464 S    
