data_mof_unit_4418.cif
_audit_creation_date              2013-03-05T16:35:52-0500
_audit_creation_method            fapswitch 2.2
_symmetry_space_group_name_H-M    P1
_symmetry_Int_Tables_number       1
_space_group_crystal_system       triclinic
_cell_length_a                    23.418352
_cell_length_b                    9.07374
_cell_length_c                    7.766869
_cell_angle_alpha                 90.067107
_cell_angle_beta                  90.261163
_cell_angle_gamma                 88.875718
_cell_volume                      1650.06198555

loop_
_atom_site_label
_atom_site_type_symbol
_atom_site_description
_atom_site_fract_x
_atom_site_fract_y
_atom_site_fract_z
_atom_type_partial_charge
O1    O     O_R   0.500000 0.288390 0.642760 -0.572188
O2    O     O_R   0.500000 0.711610 0.357240 -0.585729
O3    O     O_R   0.500000 0.711610 0.642760 -0.570678
O4    O     O_R   0.500000 0.288390 0.357240 -0.586030
H1    H     H_    0.955618 0.124111 0.337180 0.175796
H2    H     H_    0.043650 0.874086 0.409270 0.178197
H3    H     H_    0.939951 0.866661 0.379573 0.188344
H4    H     H_    0.059132 0.134726 0.308850 0.184763
C1    C     C_R   0.499183 0.220030 0.499933 0.914064
C2    C     C_R   0.501196 0.779930 0.500084 0.914100
O5    O     O_R   0.417880 0.500000 0.642820 -0.532878
O6    O     O_R   0.582120 0.500000 0.357180 -0.544837
O7    O     O_R   0.582120 0.500000 0.642820 -0.537040
O8    O     O_R   0.417880 0.500000 0.357180 -0.550465
C3    C     C_R   0.208885 0.509310 0.422493 0.171979
C4    C     C_R   0.791220 0.482986 0.428462 0.161819
C5    C     C_R   0.390322 0.502142 0.499405 0.975278
C6    C     C_R   0.609670 0.496124 0.499979 0.967199
Cu1   Cu    Cu3+1 0.500000 0.500000 0.669080 1.152851
Cu2   Cu    Cu3+1 0.500000 0.500000 0.330920 1.129626
C7    C     C_R   0.301545 0.619990 0.381507 0.323015
C8    C     C_R   0.697476 0.380604 0.374746 0.314354
C9    C     C_R   0.292264 0.411751 0.582183 0.289192
C10   C     C_R   0.708774 0.572521 0.594988 0.307968
C11   C     C_R   0.327017 0.513526 0.493191 -0.350663
C12   C     C_R   0.672886 0.481132 0.494672 -0.355024
C13   C     C_R   0.877027 0.619862 0.362864 0.559801
C14   C     C_R   0.122299 0.380618 0.340595 0.593199
C15   C     C_R   0.883583 0.357920 0.388675 0.562560
C16   C     C_R   0.116123 0.636502 0.411979 0.554036
N1    N     N_R   0.851592 0.486749 0.389286 -0.418872
N2    N     N_R   0.148055 0.509365 0.387695 -0.417804
C17   C     C_R   0.942626 0.360627 0.359432 -0.024857
C18   C     C_R   0.056834 0.637500 0.384821 -0.022290
C19   C     C_R   0.936789 0.628639 0.362036 -0.041464
C20   C     C_R   0.062545 0.372210 0.338540 -0.036644
C21   C     C_R   0.969647 0.497379 0.357635 -0.018270
C22   C     C_R   0.029750 0.502581 0.358126 -0.017654
C23   C     C_R   0.975577 0.230554 0.340227 -0.158603
C24   C     C_R   0.023768 0.768453 0.391127 -0.161932
C25   C     C_R   0.964375 0.764340 0.373845 -0.164640
C26   C     C_R   0.034886 0.236714 0.323970 -0.164552
C27   C     C_1   0.499816 0.065378 0.499928 -0.049169
C28   C     C_1   0.500656 0.934580 0.500107 -0.052810
C29   C     C_R   0.243925 0.606654 0.332959 0.158549
C30   C     C_R   0.754952 0.396577 0.326719 0.169287
C31   C     C_R   0.232462 0.414976 0.550314 0.136722
C32   C     C_R   0.768674 0.562559 0.571254 0.140844
N3    N     N_1   0.500000 0.500000 0.076820 0.010627
N4    N     N_1   0.500000 0.500000 0.923180 0.005148
O9    O     O_2   0.844726 0.743401 0.342493 -0.509953
O10   O     O_2   0.154360 0.260453 0.300043 -0.515727
O11   O     O_2   0.858849 0.228060 0.422018 -0.528085
O12   O     O_2   0.141264 0.760567 0.467141 -0.537695
N5    N     N_2   0.220288 0.687482 0.191359 -0.404155
H5    H     H_    0.208395 0.795433 0.215040 0.327966
C33   C     C_3   0.244762 0.659447 0.023310 -0.525403
H6    H     H_    0.210173 0.662017 0.925272 0.210212
H7    H     H_    0.266923 0.550072 0.018517 0.249118
H8    H     H_    0.275536 0.746383 0.990193 0.276762
N6    N     N_2   0.777215 0.329949 0.174293 -0.407892
H9    H     H_    0.783712 0.217599 0.179305 0.332457
C34   C     C_3   0.752931 0.383339 0.014185 -0.527072
H10   H     H_    0.776084 0.331780 0.904779 0.214650
H11   H     H_    0.756640 0.504910 0.006526 0.268860
H12   H     H_    0.707468 0.353827 0.002418 0.288421
N7    N     N_2   0.195058 0.317583 0.635432 -0.374615
H13   H     H_    0.204598 0.206680 0.626885 0.341627
C35   C     C_3   0.170391 0.369602 0.794963 -0.563447
H14   H     H_    0.136936 0.292579 0.836919 0.233834
H15   H     H_    0.150122 0.480230 0.776606 0.209181
H16   H     H_    0.203600 0.374479 0.896833 0.265101
N8    N     N_2   0.805591 0.639485 0.685498 -0.353008
H17   H     H_    0.813800 0.747169 0.653560 0.331823
C36   C     C_3   0.852111 0.559152 0.769098 -0.633665
H18   H     H_    0.893721 0.596980 0.719651 0.213825
H19   H     H_    0.849352 0.438460 0.747954 0.229052
H20   H     H_    0.850898 0.581427 0.909523 0.252861
S1    S     S_3+6 0.340178 0.778704 0.318891 0.020685
O13   O     O_2   0.300844 0.905483 0.272604 -0.263012
O14   O     O_2   0.376976 0.825769 0.467027 -0.314858
O15   O     O_3   0.381532 0.737006 0.148513 -0.516172
H21   H     H_    0.404501 0.825940 0.129145 0.373057
S2    S     S_3+6 0.658118 0.225054 0.302945 0.021130
O16   O     O_2   0.696692 0.101425 0.242779 -0.262394
O17   O     O_2   0.623633 0.169604 0.451017 -0.313807
O18   O     O_3   0.613915 0.274352 0.140793 -0.517806
H22   H     H_    0.591136 0.185715 0.116988 0.374844
S3    S     S_3+6 0.324426 0.284600 0.732250 0.025025
O19   O     O_2   0.370914 0.198887 0.641630 -0.284490
O20   O     O_2   0.350434 0.370911 0.877039 -0.278139
O21   O     O_3   0.279508 0.163378 0.819124 -0.520563
H23   H     H_    0.303385 0.102833 0.898643 0.400422
S4    S     S_3+6 0.678628 0.700608 0.746218 0.041324
O22   O     O_2   0.632988 0.791599 0.657456 -0.282723
O23   O     O_2   0.652129 0.616594 0.891087 -0.281417
O24   O     O_3   0.726803 0.815887 0.830006 -0.492051
H24   H     H_    0.705134 0.877498 0.913484 0.401681

loop_
_geom_bond_atom_site_label_1
_geom_bond_atom_site_label_2
_geom_bond_distance
_ccdc_geom_bond_type
N5    H5    1.029661 S    
C34   H11   1.109900 S    
N8    H17   1.030333 S    
C20   C26   1.405045 A    
Cu1   Cu2   2.626445 S    
C6    C12   1.484742 S    
S2    O18   1.681972 S    
C3    C31   1.414771 A    
O18   H22   0.990545 S    
C4    C32   1.420761 A    
O24   H24   0.990665 S    
C3    N2    1.448723 S    
C4    N1    1.448592 S    
C16   O12   1.349091 S    
O5    Cu1   1.932978 S    
C17   C23   1.405558 A    
O7    C6    1.286029 A    
C18   C24   1.406419 A    
C19   C21   1.405691 A    
C21   C22   1.409220 A    
S2    O17   1.501245 D    
C33   H7    1.111534 S    
C15   C17   1.402939 A    
N6    C34   1.445214 S    
C35   H15   1.110982 S    
C9    S3    1.793852 S    
O3    Cu1   1.931184 S    
S3    O20   1.503118 D    
N6    H9    1.028532 S    
C9    C11   1.424455 A    
C34   H12   1.106260 S    
N8    C36   1.450276 S    
O8    C5    1.281820 A    
C7    S1    1.784889 S    
S4    O22   1.503085 D    
C31   N7    1.422071 S    
C13   O9    1.349012 S    
C23   C26   1.397445 A    
C7    C29   1.406865 A    
C1    C27   1.403067 S    
C9    C31   1.420805 A    
C16   C18   1.403265 A    
C30   N6    1.424947 S    
O2    Cu2   1.930708 S    
N7    H13   1.028650 S    
C10   C32   1.416779 A    
O8    Cu2   1.934827 S    
C14   N2    1.373679 A    
O1    C1    1.270571 A    
S2    O16   1.501868 D    
C4    C30   1.406822 A    
S1    O14   1.501007 D    
O7    Cu1   1.934825 S    
C33   H8    1.110071 S    
S4    O24   1.681809 S    
C13   C19   1.403395 A    
O1    Cu1   1.930708 S    
C13   N1    1.373207 A    
C17   C21   1.404025 A    
C34   H10   1.108257 S    
N7    C35   1.444372 S    
C8    S2    1.788071 S    
C35   H16   1.108351 S    
C36   H18   1.109803 S    
Cu2   N3    1.973561 S    
C10   S4    1.789128 S    
O6    Cu2   1.932976 S    
S3    O21   1.680845 S    
S4    O23   1.503068 D    
C36   H19   1.110272 S    
C29   N5    1.426265 S    
C24   C25   1.397978 A    
C8    C30   1.408605 A    
O15   H21   0.990548 S    
H1    C23   1.081396 S    
C27   C28   1.186602 T    
H2    C24   1.082555 S    
C3    C29   1.404348 A    
O2    C2    1.270728 A    
C7    C11   1.419901 A    
O5    C5    1.284765 A    
C18   C22   1.404522 A    
C32   N8    1.427300 S    
C10   C12   1.421578 A    
H4    C26   1.082731 S    
S1    O15   1.681756 S    
C5    C11   1.484625 S    
N5    C33   1.448137 S    
S3    O19   1.502649 D    
C15   N1    1.376009 A    
O3    C2    1.271081 A    
C16   N2    1.375687 A    
C14   O10   1.349443 S    
Cu1   N4    1.973561 S    
C33   H6    1.109127 S    
C15   O11   1.349027 S    
C2    C28   1.403061 S    
C20   C22   1.406178 A    
O21   H23   0.990705 S    
H3    C25   1.081854 S    
C35   H14   1.110307 S    
C19   C25   1.404384 A    
C36   H20   1.109390 S    
S1    O13   1.502483 D    
O4    Cu2   1.931185 S    
C14   C20   1.402948 A    
N3    N4    1.193303 T    
C8    C12   1.418996 A    
O6    C6    1.280734 A    
O4    C1    1.271089 A    
