data_mof_unit_401.cif
_audit_creation_date              2012-12-11T17:23:10-0500
_audit_creation_method            fapswitch 2.2
_symmetry_space_group_name_H-M    P1
_symmetry_Int_Tables_number       1
_space_group_crystal_system       triclinic
_cell_length_a                    22.463955
_cell_length_b                    7.091644
_cell_length_c                    19.409735
_cell_angle_alpha                 89.999886
_cell_angle_beta                  99.405395
_cell_angle_gamma                 89.999459
_cell_volume                      3050.52674712

loop_
_atom_site_label
_atom_site_type_symbol
_atom_type_description
_atom_site_fract_x
_atom_site_fract_y
_atom_site_fract_z
_atom_type_partial_charge
O1    O     O_R   0.443980 0.494320 0.557430 -0.533307
O2    O     O_R   0.556020 0.994320 0.442570 -0.533306
O3    O     O_R   0.441210 0.822520 0.414610 -0.535023
O4    O     O_R   0.558790 0.322520 0.585390 -0.535023
C1    C     C_R   0.426853 0.655113 0.388815 0.653949
C2    C     C_R   0.573147 0.155110 0.611185 0.653941
O5    O     O_R   0.436920 0.823940 0.555180 -0.539806
O6    O     O_R   0.563080 0.323940 0.444820 -0.539806
O7    O     O_R   0.551700 0.995760 0.584140 -0.535804
O8    O     O_R   0.448300 0.495760 0.415860 -0.535803
C3    C     C_R   0.421696 0.655442 0.574936 0.714121
C4    C     C_R   0.578304 0.155442 0.425065 0.714118
O9    O     O_3   0.537660 0.661290 0.509340 -0.369096
O10   O     O_3   0.462340 0.161290 0.490660 -0.369097
V1    V     V_3+5 0.493010 0.935560 0.498270 1.444261
V2    V     V_3+5 0.506990 0.435560 0.501730 1.444255
H1    H     H_    0.677970 0.848082 0.259165 0.154490
H2    H     H_    0.322032 0.348082 0.740835 0.154480
C5    C     C_R   0.751464 0.942892 0.209561 0.425289
C6    C     C_R   0.248539 0.442891 0.790441 0.425305
C7    C     C_R   0.792536 0.091931 0.203582 -0.027814
C8    C     C_R   0.207466 0.591931 0.796421 -0.027811
C9    C     C_R   0.789603 0.256321 0.243250 -0.136955
C10   C     C_R   0.210399 0.756324 0.756754 -0.136968
H3    H     H_    0.820952 0.369991 0.238476 0.185777
H4    H     H_    0.179049 0.869994 0.761529 0.185771
C11   C     C_R   0.746970 0.275961 0.288878 -0.004374
C12   C     C_R   0.253031 0.775964 0.711126 -0.004367
C13   C     C_R   0.706199 0.126869 0.294734 -0.042525
C14   C     C_R   0.293803 0.626872 0.705268 -0.042519
C15   C     C_R   0.709039 0.962877 0.254898 -0.069977
C16   C     C_R   0.290963 0.462877 0.745103 -0.069983
C17   C     C_1   0.838079 0.080261 0.157897 -0.034882
C18   C     C_1   0.161924 0.580260 0.842106 -0.034874
C19   C     C_1   0.661233 0.137833 0.341207 -0.024889
C20   C     C_1   0.338768 0.637836 0.658794 -0.024880
C21   C     C_1   0.623639 0.146367 0.379671 -0.167338
C22   C     C_1   0.376361 0.646369 0.620330 -0.167324
C23   C     C_1   0.876237 0.071284 0.120172 -0.147147
C24   C     C_1   0.123765 0.571283 0.879831 -0.147064
C25   C     C_R   0.628335 0.113972 0.805099 -0.072479
C26   C     C_R   0.371660 0.614163 0.194897 -0.072457
H5    H     H_    0.608027 0.106626 0.851801 0.199638
H6    H     H_    0.391966 0.606924 0.148192 0.199671
C27   C     C_R   0.614294 0.144311 0.679170 -0.185574
C28   C     C_R   0.385703 0.644327 0.320831 -0.185577
C29   C     C_R   0.906509 0.026469 0.761709 0.307881
C30   C     C_R   0.093494 0.526363 0.238287 0.307892
C31   C     C_R   0.867232 0.004943 0.698474 -0.172486
C32   C     C_R   0.132774 0.504789 0.301517 -0.172492
C33   C     C_R   0.805648 0.032813 0.694690 -0.087747
C34   C     C_R   0.194355 0.532696 0.305304 -0.087764
C35   C     C_R   0.780697 0.093189 0.753095 0.045711
C36   C     C_R   0.219301 0.593161 0.246907 0.045719
C37   C     C_R   0.819409 0.100908 0.819408 -0.036017
C38   C     C_R   0.180587 0.600931 0.180597 -0.036010
C39   C     C_R   0.717189 0.127891 0.747854 0.066390
C40   C     C_R   0.282808 0.627905 0.252150 0.066376
C41   C     C_R   0.691638 0.120200 0.809931 -0.002458
C42   C     C_R   0.308356 0.620322 0.190070 -0.002453
C43   C     C_R   0.729577 0.122713 0.875930 -0.097611
C44   C     C_R   0.270413 0.622880 0.124073 -0.097647
C45   C     C_R   0.793077 0.131003 0.880153 0.264585
C46   C     C_R   0.206915 0.631126 0.119857 0.264400
C47   C     C_R   0.677666 0.164830 0.683132 -0.058537
C48   C     C_R   0.322330 0.664792 0.316876 -0.058539
C49   C     C_R   0.589788 0.115645 0.740717 -0.047618
C50   C     C_R   0.410208 0.615779 0.259277 -0.047644
C51   C     C_R   0.883187 0.070335 0.822762 -0.114310
C52   C     C_R   0.116811 0.570317 0.177239 -0.114321
H7    H     H_    0.777645 0.998592 0.645635 0.131640
H8    H     H_    0.222362 0.498434 0.354353 0.131652
H9    H     H_    0.884257 0.962000 0.651797 0.131133
H10   H     H_    0.115752 0.461778 0.348190 0.131141
O11   O     O_R   0.051730 0.724670 0.084120 -0.532053
O12   O     O_R   0.948270 0.224670 0.915880 -0.532037
O13   O     O_R   0.063080 0.393540 0.944820 -0.539255
O14   O     O_R   0.936920 0.893540 0.055180 -0.539243
C53   C     C_R   0.077903 0.562009 0.924543 0.771347
C54   C     C_R   0.922099 0.062009 0.075458 0.771343
O15   O     O_R   0.058800 0.395030 0.085390 -0.539766
O16   O     O_R   0.941200 0.895030 0.914610 -0.539766
O17   O     O_R   0.943980 0.223310 0.057440 -0.528420
O18   O     O_R   0.056020 0.723310 0.942560 -0.528447
C55   C     C_R   0.073334 0.563640 0.110883 0.865884
C56   C     C_R   0.926666 0.063643 0.889116 0.865912
O19   O     O_3   0.962360 0.556290 0.990650 -0.379806
O20   O     O_3   0.037640 0.056290 0.009350 -0.379837
V3    V     V_3+5 0.006980 0.281990 0.001730 1.525068
V4    V     V_3+5 0.993020 0.781990 0.998270 1.525050
O21   O     O_3   0.830101 0.153274 0.943812 -0.663921
H11   H     H_    0.808875 0.225604 0.975958 0.271068
O22   O     O_3   0.169896 0.653406 0.056197 -0.663925
H12   H     H_    0.191079 0.726218 0.024138 0.271061
O23   O     O_3   0.750814 0.775766 0.172797 -0.620377
H13   H     H_    0.782532 0.777599 0.142973 0.304138
O24   O     O_3   0.249190 0.275764 0.827204 -0.620386
H14   H     H_    0.217471 0.277596 0.857028 0.304124
C57   C     C_2   0.745635 0.452115 0.330059 0.424976
H15   H     H_    0.711906 0.472163 0.363502 0.047901
O25   O     O_2   0.782446 0.577499 0.327351 -0.521145
C58   C     C_2   0.254366 0.952119 0.669945 0.424987
H16   H     H_    0.288095 0.972169 0.636502 0.047903
O26   O     O_2   0.217554 0.077504 0.672653 -0.521145
C59   C     C_2   0.523421 0.097651 0.739009 0.412259
H17   H     H_    0.492231 0.109010 0.690266 0.034735
O27   O     O_2   0.502505 0.069274 0.792344 -0.504227
C60   C     C_2   0.476577 0.597853 0.260979 0.412266
H18   H     H_    0.507766 0.609141 0.309725 0.034725
O28   O     O_2   0.497494 0.569608 0.207637 -0.504218
C61   C     C_2   0.703713 0.110340 0.941488 0.403574
H19   H     H_    0.709616 0.225201 0.978901 0.057781
O29   O     O_2   0.676543 0.969086 0.954533 -0.495391
C62   C     C_2   0.296264 0.610564 0.058503 0.403851
H20   H     H_    0.290298 0.725359 0.021066 0.057710
O30   O     O_2   0.323492 0.469415 0.045473 -0.495425
C63   C     C_2   0.700043 0.250453 0.622131 0.373768
H21   H     H_    0.677581 0.221636 0.569338 0.022854
O31   O     O_2   0.742382 0.360682 0.630562 -0.516793
C64   C     C_2   0.299951 0.750319 0.377892 0.373763
H22   H     H_    0.322416 0.721454 0.430679 0.022841
O32   O     O_2   0.257604 0.860526 0.369481 -0.516797
O33   O     O_3   0.967896 0.997794 0.765822 -0.653326
H23   H     H_    0.976866 0.967580 0.718687 0.298026
O34   O     O_3   0.032109 0.497647 0.234172 -0.653320
H24   H     H_    0.023142 0.467370 0.281302 0.298023

loop_
_geom_bond_atom_site_label_1
_geom_bond_atom_site_label_2
_ccdc_geom_bond_type
O22   H12   S    
C2    C27   S    
C11   C13   A    
C35   C37   A    
C61   H19   S    
O1    C3    A    
C5    C15   A    
C2    O7    A    
C62   H20   S    
O3    V1    S    
O33   H23   S    
C29   C31   A    
O14   V4    S    
O5    C3    A    
C59   O27   D    
O13   V3    S    
C17   C23   T    
O18   V4    S    
C59   H17   S    
C18   C24   T    
C5    C7    A    
C10   H4    S    
C46   O22   S    
C28   C48   A    
C63   O31   D    
C6    C16   A    
C53   O18   A    
O14   C54   A    
C39   C41   A    
C7    C17   S    
C40   C42   A    
C60   H18   S    
C42   C44   A    
C4    C21   S    
C43   C45   A    
C29   C51   A    
C44   C46   A    
O11   V4    S    
C30   O34   S    
C40   C48   A    
C6    O24   S    
O23   H13   S    
C34   C36   A    
C31   C33   A    
C37   C45   A    
C27   C49   A    
C32   C34   A    
C38   C46   A    
C9    C11   A    
O12   V3    S    
O15   V3    S    
C30   C32   A    
O2    C4    A    
O6    V2    S    
C48   C64   S    
C26   C50   A    
C25   H5    S    
C26   H6    S    
C54   O17   A    
O17   V3    S    
C64   O32   D    
O24   H14   S    
O13   C53   A    
C8    C18   S    
C36   C38   A    
C41   C43   A    
C25   C41   A    
C25   C49   A    
C26   C42   A    
O21   H11   S    
C35   C39   A    
C49   C59   S    
O16   C56   A    
C33   C35   A    
O4    V2    S    
C3    C22   S    
C28   C50   A    
C34   H8    S    
C29   O33   S    
C57   H15   S    
O6    C4    A    
C11   C57   S    
C24   C53   S    
C61   O29   D    
O1    V2    S    
C58   O26   D    
O2    V1    S    
C37   C51   A    
O4    C2    A    
C57   O25   D    
O20   V4    S    
C38   C52   A    
C7    C9    A    
C27   C47   A    
O34   H24   S    
H1    C15   S    
C8    C10   A    
O19   V4    S    
H2    C16   S    
C6    C8    A    
C20   C22   T    
C43   C61   S    
O12   C56   A    
C5    O23   S    
C64   H22   S    
O11   C55   A    
C36   C40   A    
C19   C21   T    
C10   C12   A    
C30   C52   A    
O3    C1    A    
C62   O30   D    
C33   H7    S    
C44   C62   S    
C1    C28   S    
C13   C19   S    
O16   V4    S    
C14   C20   S    
C23   C54   S    
C32   H10   S    
O7    V1    S    
C12   C14   A    
C13   C15   A    
O8    V2    S    
C63   H21   S    
C14   C16   A    
O5    V1    S    
C60   O28   D    
C31   H9    S    
C9    H3    S    
C58   H16   S    
C12   C58   S    
C1    O8    A    
O20   V3    S    
O9    V2    S    
C45   O21   S    
O19   V3    S    
C47   C63   S    
O10   V1    S    
C50   C60   S    
C52   C55   S    
O15   C55   A    
C51   C56   S    
C39   C47   A    
