data_mof_unit_3535.cif
_audit_creation_date              2012-12-11T20:00:09-0500
_audit_creation_method            fapswitch 2.2
_symmetry_space_group_name_H-M    P1
_symmetry_Int_Tables_number       1
_space_group_crystal_system       triclinic
_cell_length_a                    8.268723
_cell_length_b                    16.024115
_cell_length_c                    27.048874
_cell_angle_alpha                 72.460645
_cell_angle_beta                  96.738013
_cell_angle_gamma                 96.290979
_cell_volume                      3383.28695746

loop_
_atom_site_label
_atom_site_type_symbol
_atom_type_description
_atom_site_fract_x
_atom_site_fract_y
_atom_site_fract_z
_atom_type_partial_charge
Ba1   Ba    Ba6+2 0.337820 0.939830 0.518500 1.660166
Ba2   Ba    Ba6+2 0.851970 0.060110 0.481480 1.671223
C1    C     C_3   0.126158 0.512666 0.636975 -0.332966
C2    C     C_R   0.468748 0.398167 0.189748 0.583760
C3    C     C_2   0.287560 0.282825 0.279649 -0.079577
C4    C     C_3   0.601157 0.619723 0.626860 0.332255
C5    C     C_3   0.278316 0.251498 0.337763 -0.062164
C6    C     C_1   0.477026 0.145812 0.342030 0.046751
C7    C     C_2   0.512877 0.188159 0.293306 -0.101565
C8    C     C_2   0.410391 0.259620 0.258746 0.202694
C9    C     C_R   0.513579 0.400206 0.101862 -0.081655
C10   C     C_R   0.489023 0.307883 0.117202 -0.039555
C11   C     C_R   0.491944 0.264161 0.079478 -0.033473
C12   C     C_3   0.104265 0.610630 0.617806 0.359649
C13   C     C_R   0.504215 0.445456 0.138477 -0.025617
C14   C     C_2   0.364945 0.169957 0.364992 -0.285252
C15   C     C_2   0.830980 0.832437 0.635503 -0.256692
C16   C     C_3   0.636427 0.528221 0.661383 -0.331823
C17   C     C_R   0.623875 0.449994 0.964172 0.014524
C18   C     C_R   0.566496 0.587258 0.979650 -0.003772
C19   C     C_R   0.613758 0.542964 0.946188 0.019883
C20   C     C_R   0.692932 0.410262 0.931903 0.136037
C21   C     C_R   0.721069 0.457994 0.880832 -0.033383
C22   C     C_R   0.698552 0.547920 0.861334 -0.043480
C23   C     C_3   0.070937 0.007687 0.646289 0.273575
C24   C     C_R   0.650437 0.591680 0.894503 -0.110036
C25   C     C_R   0.641392 0.683870 0.876249 -0.042317
C26   C     C_R   0.684633 0.730038 0.824715 0.624345
C27   C     C_R   0.730419 0.595031 0.809737 0.600489
C28   C     C_3   0.636563 0.892638 0.373750 0.401869
C29   C     C_2   0.898485 0.714831 0.718877 -0.093666
C30   C     C_3   0.910854 0.747936 0.660795 -0.063081
C31   C     C_1   0.712228 0.853320 0.657268 0.008206
C32   C     C_2   0.665922 0.804162 0.703612 -0.119883
C33   C     C_2   0.769445 0.734170 0.738913 0.206862
C34   C     C_3   0.064775 0.966909 0.704696 -0.342693
C35   C     C_R   0.568933 0.402000 0.013935 0.030957
C36   C     C_R   0.546248 0.447644 0.049600 0.055843
C37   C     C_R   0.554845 0.540502 0.033310 0.045057
C38   C     C_R   0.527963 0.310552 0.028707 -0.052949
C39   C     C_R   0.532766 0.537335 0.123211 -0.043067
C40   C     C_3   0.693282 0.860656 0.331403 -0.279624
C41   C     C_R   0.529750 0.676155 0.957993 0.116972
C42   C     C_R   0.584021 0.726551 0.909285 0.169228
C43   C     C_R   0.560079 0.583659 0.071868 -0.060828
C44   C     C_2   0.406297 0.246181 0.518193 -0.260520
C45   C     C_3   0.654299 0.362840 0.373441 0.322081
C46   C     C_R   0.799428 0.758602 0.489794 -0.267552
C47   C     C_2   0.271527 0.306121 0.574646 -0.098879
C48   C     C_2   0.278011 0.242274 0.552606 0.037558
C49   C     C_2   0.535438 0.305372 0.514444 0.025766
C50   C     C_3   0.554500 0.367424 0.547906 0.019058
C51   C     C_3   0.390888 0.385532 0.563413 0.013407
C52   C     C_3   0.535913 0.056233 0.672342 0.408823
C53   C     C_2   0.661338 0.449952 0.526525 -0.089757
C54   C     C_2   0.602751 0.529045 0.504818 -0.085597
C55   C     C_R   0.849891 0.608829 0.463468 0.008376
C56   C     C_3   0.674789 0.440426 0.325148 -0.303557
C57   C     C_R   0.713182 0.609147 0.489619 -0.033107
C58   C     C_R   0.956617 0.683879 0.448749 -0.140689
C59   C     C_R   0.930740 0.759086 0.461798 0.066786
C60   C     C_R   0.685143 0.686001 0.501348 0.019033
C61   C     C_3   0.560598 0.993687 0.727302 -0.314826
C62   C     C_3   0.116068 0.994026 0.358144 0.277897
C63   C     C_3   0.118994 0.030674 0.299394 -0.355309
C64   C     C_3   0.146951 0.387604 0.389996 0.319708
C65   C     C_3   0.110291 0.478495 0.390129 -0.363071
C66   C     C_R   0.456766 0.261844 0.169313 0.606393
H1    H     H_    0.144743 0.638059 0.577952 0.081953
H2    H     H_    0.042155 0.035352 0.371568 0.080678
H3    H     H_    0.256330 0.500411 0.638918 0.152943
H4    H     H_    0.198997 0.993159 0.285166 0.146030
H5    H     H_    0.166048 0.100607 0.288791 0.075287
H6    H     H_    0.993659 0.026227 0.280060 0.122431
H7    H     H_    0.971753 0.617625 0.616030 -0.084871
H8    H     H_    0.054182 0.479573 0.609905 0.062769
H9    H     H_    0.946093 0.005343 0.626883 0.035941
H10   H     H_    0.148463 0.969222 0.631958 0.068974
H11   H     H_    0.982490 0.002192 0.719620 0.141916
H12   H     H_    0.767477 0.914263 0.305409 0.115515
H13   H     H_    0.019042 0.896862 0.713514 0.072601
H14   H     H_    0.188903 0.971104 0.724891 0.126462
H15   H     H_    0.082316 0.484168 0.676314 0.129317
H16   H     H_    0.747919 0.532168 0.687990 0.133909
H17   H     H_    0.733320 0.312005 0.372093 0.110960
H18   H     H_    0.525411 0.336157 0.373117 -0.046455
H19   H     H_    0.791131 0.480150 0.329582 0.132887
H20   H     H_    0.678794 0.415881 0.291199 0.132318
H21   H     H_    0.571746 0.482738 0.318256 0.126338
H22   H     H_    0.269532 0.393497 0.375680 -0.022498
H23   H     H_    0.768416 0.803933 0.349180 0.074126
H24   H     H_    0.149098 0.344187 0.430825 0.035619
H25   H     H_    0.209105 0.505179 0.414022 0.068608
H26   H     H_    0.993142 0.474926 0.407155 0.155186
H27   H     H_    0.565959 0.658698 0.651053 0.072439
H28   H     H_    0.102928 0.523478 0.349803 0.121718
H29   H     H_    0.616838 0.171383 0.278180 0.119238
H30   H     H_    0.464673 0.193744 0.088911 0.135880
H31   H     H_    0.980249 0.666681 0.742569 0.119037
H32   H     H_    0.770854 0.425111 0.857069 0.154963
H33   H     H_    0.515838 0.274273 0.000598 0.126547
H34   H     H_    0.586519 0.840039 0.307582 0.111813
H35   H     H_    0.209710 0.333251 0.256219 0.112247
H36   H     H_    0.534147 0.574033 0.150996 0.127706
H37   H     H_    0.715885 0.651017 0.609610 -0.079758
H38   H     H_    0.543448 0.805483 0.713448 0.126771
H39   H     H_    0.589242 0.653729 0.062899 0.116101
H40   H     H_    0.356371 0.142886 0.406593 0.082646
H41   H     H_    0.850306 0.865359 0.595021 0.075254
H42   H     H_    0.177628 0.301928 0.600360 0.094175
H43   H     H_    0.058049 0.683393 0.426969 0.094346
H44   H     H_    0.396344 0.198534 0.496508 0.059502
H45   H     H_    0.409940 0.047796 0.655229 0.050076
H46   H     H_    0.780040 0.817285 0.499505 0.065602
H47   H     H_    0.792371 0.444441 0.531328 0.099835
H48   H     H_    0.532163 0.497988 0.684836 0.143282
H49   H     H_    0.472511 0.535922 0.501211 0.098174
H50   H     H_    0.657593 0.486276 0.637067 0.117356
H51   H     H_    0.746120 0.910375 0.397286 0.032460
H52   H     H_    0.535892 0.843439 0.920654 0.213977
H53   H     H_    0.700812 0.847413 0.891356 0.215291
H54   H     H_    0.513667 0.843878 0.437538 0.205025
H55   H     H_    0.425459 0.812164 0.385974 0.200033
H56   H     H_    0.499302 0.928413 0.728610 0.101507
H57   H     H_    0.503282 0.017325 0.755185 0.132362
H58   H     H_    0.692615 0.988213 0.739940 0.148375
H59   H     H_    0.242351 0.996512 0.376526 0.027163
I1    I     I_    0.571077 0.187616 0.677413 -0.450305
I2    I     I_    0.808054 0.289520 0.958252 -0.421544
I3    I     I_    0.337233 0.724119 0.986732 -0.448725
N1    N     N_R   0.447088 0.306937 0.205221 -0.423800
N2    N     N_R   0.728024 0.685708 0.792009 -0.422992
N3    N     N_3   0.579627 0.820745 0.892896 -0.422954
N4    N     N_3   0.537360 0.821982 0.406717 -0.524759
O1    O     O_2   0.431310 0.922990 0.623550 -0.485173
O2    O     O_2   0.867944 0.308658 0.500372 -0.474435
O3    O     O_3   0.697502 0.391029 0.417784 -0.616622
O4    O     O_3   0.663280 0.983100 0.563360 -0.455694
O5    O     O_3   0.016420 0.932050 0.462720 -0.492879
O6    O     O_2   0.959730 0.164640 0.549160 -0.421454
O7    O     O_3   0.135596 0.094876 0.636912 -0.625169
O8    O     O_2   0.931987 0.214729 0.327255 -0.494176
O9    O     O_3   0.026953 0.355463 0.357332 -0.595823
O10   O     O_2   0.434831 0.181831 0.182370 -0.586484
O11   O     O_2   0.758562 0.554665 0.780330 -0.613929
O12   O     O_3   0.047958 0.907106 0.370155 -0.644693
O13   O     O_2   0.456652 0.438681 0.220641 -0.620185
O14   O     O_2   0.684035 0.809793 0.808938 -0.594427
O15   O     O_3   0.126250 0.812630 0.574830 -0.480341
O16   O     O_2   0.241874 0.804114 0.672794 -0.493660
O17   O     O_3   0.650528 0.048583 0.639731 -0.610323
O18   O     O_3   0.196907 0.653009 0.651733 -0.576167
O19   O     O_2   0.229950 0.835370 0.450810 -0.461792
O20   O     O_3   0.517580 0.797570 0.545130 -0.480170
O21   O     O_2   0.344593 0.690406 0.495977 -0.490288
O22   O     O_3   0.471654 0.613104 0.589302 -0.599027
O23   O     O_2   0.758370 0.077020 0.376420 -0.474993
O24   O     O_3   0.526390 0.016840 0.436620 -0.491769
O25   O     O_3   0.063420 0.187310 0.425160 -0.471491
O26   O     O_3   0.541492 0.963583 0.349966 -0.634468
O27   O     O_3   0.173250 0.067890 0.537260 -0.483513
O28   O     O_3   0.672100 0.202370 0.454860 -0.489492
P1    P     P_3+3 0.610630 0.953360 0.619150 0.993987
P2    P     P_3+3 0.057260 0.861390 0.437850 0.973202
P3    P     P_3+3 0.502912 0.696761 0.531704 0.955929
P4    P     P_3+3 0.579040 0.046590 0.380840 0.981059
P5    P     P_3+3 0.694494 0.299783 0.473169 0.974793
P6    P     P_3+3 0.120967 0.755389 0.640909 0.963784
P7    P     P_3+3 0.140312 0.142978 0.569833 0.989367
P8    P     P_3+3 0.073019 0.249944 0.360388 0.938258

loop_
_geom_bond_atom_site_label_1
_geom_bond_atom_site_label_2
_ccdc_geom_bond_type
C53   C54   D    
C3    H35   S    
C40   H12   S    
O6    P7    D    
O25   P8    S    
C44   H44   S    
C66   N1    Am   
C59   P2    S    
C54   H49   S    
C49   P5    S    
C19   C24   A    
C56   H19   S    
Ba2   O28   S    
C61   H56   S    
C64   H22   S    
C28   O26   S    
C10   C66   A    
C24   C25   A    
C53   H47   S    
C23   H9    S    
Ba2   O5    S    
C45   H17   S    
O5    P2    S    
C17   C19   A    
C22   C24   A    
C32   C33   S    
C35   C38   A    
C27   O11   D    
C36   C37   A    
C55   C57   A    
C27   N2    Am   
C28   H51   S    
C52   H45   S    
C63   H5    S    
H52   N3    S    
C11   H30   S    
C22   C27   A    
H54   N4    S    
C11   C38   A    
C17   C35   A    
C38   H33   S    
C8    N1    S    
C9    C13   A    
C25   C42   A    
Ba1   P2    S    
C34   H14   S    
Ba2   O25   S    
C28   N4    S    
C65   H26   S    
C16   H16   S    
C21   C22   A    
O20   P3    S    
Ba1   O15   S    
O4    P1    S    
O26   P4    S    
C7    C8    S    
Ba2   P4    S    
Ba1   O5    S    
C50   C53   S    
C37   C43   A    
O27   P7    S    
C21   H32   S    
Ba1   O27   S    
C6    C14   D    
O15   P6    S    
C15   C31   D    
C40   H34   S    
Ba2   O27   S    
O18   P6    S    
C2    N1    Am   
C4    C16   S    
C26   O14   D    
O19   P2    D    
C49   C50   S    
C32   H38   S    
C45   H18   S    
C17   C20   A    
C13   C39   A    
C16   H48   S    
C3    C5    S    
C18   C37   A    
C6    C7    D    
C55   C58   A    
C64   H24   S    
C64   O9    S    
H55   N4    S    
C2    O13   D    
C52   I1    S    
C44   C49   D    
C63   H6    S    
C23   H10   S    
C15   H41   S    
C58   C59   A    
C26   N2    Am   
Ba2   O4    S    
C9    C36   A    
C1    H3    S    
C62   H2    S    
C35   C36   A    
C46   C60   A    
C29   C30   S    
C34   H13   S    
Ba2   O24   S    
C62   H59   S    
O16   P6    D    
C45   O3    S    
O7    P7    S    
C31   C32   D    
C10   C11   A    
Ba1   O19   S    
C1    H8    S    
C61   H57   S    
C1    C12   S    
C6    P4    S    
C5    C14   S    
C47   C48   D    
C29   H31   S    
C30   P6    S    
C41   C42   A    
C1    H15   S    
C65   H28   S    
C12   H1    S    
C29   C33   D    
O3    P5    S    
C18   C41   A    
C50   C51   S    
O24   P4    S    
C46   H46   S    
C42   N3    S    
C16   H50   S    
Ba1   O24   S    
C57   C60   A    
C7    H29   S    
C62   O12   S    
O1    P1    D    
C41   I3    S    
C23   O7    S    
O9    P8    S    
C34   H11   S    
C56   H20   S    
O23   P4    D    
C66   O10   D    
C9    C10   A    
C39   H36   S    
C52   O17   S    
O2    P5    D    
C63   H4    S    
C44   C48   S    
O17   P1    S    
C54   C57   S    
O8    P8    D    
Ba2   O6    S    
C62   C63   S    
C2    C13   A    
C3    C8    D    
C20   I2    S    
C58   H43   S    
C12   H7    S    
C45   C56   S    
C46   C59   A    
O12   P2    S    
O22   P3    S    
O21   P3    D    
Ba2   O23   S    
C47   C51   S    
Ba1   Ba2   S    
C31   P1    S    
C4    H37   S    
C64   C65   S    
C48   P7    S    
Ba1   O20   S    
C56   H21   S    
C61   H58   S    
C14   H40   S    
C23   C34   S    
O28   P5    S    
C43   H39   S    
C60   P3    S    
C18   C19   A    
Ba1   P1    S    
C4    H27   S    
C52   C61   S    
C5    P8    S    
C12   O18   S    
C25   C26   A    
C65   H25   S    
C15   C30   S    
C39   C43   A    
C20   C21   A    
C28   C40   S    
H53   N3    S    
Ba1   O1    S    
C33   N2    S    
C4    O22   S    
Ba1   O4    S    
C40   H23   S    
C47   H42   S    
