data_mof_unit_1922.cif
_audit_creation_date              2012-12-10T16:44:37-0500
_audit_creation_method            fapswitch 2.2
_symmetry_space_group_name_H-M    P1
_symmetry_Int_Tables_number       1
_space_group_crystal_system       triclinic
_cell_length_a                    15.004938
_cell_length_b                    8.741988
_cell_length_c                    7.448448
_cell_angle_alpha                 102.219064
_cell_angle_beta                  93.49493
_cell_angle_gamma                 91.790327
_cell_volume                      952.148670856

loop_
_atom_site_label
_atom_site_type_symbol
_atom_type_description
_atom_site_fract_x
_atom_site_fract_y
_atom_site_fract_z
_atom_type_partial_charge
C1    C     C_R   0.502729 0.201107 0.454923 0.882273
C2    C     C_R   0.502208 0.798950 0.544983 0.840719
C3    C     C_R   0.035451 0.227305 0.328220 -0.301285
C4    C     C_R   0.963760 0.776767 0.641879 -0.300612
C5    C     C_2   0.519987 0.037700 0.436162 0.015088
C6    C     C_2   0.493484 0.963452 0.567244 -0.003317
C7    C     C_R   0.329129 0.498355 0.503074 0.863265
C8    C     C_R   0.670885 0.500377 0.496658 0.840197
C9    C     C_R   0.819551 0.632725 0.594110 0.219249
C10   C     C_R   0.181842 0.355305 0.442566 0.211894
C11   C     C_R   0.767271 0.504588 0.489904 -0.109418
C12   C     C_R   0.232668 0.496058 0.507231 -0.099177
C13   C     C_R   0.807086 0.376380 0.384672 -0.295781
C14   C     C_R   0.191590 0.637665 0.561790 -0.302487
C15   C     C_R   0.900315 0.369355 0.390977 0.093607
C16   C     C_R   0.098502 0.641087 0.559401 0.098341
C17   C     C_R   0.952892 0.502811 0.484151 -0.018028
C18   C     C_R   0.046609 0.501142 0.487764 -0.018926
C19   C     C_R   0.911967 0.638005 0.575827 0.023758
C20   C     C_R   0.088168 0.359570 0.420431 0.032007
C21   C     C_R   0.942351 0.233130 0.306063 0.261405
C22   C     C_R   0.055666 0.781318 0.623827 0.264326
Cu1   Cu    Cu3+1 0.510010 0.517380 0.684380 0.952440
Cu2   Cu    Cu3+1 0.489990 0.482620 0.315620 0.939191
H1    H     H_    0.764806 0.278557 0.308021 0.193516
H2    H     H_    0.232881 0.744020 0.609392 0.175667
H3    H     H_    0.066202 0.119823 0.268061 0.164585
H4    H     H_    0.932973 0.884736 0.700140 0.165676
H5    H     H_    0.428003 0.384888 0.950579 0.224732
H6    H     H_    0.572041 0.614729 0.049695 0.230599
N1    N     N_2   0.474890 0.456420 0.038520 -0.225546
N2    N     N_2   0.525110 0.543580 0.961480 -0.217809
O1    O     O_R   0.506510 0.286130 0.619770 -0.600769
O2    O     O_R   0.493490 0.713870 0.380230 -0.592050
O3    O     O_R   0.489600 0.256770 0.308360 -0.596521
O4    O     O_R   0.510400 0.743230 0.691640 -0.576114
O5    O     O_R   0.378710 0.514640 0.655720 -0.588935
O6    O     O_R   0.621290 0.485360 0.344280 -0.603394
O7    O     O_R   0.361800 0.485290 0.344300 -0.576551
O8    O     O_R   0.638200 0.514710 0.655700 -0.558993
N3    N     N_2   0.779962 0.748849 0.726264 -0.421330
H7    H     H_    0.815936 0.783228 0.851701 0.254132
C23   C     C_3   0.740684 0.876528 0.658942 -0.712792
H8    H     H_    0.784203 0.984655 0.703864 0.218325
H9    H     H_    0.675142 0.899404 0.717622 0.236553
H10   H     H_    0.731073 0.848534 0.506743 0.213052
N4    N     N_2   0.224712 0.210097 0.421514 -0.462774
H11   H     H_    0.192381 0.125059 0.473664 0.260657
C24   C     C_3   0.262650 0.151798 0.247863 -0.692362
H12   H     H_    0.229755 0.037122 0.181826 0.211004
H13   H     H_    0.334107 0.131642 0.273477 0.247692
H14   H     H_    0.255839 0.234452 0.153604 0.241002
N5    N     N_2   0.891694 0.101846 0.197551 -0.435986
H15   H     H_    0.922215 0.048198 0.081722 0.245696
C25   C     C_3   0.861460 0.990156 0.300836 -0.719103
H16   H     H_    0.919443 0.932562 0.353402 0.232990
H17   H     H_    0.816135 0.899233 0.210247 0.232697
H18   H     H_    0.824168 0.049734 0.417880 0.239877
N6    N     N_2   0.103740 0.928292 0.665920 -0.448267
H19   H     H_    0.070640 0.013725 0.615451 0.252715
C26   C     C_3   0.131186 0.980491 0.858336 -0.749485
H20   H     H_    0.071872 0.998963 0.941214 0.227812
H21   H     H_    0.170461 0.093167 0.878832 0.235001
H22   H     H_    0.173237 0.892054 0.904862 0.239985
N7    N     N_2   0.578975 0.968128 0.299634 -0.468796
H23   H     H_    0.613803 0.873065 0.319725 0.246910
C27   C     C_3   0.555542 0.969822 0.109022 -0.590362
H24   H     H_    0.595593 0.884780 0.018731 0.218243
H25   H     H_    0.572766 0.086681 0.082065 0.236714
H26   H     H_    0.483408 0.937515 0.073602 0.246181
N8    N     N_2   0.448354 0.037849 0.723346 -0.442983
H27   H     H_    0.482522 0.120826 0.824910 0.271063
C28   C     C_3   0.352216 0.042139 0.703843 -0.672826
H28   H     H_    0.323530 0.992555 0.814004 0.231432
H29   H     H_    0.324731 0.972858 0.567924 0.232992
H30   H     H_    0.332607 0.165292 0.718631 0.237516

loop_
_geom_bond_atom_site_label_1
_geom_bond_atom_site_label_2
_ccdc_geom_bond_type
H6    N2    S    
C25   H16   S    
C28   H29   S    
C28   H28   S    
C24   H13   S    
C1    O1    A    
N4    C24   S    
N5    H15   S    
C1    C5    S    
C5    C6    D    
Cu1   O8    S    
Cu2   O7    S    
C4    C22   A    
C26   H21   S    
N3    H7    S    
C24   H12   S    
C4    C19   A    
C9    C19   A    
N4    H11   S    
C10   C20   A    
Cu1   O1    S    
Cu2   O6    S    
Cu1   Cu2   S    
C2    O2    A    
N6    H19   S    
N3    C23   S    
C13   H1    S    
C2    C6    S    
C8    O6    A    
C4    H4    S    
N5    C25   S    
C7    C12   S    
N6    C26   S    
Cu2   O3    S    
C27   H24   S    
C5    N7    S    
C22   N6    S    
N8    C28   S    
N7    C27   S    
Cu1   O5    S    
Cu2   O2    S    
C27   H25   S    
C26   H22   S    
C23   H8    S    
C9    C11   A    
N1    N2    D    
C24   H14   S    
C17   C18   A    
C7    O5    A    
C3    C20   A    
C14   H2    S    
C23   H9    S    
C10   C12   A    
C12   C14   A    
Cu1   O4    S    
C13   C15   A    
C28   H30   S    
C14   C16   A    
C3    C21   A    
C1    O3    A    
C2    O4    A    
C15   C17   A    
C16   C22   A    
C6    N8    S    
C9    N3    S    
C27   H26   S    
Cu1   N2    S    
C25   H17   S    
Cu2   N1    S    
N8    H27   S    
H5    N1    S    
C21   N5    S    
C11   C13   A    
C8    C11   S    
C3    H3    S    
C17   C19   A    
C18   C20   A    
C26   H20   S    
C23   H10   S    
C15   C21   A    
C16   C18   A    
N7    H23   S    
C25   H18   S    
C10   N4    S    
C7    O7    A    
C8    O8    A    
