data_mof_unit_2573.cif
_audit_creation_date              2012-12-10T17:18:52-0500
_audit_creation_method            fapswitch 2.2
_symmetry_space_group_name_H-M    P1
_symmetry_Int_Tables_number       1
_space_group_crystal_system       triclinic
_cell_length_a                    9.660573
_cell_length_b                    10.782383
_cell_length_c                    13.491483
_cell_angle_alpha                 94.096572
_cell_angle_beta                  72.916844
_cell_angle_gamma                 89.82266
_cell_volume                      1339.46343249

loop_
_atom_site_label
_atom_site_type_symbol
_atom_type_description
_atom_site_fract_x
_atom_site_fract_y
_atom_site_fract_z
_atom_type_partial_charge
C1    C     C_R   0.498041 0.737304 0.504138 0.772653
C2    C     C_R   0.441220 0.550345 0.979982 0.080243
C3    C     C_R   0.486311 0.554457 0.870311 0.094768
C4    C     C_R   0.548071 0.533093 0.031865 0.077238
C5    C     C_R   0.696714 0.527105 0.974026 0.176382
C6    C     C_R   0.738475 0.553645 0.870511 -0.250425
C7    C     C_R   0.634422 0.573677 0.821361 -0.184537
C8    C     C_R   0.512429 0.518625 0.138730 -0.228933
C9    C     C_R   0.765539 0.489009 0.127761 -0.191383
C10   C     C_R   0.381404 0.542640 0.814436 -0.098534
C11   C     C_R   0.283608 0.886246 0.669218 -0.187824
C12   C     C_R   0.423127 0.513622 0.699813 0.749096
C13   C     C_R   0.180716 0.958442 0.746036 -0.129124
C14   C     C_R   0.180734 0.087425 0.745820 -0.120750
C15   C     C_R   0.283701 0.145070 0.668822 -0.170036
C16   C     C_R   0.387703 0.073789 0.589002 0.097609
C17   C     C_R   0.387490 0.942488 0.589181 0.104701
C18   C     C_R   0.494751 0.871681 0.511205 -0.088292
C19   C     C_R   0.602852 0.929503 0.437965 -0.182067
C20   C     C_R   0.603086 0.057287 0.437845 -0.168937
C21   C     C_R   0.495421 0.129726 0.510920 -0.098642
C22   C     C_R   0.919971 0.309136 0.369565 0.393900
C23   C     C_R   0.498654 0.263109 0.503398 0.821404
C24   C     C_R   0.019348 0.210638 0.325113 -0.313029
C25   C     C_R   0.160078 0.217763 0.325985 0.127377
C26   C     C_R   0.202206 0.320613 0.374731 -0.181263
C27   C     C_R   0.102063 0.409921 0.438685 0.107672
C28   C     C_R   0.952888 0.407415 0.437937 0.161934
C29   C     C_R   0.903477 0.588334 0.555361 -0.071553
C30   C     C_R   0.050107 0.587209 0.556594 -0.042870
C31   C     C_R   0.577463 0.498864 0.300545 0.831541
C32   C     C_R   0.802838 0.499517 0.021152 -0.205733
C33   C     C_R   0.620227 0.501607 0.187350 -0.050199
C34   C     C_R   0.234103 0.556894 0.870223 -0.207447
C35   C     C_R   0.191454 0.575209 0.978185 -0.147823
C36   C     C_R   0.291977 0.566425 0.032894 -0.155985
Cu1   Cu    Cu3+1 0.359340 0.500010 0.500010 0.940378
Cu2   Cu    Cu3+1 0.640660 0.499990 0.499990 0.981140
H1    H     H_    0.849992 0.471648 0.163336 0.169727
H2    H     H_    0.282260 0.786704 0.674704 0.132587
H3    H     H_    0.101839 0.914135 0.806797 0.137657
H4    H     H_    0.101840 0.143211 0.806424 0.140845
H5    H     H_    0.282246 0.245520 0.674070 0.156331
H6    H     H_    0.686022 0.099290 0.378543 0.163961
H7    H     H_    0.831493 0.662962 0.598907 0.123732
H8    H     H_    0.990220 0.132777 0.280550 0.169053
H9    H     H_    0.315763 0.325963 0.358403 0.225767
H10   H     H_    0.851922 0.561707 0.827910 0.137247
H11   H     H_    0.085170 0.659107 0.603306 0.127002
H12   H     H_    0.914403 0.486180 0.974699 0.130974
H13   H     H_    0.401202 0.520625 0.185903 0.157425
H14   H     H_    0.151716 0.555944 0.830383 0.145660
H15   H     H_    0.249551 0.577060 0.116402 0.131558
H16   H     H_    0.079394 0.594441 0.020960 0.140423
H17   H     H_    0.672555 0.610092 0.746618 0.169796
H18   H     H_    0.685817 0.875107 0.378949 0.155172
N1    N     N_R   0.852480 0.498790 0.499000 -0.177408
N2    N     N_R   0.148360 0.498710 0.498970 -0.182147
O1    O     O_R   0.381190 0.680360 0.500010 -0.575797
O2    O     O_R   0.618760 0.680340 0.500000 -0.588685
O3    O     O_R   0.323240 0.499990 0.650990 -0.594325
O4    O     O_R   0.560820 0.499960 0.650980 -0.586263
O5    O     O_R   0.381240 0.319660 0.500000 -0.601735
O6    O     O_R   0.618810 0.319640 0.499990 -0.514755
O7    O     O_R   0.439180 0.500040 0.349020 -0.611065
O8    O     O_R   0.676760 0.500010 0.349010 -0.514966
O9    O     O_3   0.799834 0.312043 0.336172 -0.702134
H19   H     H_    0.809360 0.252663 0.274648 0.293821
I1    I     I_    0.314166 0.078739 0.244110 -0.402108

loop_
_geom_bond_atom_site_label_1
_geom_bond_atom_site_label_2
_ccdc_geom_bond_type
C19   H18   S    
C31   O8    A    
C2    C4    A    
C31   C33   S    
C16   C21   A    
Cu1   Cu2   S    
Cu2   N1    S    
C12   O4    A    
Cu1   N2    S    
C3    C7    A    
C19   C20   A    
C7    H17   S    
C14   H4    S    
C5    C32   A    
C24   H8    S    
Cu1   O1    S    
C23   O5    A    
C17   C18   A    
C1    C18   S    
C15   H5    S    
C10   C34   A    
C3    C10   A    
C22   C28   A    
C13   C14   A    
C20   C21   A    
C35   H16   S    
C9    C33   A    
C12   O3    A    
C11   C13   A    
C8    H13   S    
C32   H12   S    
C26   C27   A    
C29   C30   A    
C6    H10   S    
C26   H9    S    
Cu2   O2    S    
C5    C6    A    
C10   C12   S    
C13   H3    S    
C23   O6    A    
Cu1   O5    S    
C30   H11   S    
C29   N1    A    
C2    C3    A    
C6    C7    A    
Cu2   O6    S    
C8    C33   A    
C1    O1    A    
C21   C23   S    
C11   H2    S    
C22   C24   A    
C22   O9    S    
C25   I1    S    
C15   C16   A    
Cu2   O8    S    
C27   C28   A    
Cu1   O3    S    
C24   C25   A    
C34   C35   A    
C1    O2    A    
C2    C36   A    
C4    C8    A    
C31   O7    A    
C14   C15   A    
C18   C19   A    
C30   N2    A    
C36   H15   S    
C9    C32   A    
C20   H6    S    
C25   C26   A    
C28   N1    A    
C34   H14   S    
C27   N2    A    
C9    H1    S    
C11   C17   A    
O9    H19   S    
C16   C17   A    
C29   H7    S    
C4    C5    A    
Cu2   O4    S    
C35   C36   A    
Cu1   O7    S    
