data_mof_unit_2465.cif
_audit_creation_date              2012-12-10T17:25:29-0500
_audit_creation_method            fapswitch 2.2
_symmetry_space_group_name_H-M    P1
_symmetry_Int_Tables_number       1
_space_group_crystal_system       triclinic
_cell_length_a                    10.091647
_cell_length_b                    10.691678
_cell_length_c                    23.355378
_cell_angle_alpha                 89.833755
_cell_angle_beta                  81.183976
_cell_angle_gamma                 95.784333
_cell_volume                      2477.08402434

loop_
_atom_site_label
_atom_site_type_symbol
_atom_type_description
_atom_site_fract_x
_atom_site_fract_y
_atom_site_fract_z
_atom_type_partial_charge
C1    C     C_R   0.556835 0.733784 0.497838 0.785052
C2    C     C_R   0.409569 0.439655 0.297436 0.036357
C3    C     C_R   0.430309 0.545656 0.774495 0.433462
C4    C     C_R   0.427618 0.449386 0.236532 0.431693
C5    C     C_R   0.541561 0.490489 0.789895 0.039558
C6    C     C_R   0.543195 0.520280 0.206230 0.040272
C7    C     C_2   0.589783 0.868056 0.504182 0.284975
C8    C     C_2   0.409232 0.133373 0.519007 0.264764
C9    C     C_2   0.491256 0.932436 0.530448 -0.210990
C10   C     C_2   0.507966 0.067365 0.531015 -0.240547
C11   C     C_2   0.927075 0.509892 0.505020 -0.129761
C12   C     C_R   0.443147 0.266542 0.506631 0.820354
C13   C     C_2   0.072234 0.487937 0.496058 -0.134470
C14   C     C_R   0.500446 0.500361 0.610986 0.920636
C15   C     C_R   0.499729 0.499757 0.389401 0.943506
C16   C     C_R   0.582493 0.406027 0.117499 0.600515
C17   C     C_R   0.592788 0.610089 0.872406 0.591289
C18   C     C_R   0.572445 0.627996 0.113288 0.583100
C19   C     C_R   0.559639 0.385731 0.879549 0.571243
C20   C     C_R   0.589267 0.626570 0.052853 -0.067288
C21   C     C_R   0.574632 0.388937 0.937901 -0.071366
C22   C     C_R   0.589093 0.510126 0.024962 -0.089934
C23   C     C_R   0.630767 0.435793 0.747997 0.497123
C24   C     C_R   0.588694 0.506141 0.964834 -0.089003
C25   C     C_R   0.583937 0.397531 0.057478 -0.129129
C26   C     C_R   0.598428 0.619003 0.932005 -0.121727
C27   C     C_R   0.600545 0.738386 0.020244 -0.300008
C28   C     C_R   0.569827 0.277498 0.970136 -0.302872
C29   C     C_R   0.610672 0.736306 0.959701 0.507035
C30   C     C_R   0.573600 0.280407 0.029736 0.504898
C31   C     C_3   0.729815 0.930426 0.937243 0.062997
C32   C     C_3   0.772611 0.017122 0.884446 -0.698633
C33   C     C_3   0.441168 0.097601 0.060017 0.072310
C34   C     C_R   0.636438 0.587305 0.236281 0.502287
C35   C     C_3   0.403208 0.019416 0.115664 -0.690121
C36   C     C_3   0.856919 0.455878 0.748398 0.095484
C37   C     C_3   0.973464 0.387979 0.762477 -0.830655
C38   C     C_3   0.863712 0.607179 0.206659 0.087752
C39   C     C_3   0.979135 0.689864 0.171263 -0.803701
C40   C     C_3   0.304932 0.630498 0.699591 -0.348349
C41   C     C_3   0.364837 0.756633 0.671073 -0.797231
C42   C     C_3   0.293463 0.351989 0.329392 -0.390199
C43   C     C_3   0.342057 0.231397 0.350102 -0.770074
C44   C     C_3   0.253437 0.507449 0.848149 0.083340
C45   C     C_R   0.608330 0.434484 0.690992 -0.380057
C46   C     C_3   0.129804 0.566427 0.877101 -0.819903
C47   C     C_3   0.248199 0.452005 0.188258 0.053305
C48   C     C_3   0.165039 0.375365 0.149090 -0.806103
C49   C     C_3   0.194432 0.078652 0.563228 0.074671
C50   C     C_3   0.056933 0.015843 0.554681 -0.763392
C51   C     C_3   0.749554 0.927284 0.426257 0.114051
C52   C     C_3   0.885363 0.002946 0.407571 -0.814083
C53   C     C_R   0.614622 0.583345 0.296377 -0.383856
C54   C     C_R   0.504612 0.496612 0.673603 -0.200180
C55   C     C_R   0.504824 0.508295 0.326980 -0.182063
C56   C     C_R   0.414275 0.554792 0.715699 0.039357
H1    H     H_    0.599935 0.827956 0.041697 0.190217
H2    H     H_    0.890992 0.578673 0.536158 0.169279
H3    H     H_    0.702088 0.989022 0.975611 0.163412
H4    H     H_    0.818295 0.880044 0.943641 0.132547
H5    H     H_    0.686569 0.066972 0.875399 0.288185
H6    H     H_    0.856142 0.087631 0.892348 0.191431
H7    H     H_    0.807639 0.961452 0.846003 0.261900
H8    H     H_    0.450121 0.033044 0.022699 0.154384
H9    H     H_    0.357395 0.156902 0.056923 0.129651
H10   H     H_    0.385597 0.082160 0.153307 0.281246
H11   H     H_    0.309745 0.956178 0.113745 0.189005
H12   H     H_    0.560956 0.187229 0.949489 0.192437
H13   H     H_    0.485736 0.961854 0.121549 0.290193
H14   H     H_    0.853894 0.544197 0.773580 0.146533
H15   H     H_    0.876296 0.479596 0.701154 0.131617
H16   H     H_    0.977989 0.298759 0.738350 0.262359
H17   H     H_    0.069529 0.448202 0.749565 0.193306
H18   H     H_    0.960196 0.366646 0.809705 0.260815
H19   H     H_    0.856757 0.512661 0.186658 0.146542
H20   H     H_    0.886899 0.598042 0.251494 0.135209
H21   H     H_    0.986032 0.785859 0.189347 0.265683
H22   H     H_    0.075844 0.649951 0.172544 0.192625
H23   H     H_    0.120543 0.617523 0.551968 0.160366
H24   H     H_    0.962094 0.695979 0.125509 0.257431
H25   H     H_    0.417071 0.814549 0.701931 0.278638
H26   H     H_    0.438001 0.743676 0.631571 0.245598
H27   H     H_    0.282936 0.808108 0.658714 0.223739
H28   H     H_    0.241789 0.575984 0.671654 0.204521
H29   H     H_    0.232412 0.651258 0.738229 0.233592
H30   H     H_    0.391367 0.180799 0.312513 0.271705
H31   H     H_    0.414566 0.251971 0.380855 0.242261
H32   H     H_    0.254598 0.169231 0.372551 0.251199
H33   H     H_    0.239185 0.400081 0.366415 0.204019
H34   H     H_    0.880004 0.384068 0.447290 0.161006
H35   H     H_    0.216465 0.324565 0.301313 0.231896
H36   H     H_    0.301412 0.466584 0.882601 0.157421
H37   H     H_    0.219058 0.430139 0.820215 0.130045
H38   H     H_    0.078686 0.607677 0.843765 0.249220
H39   H     H_    0.058118 0.493669 0.902532 0.209350
H40   H     H_    0.159939 0.641507 0.906714 0.269166
H41   H     H_    0.298933 0.537064 0.163323 0.149764
H42   H     H_    0.179131 0.481674 0.226510 0.131197
H43   H     H_    0.110540 0.290788 0.172946 0.260956
H44   H     H_    0.090426 0.432784 0.134455 0.208493
H45   H     H_    0.675773 0.386547 0.659876 0.198851
H46   H     H_    0.232136 0.345297 0.110454 0.251341
H47   H     H_    0.182269 0.177151 0.576806 0.157090
H48   H     H_    0.230081 0.026806 0.598459 0.133089
H49   H     H_    0.065311 0.917161 0.540988 0.251548
H50   H     H_    0.985649 0.015827 0.595930 0.209705
H51   H     H_    0.016851 0.067934 0.520988 0.265840
H52   H     H_    0.672155 0.972518 0.406429 0.144998
H53   H     H_    0.755980 0.830349 0.409538 0.145788
H54   H     H_    0.965595 0.958427 0.425337 0.263014
H55   H     H_    0.909465 0.006263 0.359540 0.212634
H56   H     H_    0.685345 0.638113 0.319395 0.173736
H57   H     H_    0.882491 0.100513 0.423616 0.247420
H58   H     H_    0.607309 0.112882 0.535200 0.200233
H59   H     H_    0.390774 0.886669 0.545567 0.182355
H60   H     H_    0.107750 0.417463 0.465750 0.163719
N1    N     N_R   0.568737 0.518648 0.144222 -0.338735
N2    N     N_R   0.567078 0.495293 0.848451 -0.340864
N3    N     N_2   0.842710 0.448880 0.476480 -0.192578
N4    N     N_2   0.157290 0.551120 0.523520 -0.192032
O1    O     O_R   0.431060 0.692470 0.504730 -0.623479
O2    O     O_2   0.610730 0.714602 0.838428 -0.486647
O3    O     O_2   0.556732 0.737183 0.141102 -0.554366
O4    O     O_2   0.533729 0.274269 0.854367 -0.545166
O5    O     O_3   0.616930 0.847506 0.928092 -0.560340
O6    O     O_3   0.566674 0.169057 0.061107 -0.571863
O7    O     O_3   0.735922 0.376731 0.763610 -0.564118
O8    O     O_3   0.743580 0.664016 0.206542 -0.560257
O9    O     O_3   0.344064 0.601492 0.816433 -0.580581
O10   O     O_3   0.341960 0.376637 0.206052 -0.584390
O11   O     O_3   0.284493 0.075512 0.510780 -0.601498
O12   O     O_R   0.568940 0.307530 0.495270 -0.628446
O13   O     O_3   0.719417 0.925875 0.487323 -0.604673
O14   O     O_R   0.651120 0.659650 0.489640 -0.587501
O15   O     O_R   0.348880 0.340350 0.510360 -0.596363
O16   O     O_R   0.389950 0.516450 0.591390 -0.616874
O17   O     O_R   0.610050 0.483550 0.408610 -0.610166
O18   O     O_R   0.610020 0.483630 0.576300 -0.616707
O19   O     O_R   0.389980 0.516370 0.423700 -0.606769
O20   O     O_2   0.592561 0.302972 0.149427 -0.485291
Zn1   Zn    Zn3+2 0.353060 0.521920 0.510080 0.933449
Zn2   Zn    Zn3+2 0.646940 0.478080 0.489920 0.939043

loop_
_geom_bond_atom_site_label_1
_geom_bond_atom_site_label_2
_ccdc_geom_bond_type
C31   H4    S    
C37   H18   S    
C30   O6    S    
C23   C45   A    
C29   O5    S    
C27   C29   A    
O19   Zn1   S    
C40   H28   S    
O17   Zn2   S    
C11   N3    D    
C49   H48   S    
C33   H9    S    
C38   H20   S    
C52   H57   S    
C49   O11   S    
C47   H42   S    
C43   H32   S    
C39   H21   S    
C36   C37   S    
C28   H12   S    
C24   C26   A    
C32   H5    S    
C7    O13   S    
C2    C55   A    
C38   C39   S    
C11   C13   S    
C41   H27   S    
C16   C25   A    
C42   H35   S    
C31   H3    S    
C44   H37   S    
C46   H39   S    
C14   O18   A    
C19   N2    A    
C44   C46   S    
C51   H52   S    
C40   C56   S    
C12   O15   A    
C5    C23   A    
C50   H49   S    
C52   H54   S    
C11   H2    S    
C9    C10   S    
C6    N1    S    
C44   H36   S    
C36   H15   S    
C18   O3    S    
C48   H46   S    
C51   H53   S    
C3    O9    S    
C16   O20   S    
C36   H14   S    
C15   O19   A    
C38   H19   S    
C53   C55   A    
O12   Zn2   S    
C48   H44   S    
C54   C56   A    
C19   O4    S    
C47   O10   S    
C51   C52   S    
C9    H59   S    
C39   H22   S    
O1    Zn1   S    
C4    C6    A    
O18   Zn2   S    
C4    O10   S    
C52   H55   S    
C44   O9    S    
C22   C25   A    
C6    C34   A    
C15   C55   S    
C40   H29   S    
C2    C4    A    
O16   Zn1   S    
O14   Zn2   S    
C3    C56   A    
C47   C48   S    
C46   H38   S    
C35   H11   S    
C8    C12   S    
C41   H25   S    
H23   N4    S    
C8    O11   S    
C18   N1    A    
C45   H45   S    
C17   N2    A    
C26   C29   A    
C53   H56   S    
C34   O8    S    
C40   C41   S    
C14   C54   S    
C21   C28   A    
C20   C22   A    
C45   C54   A    
C27   H1    S    
C50   H51   S    
C22   C24   A    
C21   C24   A    
C36   O7    S    
C42   C43   S    
C17   C26   A    
C1    O14   A    
C13   N4    D    
C23   O7    S    
C25   C30   A    
C7    C9    D    
C48   H43   S    
C37   H17   S    
C12   O12   A    
C19   C21   A    
C1    C7    S    
C43   H30   S    
C31   C32   S    
N4    Zn1   S    
C32   H7    S    
C3    C5    A    
C10   H58   S    
C49   H47   S    
C38   O8    S    
C20   C27   A    
C5    N2    S    
C35   H10   S    
C47   H41   S    
C42   H33   S    
C43   H31   S    
H34   N3    S    
C28   C30   A    
C32   H6    S    
C16   N1    A    
C39   H24   S    
C51   O13   S    
C14   O16   A    
C2    C42   S    
C33   H8    S    
C41   H26   S    
C33   O6    S    
C33   C35   S    
C18   C20   A    
C1    O1    A    
C13   H60   S    
C17   O2    S    
O15   Zn1   S    
C46   H40   S    
C35   H13   S    
C34   C53   A    
C8    C10   D    
C49   C50   S    
C37   H16   S    
C50   H50   S    
N3    Zn2   S    
C31   O5    S    
C15   O17   A    
