data_mof_unit_4455.cif
_audit_creation_date              2013-03-05T16:31:06-0500
_audit_creation_method            fapswitch 2.2
_symmetry_space_group_name_H-M    P1
_symmetry_Int_Tables_number       1
_space_group_crystal_system       triclinic
_cell_length_a                    10.858533
_cell_length_b                    10.936555
_cell_length_c                    9.506497
_cell_angle_alpha                 92.039282
_cell_angle_beta                  89.716815
_cell_angle_gamma                 90.987767
_cell_volume                      1128.05027024

loop_
_atom_site_label
_atom_site_type_symbol
_atom_site_description
_atom_site_fract_x
_atom_site_fract_y
_atom_site_fract_z
_atom_type_partial_charge
O1    O     O_R   0.500000 0.319640 0.618810 -0.584037
O2    O     O_R   0.500010 0.319680 0.381230 -0.556888
C1    C     C_R   0.499576 0.262420 0.496841 0.807571
O3    O     O_R   0.319640 0.499980 0.618820 -0.600011
O4    O     O_R   0.319650 0.500020 0.381230 -0.588880
C2    C     C_R   0.262021 0.507236 0.501611 0.814386
Cu1   Cu    Cu3+1 0.499990 0.499980 0.640670 0.953422
Cu2   Cu    Cu3+1 0.500010 0.500020 0.359330 0.977492
O5    O     O_R   0.499990 0.680320 0.618770 -0.584221
O6    O     O_R   0.500000 0.680360 0.381190 -0.598039
O7    O     O_R   0.680350 0.499980 0.618770 -0.594491
O8    O     O_R   0.680360 0.500020 0.381180 -0.599171
C3    C     C_R   0.502520 0.738025 0.501977 0.824616
C4    C     C_R   0.737256 0.488709 0.500073 0.798241
H1    H     H_    0.111992 0.501199 0.278487 0.161770
C5    C     C_R   0.112130 0.541863 0.768804 -0.169951
H2    H     H_    0.196738 0.594453 0.779660 0.172920
C6    C     C_R   0.052247 0.511258 0.893051 -0.093760
H3    H     H_    0.094419 0.533759 0.993858 0.148924
C7    C     C_R   0.939754 0.449052 0.887079 -0.114030
H4    H     H_    0.895637 0.419912 0.982924 0.145933
C8    C     C_R   0.881365 0.429134 0.757912 -0.170553
H5    H     H_    0.794933 0.378690 0.757979 0.163831
C9    C     C_R   0.935972 0.470679 0.632136 0.109252
C10   C     C_R   0.060430 0.508848 0.635729 0.099720
C11   C     C_R   0.127166 0.511118 0.506352 -0.115396
C12   C     C_R   0.063760 0.499324 0.378441 -0.168674
H6    H     H_    0.890457 0.483842 0.276565 0.169296
C13   C     C_R   0.936996 0.486429 0.377036 -0.190609
C14   C     C_R   0.871340 0.476281 0.503068 -0.120653
C15   C     C_R   0.537913 0.070876 0.610560 0.085404
C16   C     C_R   0.508515 0.129910 0.489065 -0.156791
C17   C     C_R   0.492206 0.056609 0.363649 -0.034105
C18   C     C_R   0.489776 0.928803 0.372430 -0.209892
H7    H     H_    0.469332 0.874345 0.277661 0.202858
C19   C     C_R   0.510072 0.871542 0.501141 -0.099988
C20   C     C_R   0.546891 0.946551 0.616868 0.060881
C21   C     C_3   0.526527 0.955471 0.775053 -0.111080
C22   C     C_3   0.507767 0.092907 0.761493 -0.486053
H8    H     H_    0.410957 0.122616 0.776783 0.204312
H9    H     H_    0.577395 0.153957 0.815151 0.213497
C23   C     C_R   0.602168 0.539007 0.074909 0.201122
N1    N     N_R   0.500790 0.500930 0.147930 -0.182992
C24   C     C_R   0.404698 0.449452 0.072926 -0.011000
H10   H     H_    0.326915 0.409865 0.127452 0.129064
C25   C     C_R   0.404544 0.449800 0.923911 -0.060825
H11   H     H_    0.326812 0.410288 0.867007 0.138686
N2    N     N_R   0.500790 0.500890 0.852020 -0.184145
C26   C     C_R   0.603518 0.534070 0.926484 0.174613
C27   C     C_3   0.665031 0.654274 0.917015 -0.363250
C28   C     C_3   0.655410 0.666570 0.076641 -0.254078
H12   H     H_    0.759227 0.646208 0.872131 0.241755
H13   H     H_    0.604324 0.714484 0.860167 0.210892
H14   H     H_    0.587397 0.735781 0.112726 0.198023
C29   C     C_2   0.642864 0.936990 0.859063 0.829860
O9    O     O_2   0.738099 0.905343 0.799830 -0.584845
O10   O     O_R   0.641998 0.960616 0.004459 -0.730206
H15   H     H_    0.725025 0.946994 0.049052 0.348812
C30   C     C_2   0.775769 0.680964 0.153955 0.374747
H16   H     H_    0.774955 0.686596 0.267967 0.100992
O11   O     O_2   0.873829 0.691604 0.091715 -0.540489
C31   C     C_2   0.470637 0.106507 0.223355 0.919512
O12   O     O_2   0.548707 0.171989 0.169385 -0.567216
O13   O     O_R   0.363912 0.072279 0.149271 -0.735500
H17   H     H_    0.360266 0.110356 0.053717 0.326715
C32   C     C_2   0.411931 0.888167 0.824903 0.852331
O14   O     O_2   0.412197 0.834606 0.935651 -0.588491
O15   O     O_R   0.304388 0.889311 0.744564 -0.752828
H18   H     H_    0.234056 0.841428 0.788171 0.341685

loop_
_geom_bond_atom_site_label_1
_geom_bond_atom_site_label_2
_geom_bond_distance
_ccdc_geom_bond_type
O4    Cu2   1.968456 S    
C32   O15   1.398961 S    
C29   O9    1.224326 D    
O6    C3    1.290406 A    
C9    C10   1.407755 A    
C13   C14   1.397989 A    
C5    C10   1.418966 A    
C12   C13   1.381336 A    
C1    C16   1.453342 S    
C27   H12   1.110025 S    
C15   C16   1.384400 A    
Cu2   N1    2.010026 S    
Cu2   O8    1.970343 S    
C23   C28   1.500488 S    
N1    C24   1.368435 A    
C28   H14   1.111007 S    
C16   C17   1.422913 A    
O2    C1    1.284114 A    
C11   C12   1.401192 A    
C30   H16   1.083411 S    
C22   H9    1.113459 S    
C5    C6    1.393921 A    
C2    C11   1.466099 S    
Cu1   N2    2.008931 S    
Cu1   O7    1.968456 S    
O10   H15   1.013709 S    
C31   O12   1.222968 D    
C19   C20   1.404268 A    
C4    C14   1.465127 S    
O3    Cu1   1.970341 S    
O13   H17   1.013892 S    
O3    C2    1.286148 A    
N2    C26   1.361124 A    
C20   C21   1.518820 S    
C15   C22   1.482381 S    
C17   C18   1.402999 A    
C6    C7    1.388328 A    
C29   O10   1.397099 S    
O4    C2    1.302175 A    
C18   H7    1.083921 S    
O7    C4    1.286905 A    
C8    C9    1.417776 A    
C30   O11   1.221390 D    
C9    C14   1.420265 A    
C28   C30   1.505725 S    
C23   N1    1.365392 A    
C7    C8    1.393234 A    
C23   C26   1.410123 A    
C27   H13   1.097272 S    
C25   N2    1.368024 A    
C21   C32   1.517303 S    
O8    C4    1.301517 A    
Cu1   Cu2   2.674572 S    
C32   O14   1.222936 D    
C7    H4    1.082745 S    
C18   C19   1.414166 A    
C3    C19   1.461410 S    
Cu2   O6    1.975850 S    
C26   C27   1.469696 S    
C22   H8    1.112945 S    
Cu1   O5    1.990610 S    
C6    H3    1.082724 S    
O5    C3    1.296437 A    
C25   H11   1.080323 S    
H6    C13   1.082029 S    
C31   O13   1.397675 S    
C27   C28   1.521889 S    
C10   C11   1.425201 A    
O1    Cu1   1.975850 S    
H1    C12   1.083384 S    
O15   H18   1.013841 S    
C8    H5    1.080440 S    
O2    Cu2   1.990611 S    
C24   H10   1.080981 S    
C15   C20   1.368316 A    
C5    H2    1.078881 S    
C24   C25   1.416758 A    
C17   C31   1.480107 S    
O1    C1    1.297836 A    
C21   C29   1.518143 S    
C21   C22   1.530341 S    
