data_mof_unit_2483.cif
_audit_creation_date              2012-12-10T18:23:03-0500
_audit_creation_method            fapswitch 2.2
_symmetry_space_group_name_H-M    P1
_symmetry_Int_Tables_number       1
_space_group_crystal_system       triclinic
_cell_length_a                    15.11304
_cell_length_b                    14.183758
_cell_length_c                    10.540699
_cell_angle_alpha                 91.43616
_cell_angle_beta                  87.124929
_cell_angle_gamma                 87.708867
_cell_volume                      2254.02340302

loop_
_atom_site_label
_atom_site_type_symbol
_atom_type_description
_atom_site_fract_x
_atom_site_fract_y
_atom_site_fract_z
_atom_type_partial_charge
C1    C     C_R   0.326966 0.501441 0.498783 0.978574
C2    C     C_R   0.673034 0.498558 0.501217 0.978576
C3    C     C_R   0.953357 0.499838 0.501564 -0.106148
C4    C     C_R   0.046643 0.500161 0.498436 -0.106148
C5    C     C_R   0.911664 0.454505 0.401143 -0.124996
C6    C     C_R   0.088336 0.545494 0.598857 -0.124998
C7    C     C_R   0.945429 0.580834 0.710273 0.341234
C8    C     C_R   0.054571 0.419165 0.289727 0.341234
C9    C     C_R   0.037604 0.577305 0.708993 0.480262
C10   C     C_R   0.962396 0.422693 0.291008 0.480260
C11   C     C_R   0.550372 0.794772 0.409269 0.404576
C12   C     C_R   0.449628 0.205228 0.590731 0.404577
C13   C     C_R   0.453538 0.803192 0.594225 0.421120
C14   C     C_R   0.546462 0.196808 0.405775 0.421119
C15   C     C_R   0.451088 0.903414 0.594642 -0.068528
C16   C     C_R   0.548912 0.096586 0.405358 -0.068528
C17   C     C_R   0.550352 0.895094 0.406340 -0.059966
C18   C     C_R   0.449647 0.104906 0.593660 -0.059966
C19   C     C_R   0.500085 0.949572 0.499938 0.035451
C20   C     C_R   0.499915 0.050428 0.500062 0.035451
C21   C     C_R   0.401372 0.958837 0.688016 -0.108010
C22   C     C_R   0.598628 0.041163 0.311984 -0.108010
C23   C     C_R   0.599538 0.942587 0.312724 -0.115338
C24   C     C_R   0.400462 0.057412 0.687276 -0.115338
C25   C     C_R   0.500820 0.499239 0.257466 0.974460
C26   C     C_R   0.499180 0.500761 0.742534 0.974459
C27   C     C_3   0.496306 0.590240 0.045863 -0.244125
C28   C     C_3   0.503693 0.409760 0.954137 -0.244119
C29   C     C_3   0.571132 0.546577 0.954318 -0.296543
C30   C     C_3   0.428867 0.453423 0.045682 -0.296539
C31   C     C_3   0.426144 0.543528 0.967727 0.589956
C32   C     C_3   0.573855 0.456472 0.032273 0.589958
C33   C     C_3   0.499564 0.501007 0.877484 -0.143449
C34   C     C_3   0.500435 0.498993 0.122516 -0.143451
C35   C     C_R   0.820066 0.443673 0.412328 0.344509
C36   C     C_R   0.179933 0.556328 0.587671 0.344508
C37   C     C_R   0.768893 0.496430 0.505031 -0.272144
C38   C     C_R   0.231107 0.503570 0.494969 -0.272145
C39   C     C_R   0.808787 0.552118 0.596518 0.345390
C40   C     C_R   0.191213 0.447881 0.403483 0.345391
C41   C     C_R   0.901770 0.545447 0.604216 -0.092728
C42   C     C_R   0.098230 0.454551 0.395785 -0.092728
H1    H     H_    0.492495 0.663463 0.086099 0.213141
H2    H     H_    0.507504 0.336537 0.913901 0.213143
H3    H     H_    0.628971 0.583534 0.914106 0.237615
H4    H     H_    0.371028 0.416466 0.085894 0.237616
H5    H     H_    0.361936 0.927018 0.762574 0.206940
H6    H     H_    0.638064 0.072982 0.237426 0.206941
H7    H     H_    0.638992 0.904380 0.238381 0.208301
H8    H     H_    0.361007 0.095620 0.761618 0.208301
N1    N     N_R   0.500000 0.750030 0.500000 -0.168067
N2    N     N_R   0.500000 0.249970 0.500000 -0.168067
O1    O     O_R   0.367850 0.580280 0.500030 -0.584247
O2    O     O_R   0.632150 0.419720 0.499970 -0.584247
O3    O     O_R   0.632150 0.580280 0.499970 -0.540058
O4    O     O_R   0.367850 0.419720 0.500030 -0.540058
O5    O     O_R   0.499970 0.580260 0.313950 -0.618845
O6    O     O_R   0.500030 0.419740 0.686050 -0.618845
O7    O     O_R   0.500030 0.580260 0.686050 -0.541948
O8    O     O_R   0.499970 0.419740 0.313950 -0.541948
Zn1   Zn    Zn3+2 0.500000 0.607200 0.500000 1.102396
Zn2   Zn    Zn3+2 0.500000 0.392800 0.500000 1.102396
O9    O     O_3   0.349273 0.588474 0.923367 -0.530206
C43   C     C_3   0.294943 0.623237 0.028039 -0.154094
H9    H     H_    0.329357 0.675589 0.086100 0.142685
H10   H     H_    0.271580 0.564835 0.088003 0.141798
H11   H     H_    0.235690 0.660279 0.991929 0.238659
O10   O     O_3   0.650725 0.411525 0.076632 -0.530201
C44   C     C_3   0.705059 0.376769 0.971958 -0.154102
H12   H     H_    0.728430 0.435177 0.912012 0.141812
H13   H     H_    0.670646 0.324429 0.913881 0.142672
H14   H     H_    0.764306 0.339717 0.008068 0.238662
Cl1   Cl    Cl    0.769191 0.362316 0.312858 -0.439519
Cl2   Cl    Cl    0.230808 0.637687 0.687139 -0.439520
Cl3   Cl    Cl    0.740494 0.633655 0.692431 -0.523792
Cl4   Cl    Cl    0.259506 0.366344 0.307570 -0.523790
Cl5   Cl    Cl    0.891303 0.620037 0.856324 -0.534932
Cl6   Cl    Cl    0.108697 0.379961 0.143677 -0.534929
O11   O     O_3   0.077030 0.602017 0.820086 -0.541275
C45   C     C_3   0.099140 0.518795 0.884124 -0.111913
H15   H     H_    0.041593 0.472653 0.896688 0.159369
H16   H     H_    0.119804 0.539093 0.980019 0.199836
H17   H     H_    0.155706 0.478631 0.833921 0.194876
O12   O     O_3   0.922971 0.397981 0.179914 -0.541273
C46   C     C_3   0.900863 0.481203 0.115875 -0.111912
H18   H     H_    0.958410 0.527344 0.103312 0.159369
H19   H     H_    0.844296 0.521368 0.166075 0.194877
H20   H     H_    0.880201 0.460904 0.019978 0.199834
Cl7   Cl    Cl    0.620852 0.726908 0.300777 -0.567063
Cl8   Cl    Cl    0.379148 0.273092 0.699222 -0.567064
Cl9   Cl    Cl    0.402610 0.747529 0.723201 -0.473225
Cl10  Cl    Cl    0.597390 0.252471 0.276800 -0.473221

loop_
_geom_bond_atom_site_label_1
_geom_bond_atom_site_label_2
_ccdc_geom_bond_type
O6    Zn2   S    
C22   H6    S    
C27   C29   S    
C19   C20   A    
N1    Zn1   S    
C6    C9    A    
C39   C41   A    
C46   H18   S    
C15   C19   A    
C17   C23   A    
C18   C24   A    
C12   Cl8   S    
C35   C37   A    
C1    O4    A    
C8    C42   A    
C29   C32   S    
C2    O3    A    
C30   C31   S    
C23   H7    S    
C29   C33   S    
O8    Zn2   S    
C9    O11   S    
C44   H13   S    
C1    O1    A    
C13   N1    A    
O1    Zn1   S    
C14   N2    A    
O10   C44   S    
C31   C33   S    
C25   O8    A    
C39   Cl3   S    
C35   Cl1   S    
C26   O7    A    
C18   C20   A    
C25   C34   S    
C7    Cl5   S    
C40   C42   A    
C13   Cl9   S    
C8    Cl6   S    
C25   O5    A    
C45   H17   S    
C12   N2    A    
C46   H19   S    
C27   C34   S    
C24   H8    S    
O7    Zn1   S    
C30   C34   S    
C27   C31   S    
C43   H11   S    
C31   O9    S    
C28   C32   S    
C11   N1    A    
O12   C46   S    
C45   H16   S    
C2    O2    A    
O2    Zn2   S    
O9    C43   S    
C28   H2    S    
C40   Cl4   S    
C29   H3    S    
C43   H10   S    
C44   H14   S    
C11   Cl7   S    
C26   C33   S    
C16   C20   A    
C26   O6    A    
C14   Cl10  S    
C36   Cl2   S    
C1    C38   S    
C4    C6    A    
C28   C33   S    
C13   C15   A    
C14   C16   A    
C3    C4    A    
C46   H20   S    
C7    C9    A    
C11   C17   A    
C16   C22   A    
C30   H4    S    
C45   H15   S    
C3    C5    A    
O5    Zn1   S    
C5    C35   A    
C32   O10   S    
C43   H9    S    
C28   C30   S    
C5    C10   A    
C37   C39   A    
N2    Zn2   S    
C36   C38   A    
C38   C40   A    
C2    C37   S    
C4    C42   A    
O3    Zn1   S    
C10   O12   S    
C17   C19   A    
C6    C36   A    
O4    Zn2   S    
C7    C41   A    
C44   H12   S    
C3    C41   A    
O11   C45   S    
C27   H1    S    
C15   C21   A    
C8    C10   A    
C21   C24   A    
C12   C18   A    
C22   C23   A    
C32   C34   S    
C21   H5    S    
