data_mof_unit_3774.cif
_audit_creation_date              2012-12-10T17:43:40-0500
_audit_creation_method            fapswitch 2.2
_symmetry_space_group_name_H-M    P1
_symmetry_Int_Tables_number       1
_space_group_crystal_system       triclinic
_cell_length_a                    14.95803
_cell_length_b                    10.715058
_cell_length_c                    9.890634
_cell_angle_alpha                 89.201281
_cell_angle_beta                  90.850504
_cell_angle_gamma                 92.265898
_cell_volume                      1583.67737284

loop_
_atom_site_label
_atom_site_type_symbol
_atom_type_description
_atom_site_fract_x
_atom_site_fract_y
_atom_site_fract_z
_atom_type_partial_charge
C1    C     C_R   0.506153 0.260075 0.502267 0.863666
C2    C     C_R   0.185869 0.417921 0.589814 -0.258299
C3    C     C_R   0.231541 0.493557 0.495846 -0.051859
C4    C     C_R   0.326981 0.498867 0.498960 0.855157
C5    C     C_R   0.186457 0.561828 0.397012 -0.255003
C6    C     C_R   0.512802 0.106828 0.762794 -0.133881
C7    C     C_R   0.480930 0.042719 0.877097 -0.137519
C8    C     C_R   0.433327 0.929671 0.862687 -0.110984
C9    C     C_R   0.426253 0.874824 0.735891 -0.118432
C10   C     C_R   0.466883 0.933633 0.621741 0.102590
C11   C     C_R   0.497569 0.057925 0.631440 0.099162
C12   C     C_R   0.907839 0.558706 0.398794 0.122799
C13   C     C_R   0.511728 0.126264 0.508679 -0.103244
C14   C     C_R   0.516811 0.064844 0.385631 -0.242923
C15   C     C_R   0.504741 0.937777 0.381781 -0.224640
C16   C     C_R   0.491433 0.738893 0.499312 0.897407
C17   C     C_R   0.481706 0.871482 0.499432 -0.127259
C18   C     C_R   0.383392 0.333558 0.140032 -0.274017
C19   C     C_R   0.326624 0.248899 0.069596 0.490156
C20   C     C_R   0.325565 0.252380 0.929384 -0.260960
C21   C     C_R   0.383377 0.334056 0.859529 -0.233899
C22   C     C_R   0.443052 0.417295 0.927561 0.079744
C23   C     C_R   0.953818 0.334151 0.681259 -0.189921
C24   C     C_R   0.442947 0.417378 0.072166 0.100857
C25   C     C_R   0.553310 0.580463 0.072283 -0.179864
C26   C     C_R   0.552958 0.581447 0.929297 0.398501
C27   C     C_R   0.673244 0.497948 0.501166 0.967613
C28   C     C_R   0.815645 0.560421 0.402565 -0.319117
C29   C     C_R   0.769198 0.493646 0.503143 -0.174039
C30   C     C_R   0.814008 0.422410 0.601902 0.399236
C31   C     C_R   0.906852 0.413151 0.593223 0.003242
C32   C     C_R   0.953753 0.485153 0.494344 -0.001128
C33   C     C_3   0.313182 0.086096 0.221863 0.103878
C34   C     C_R   0.046611 0.334964 0.679676 -0.226090
C35   C     C_3   0.251542 0.975212 0.259835 -0.812514
C36   C     C_3   0.772771 0.419267 0.823090 0.123242
C37   C     C_3   0.715482 0.350215 0.927956 -0.789731
C38   C     C_R   0.093303 0.411958 0.587603 0.128575
C39   C     C_R   0.046889 0.484763 0.491816 0.088922
C40   C     C_R   0.093826 0.558919 0.395008 0.120726
C41   C     C_R   0.047568 0.630064 0.299404 -0.214157
C42   C     C_R   0.954704 0.629646 0.301037 -0.188075
Cl1   Cl    Cl    0.622218 0.693252 0.846864 -0.634001
H1    H     H_    0.779758 0.615891 0.328553 0.174927
H2    H     H_    0.379563 0.328738 0.752309 0.222661
H3    H     H_    0.919348 0.272747 0.752902 0.187584
H4    H     H_    0.081866 0.276358 0.751172 0.156690
H5    H     H_    0.222443 0.363175 0.663511 0.144086
H6    H     H_    0.223595 0.619325 0.324268 0.152798
H7    H     H_    0.083186 0.686707 0.224482 0.150087
H8    H     H_    0.919588 0.685770 0.227016 0.152126
H9    H     H_    0.530221 0.114907 0.291658 0.168799
H10   H     H_    0.334201 0.134334 0.316592 0.147912
H11   H     H_    0.372877 0.049071 0.171937 0.126308
H12   H     H_    0.552006 0.191706 0.780282 0.179092
H13   H     H_    0.229946 0.923615 0.167561 0.248280
H14   H     H_    0.287450 0.910946 0.328889 0.204340
H15   H     H_    0.191606 0.007885 0.311796 0.262666
H16   H     H_    0.749275 0.515858 0.811432 0.202336
H17   H     H_    0.842715 0.425158 0.862644 0.127097
H18   H     H_    0.739038 0.254042 0.943802 0.252796
H19   H     H_    0.719992 0.400431 0.025456 0.212198
H20   H     H_    0.644648 0.344977 0.893343 0.248321
H21   H     H_    0.491545 0.082291 0.976457 0.126868
H22   H     H_    0.404745 0.882346 0.950284 0.132892
H23   H     H_    0.389299 0.786285 0.728252 0.149074
H24   H     H_    0.514722 0.891596 0.286697 0.176187
H25   H     H_    0.596655 0.645977 0.127075 0.175108
H26   H     H_    0.377826 0.332896 0.246953 0.212395
H27   H     H_    0.280481 0.189641 0.873709 0.167473
N1    N     N_R   0.499150 0.498800 0.142780 -0.128469
N2    N     N_R   0.499120 0.498720 0.857170 -0.150356
O1    O     O_R   0.500000 0.316780 0.614690 -0.654620
O2    O     O_3   0.766070 0.354791 0.699160 -0.613528
O3    O     O_R   0.499990 0.316750 0.385360 -0.645088
O4    O     O_R   0.367850 0.499980 0.614680 -0.646796
O5    O     O_R   0.367840 0.499960 0.385350 -0.635592
O6    O     O_R   0.500010 0.683250 0.614640 -0.566728
O7    O     O_R   0.500000 0.683220 0.385310 -0.630304
O8    O     O_R   0.632160 0.500040 0.614650 -0.554194
O9    O     O_R   0.632150 0.500020 0.385320 -0.629137
O10   O     O_3   0.266578 0.167997 0.135334 -0.604172
Zn1   Zn    Zn3+2 0.500010 0.500020 0.653130 0.979495
Zn2   Zn    Zn3+2 0.499990 0.499980 0.346870 0.934473

loop_
_geom_bond_atom_site_label_1
_geom_bond_atom_site_label_2
_ccdc_geom_bond_type
C27   C29   S    
C26   N2    A    
C41   C42   A    
C19   C20   A    
C6    H12   S    
C36   H16   S    
C5    H6    S    
C37   H19   S    
C7    C8    A    
C12   C28   A    
C35   H15   S    
C18   C24   A    
C36   C37   S    
O7    Zn2   S    
C30   O2    S    
O3    Zn2   S    
C10   C17   A    
C18   C19   A    
C32   C39   A    
C9    H23   S    
C12   C42   A    
O6    Zn1   S    
C14   H9    S    
C8    C9    A    
C25   N1    A    
C19   O10   S    
C9    C10   A    
C42   H8    S    
C18   H26   S    
C8    H22   S    
C23   H3    S    
C13   C14   A    
C12   C32   A    
C20   H27   S    
C25   H25   S    
O8    Zn1   S    
O4    Zn1   S    
C22   N2    A    
C37   H20   S    
C26   Cl1   S    
C21   H2    S    
C33   H10   S    
C1    O3    A    
C27   O9    A    
C27   O8    A    
C39   C40   A    
C16   C17   S    
O5    Zn2   S    
C2    H5    S    
C25   C26   A    
C28   H1    S    
C23   C31   A    
C29   C30   A    
C2    C38   A    
C31   C32   A    
C30   C31   A    
C23   C34   A    
C15   H24   S    
C36   O2    S    
C40   C41   A    
C22   C24   A    
C1    C13   S    
C3    C4    S    
C41   H7    S    
C6    C11   A    
O9    Zn2   S    
N1    Zn2   S    
C33   O10   S    
C33   H11   S    
C15   C17   A    
C28   C29   A    
C35   H13   S    
C34   C38   A    
C3    C5    A    
C37   H18   S    
C6    C7    A    
C35   H14   S    
C16   O7    A    
C1    O1    A    
C2    C3    A    
C4    O5    A    
C11   C13   A    
C38   C39   A    
C33   C35   S    
C16   O6    A    
C7    H21   S    
C4    O4    A    
N2    Zn1   S    
C10   C11   A    
C20   C21   A    
C5    C40   A    
C36   H17   S    
C14   C15   A    
C34   H4    S    
C21   C22   A    
O1    Zn1   S    
C24   N1    A    
