data_mof_unit_4843.cif
_audit_creation_date              2013-03-05T15:53:05-0500
_audit_creation_method            fapswitch 2.2
_symmetry_space_group_name_H-M    P1
_symmetry_Int_Tables_number       1
_space_group_crystal_system       triclinic
_cell_length_a                    6.953002
_cell_length_b                    20.454621
_cell_length_c                    24.404717
_cell_angle_alpha                 89.598161
_cell_angle_beta                  90.482403
_cell_angle_gamma                 89.418144
_cell_volume                      3470.47430987

loop_
_atom_site_label
_atom_site_type_symbol
_atom_site_description
_atom_site_fract_x
_atom_site_fract_y
_atom_site_fract_z
_atom_type_partial_charge
O1    O     O_R   0.507320 0.423560 0.460500 -0.589715
O2    O     O_R   0.170760 0.556250 0.437010 -0.588901
O3    O     O_R   0.004030 0.576440 0.539500 -0.588428
C1    C     C_R   0.338736 0.576398 0.421072 0.978842
O4    O     O_R   0.177370 0.422820 0.454110 -0.591648
O5    O     O_R   0.010680 0.442050 0.556720 -0.590187
C2    C     C_R   0.346320 0.398903 0.443453 0.922572
O6    O     O_R   0.500680 0.557950 0.443280 -0.588201
O7    O     O_3   0.340380 0.506470 0.533650 -0.272380
V1    V     V_3+5 0.064130 0.498800 0.493760 1.166247
O8    O     O_R   0.681160 0.443750 0.562990 -0.592398
C3    C     C_R   0.850959 0.423665 0.578884 0.978558
O9    O     O_R   0.674560 0.577180 0.545890 -0.590874
C4    C     C_R   0.842628 0.601094 0.556561 0.928323
V2    V     V_3+5 0.564560 0.501200 0.506240 1.165586
O10   O     O_3   0.838180 0.493530 0.466350 -0.271780
C5    C     C_R   0.976706 0.838161 0.911211 -0.096489
C6    C     C_R   0.847193 0.661797 0.588757 -0.104613
C7    C     C_R   0.043621 0.722225 0.905913 -0.180397
C8    C     C_R   0.033675 0.779485 0.936227 -0.164877
C9    C     C_R   0.930191 0.839316 0.854988 -0.247093
C10   C     C_R   0.942552 0.781573 0.822687 0.109493
C11   C     C_R   0.000096 0.722758 0.849645 0.187797
C12   C     C_R   0.902665 0.780105 0.764786 0.061575
C13   C     C_R   0.921151 0.719854 0.735182 0.062768
C14   C     C_R   0.978251 0.663111 0.764500 -0.198358
C15   C     C_R   0.016322 0.664719 0.820383 -0.242167
C16   C     C_R   0.845536 0.836844 0.735470 -0.198021
C17   C     C_R   0.807451 0.835235 0.679586 -0.235639
C18   C     C_R   0.823705 0.777197 0.650323 0.179433
C19   C     C_R   0.881281 0.718386 0.677280 0.110773
C20   C     C_R   0.780184 0.777727 0.594054 -0.169788
C21   C     C_R   0.790178 0.720467 0.563739 -0.152767
C22   C     C_R   0.893700 0.660645 0.644980 -0.246112
H1    H     H_    0.060331 0.619782 0.840954 0.130480
H2    H     H_    0.934143 0.613816 0.662186 0.101320
H3    H     H_    0.751974 0.721809 0.520604 0.122488
H4    H     H_    0.763415 0.880170 0.659015 0.133582
H5    H     H_    0.088309 0.677364 0.926450 0.114606
H6    H     H_    0.071897 0.778141 0.979360 0.109038
H7    H     H_    0.889809 0.886150 0.837778 0.101529
H8    H     H_    0.995684 0.616174 0.745428 0.130343
H9    H     H_    0.828073 0.883780 0.754544 0.130779
H10   H     H_    0.735471 0.822585 0.573516 0.125344
C23   C     C_3   0.858779 0.308614 0.769421 -0.159957
C24   C     C_3   0.045526 0.270904 0.785712 -0.160370
H11   H     H_    0.155867 0.287908 0.815352 0.112534
H12   H     H_    0.814574 0.357198 0.785240 0.113907
H13   H     H_    0.222002 0.259805 0.703467 0.116106
C25   C     C_1   0.960527 0.121801 0.875257 -0.294702
C26   C     C_1   0.863790 0.378147 0.624715 -0.294603
C27   C     C_3   0.742462 0.244705 0.775400 -0.158703
C28   C     C_3   0.928998 0.207619 0.791080 0.228549
C29   C     C_3   0.778808 0.229043 0.714258 -0.158721
C30   C     C_3   0.895336 0.292328 0.708890 0.228631
C31   C     C_3   0.965555 0.191333 0.730549 -0.157962
C32   C     C_3   0.081872 0.255242 0.724570 -0.157699
C33   C     C_1   0.947212 0.160311 0.837222 -0.044121
C34   C     C_1   0.877116 0.339637 0.662748 -0.043509
H14   H     H_    0.009760 0.142749 0.714730 0.115847
H15   H     H_    0.668467 0.212039 0.684618 0.114137
H16   H     H_    0.602332 0.240142 0.796503 0.115704
C35   C     C_3   0.460736 0.717752 0.204688 -0.214085
C36   C     C_3   0.271893 0.708598 0.237435 -0.120443
H17   H     H_    0.154966 0.674214 0.226862 0.116582
H18   H     H_    0.499412 0.690867 0.166919 0.135057
H19   H     H_    0.112782 0.811702 0.234229 0.192581
C37   C     C_1   0.348609 0.622066 0.375180 -0.298004
C38   C     C_1   0.475704 0.878172 0.124974 -0.272263
C39   C     C_3   0.578318 0.716287 0.259280 -0.260498
C40   C     C_3   0.389345 0.707983 0.291408 0.172021
C41   C     C_3   0.550936 0.790814 0.263181 0.390479
C42   C     C_3   0.437163 0.792755 0.209252 0.053567
C43   C     C_3   0.365488 0.782882 0.296421 -0.208897
C44   C     C_3   0.248809 0.784063 0.241667 -0.159888
C45   C     C_1   0.364294 0.660630 0.337271 0.022803
C46   C     C_1   0.460654 0.839802 0.163042 0.084702
H20   H     H_    0.328474 0.810072 0.334175 0.165098
H21   H     H_    0.715446 0.689244 0.266775 0.142289
C47   C     C_R   0.471985 0.161829 0.088779 -0.099945
C48   C     C_R   0.352660 0.338197 0.411268 -0.096992
C49   C     C_R   0.531622 0.277813 0.094000 -0.179193
C50   C     C_R   0.523336 0.220539 0.063703 -0.165664
C51   C     C_R   0.429495 0.160645 0.145041 -0.236669
C52   C     C_R   0.440274 0.218404 0.177320 0.108947
C53   C     C_R   0.492025 0.277260 0.150304 0.188206
C54   C     C_R   0.404273 0.219854 0.235250 0.053051
C55   C     C_R   0.420665 0.280138 0.264819 0.063525
C56   C     C_R   0.471961 0.336920 0.235446 -0.195993
C57   C     C_R   0.506360 0.335323 0.179538 -0.240989
C58   C     C_R   0.353069 0.163065 0.264629 -0.181424
C59   C     C_R   0.318674 0.164664 0.320538 -0.221287
C60   C     C_R   0.332901 0.222738 0.349766 0.173627
C61   C     C_R   0.384597 0.281596 0.322744 0.110473
C62   C     C_R   0.293247 0.222195 0.406066 -0.168720
C63   C     C_R   0.301394 0.279483 0.436352 -0.163876
C64   C     C_R   0.395224 0.339368 0.355011 -0.244913
H22   H     H_    0.545947 0.380292 0.158923 0.130426
H23   H     H_    0.431270 0.386230 0.337759 0.100592
H24   H     H_    0.266264 0.278125 0.479518 0.109810
H25   H     H_    0.279157 0.119692 0.341158 0.146063
H26   H     H_    0.571893 0.322704 0.073419 0.114579
H27   H     H_    0.558418 0.221903 0.020534 0.108584
H28   H     H_    0.393351 0.113788 0.162285 0.110295
H29   H     H_    0.487540 0.383881 0.254491 0.130052
H30   H     H_    0.337593 0.116096 0.245589 0.143596
H31   H     H_    0.253028 0.177302 0.426653 0.121199
O11   O     O_R   0.323550 0.942140 0.056770 -0.589921
O12   O     O_R   0.647080 0.077200 0.045890 -0.589143
O13   O     O_R   0.813610 0.057920 0.943260 -0.591238
C65   C     C_R   0.478177 0.101137 0.056577 0.929472
O14   O     O_R   0.653470 0.943760 0.063000 -0.581529
O15   O     O_R   0.820050 0.923540 0.960490 -0.591668
C66   C     C_R   0.485486 0.923682 0.078978 0.972457
O16   O     O_R   0.317110 0.076520 0.039540 -0.589815
O17   O     O_3   0.483830 0.993580 0.966380 -0.274908
V3    V     V_3+5 0.760140 0.001190 0.006240 1.175098
O18   O     O_R   0.149510 0.922740 0.954070 -0.592207
C67   C     C_R   0.981391 0.898862 0.943407 0.922488
O19   O     O_R   0.143120 0.056170 0.936970 -0.592930
C68   C     C_R   0.973337 0.076284 0.921089 0.977186
V4    V     V_3+5 0.259690 0.998700 0.993700 1.167304
O20   O     O_3   0.986130 0.006420 0.033620 -0.266042
N1    N     N_R   0.705052 0.834960 0.278670 0.225654
O21   O     O_R   0.793147 0.827118 0.325510 -0.414032
O22   O     O_R   0.755517 0.882180 0.246044 -0.420393

loop_
_geom_bond_atom_site_label_1
_geom_bond_atom_site_label_2
_geom_bond_distance
_ccdc_geom_bond_type
C13   C19   1.438298 A    
C54   C55   1.438115 A    
C60   C61   1.419552 A    
C54   C58   1.411076 A    
C4    C6    1.474484 S    
C38   C46   1.217839 T    
C62   C63   1.391185 A    
C47   C51   1.407013 A    
O14   C66   1.303873 A    
O12   V3    1.995159 S    
V1    O10   1.707039 S    
C52   C53   1.419561 A    
C31   C32   1.550816 S    
C14   C15   1.387756 A    
C50   H27   1.083619 S    
C7    H5    1.083926 S    
N1    O22   1.300309 A    
C16   C17   1.387779 A    
C30   C34   1.483369 S    
O12   C65   1.297002 A    
O13   C68   1.297307 A    
O5    C3    1.297318 A    
C18   C19   1.419469 A    
C8    H6    1.083599 S    
C28   C31   1.539256 S    
V2    O10   2.149189 S    
C5    C8    1.395016 A    
H13   C32   1.110357 S    
O17   V3    2.153647 S    
C47   C65   1.474365 S    
O18   V4    1.992271 S    
C36   C40   1.543873 S    
O11   C66   1.297011 A    
O18   C67   1.296507 A    
O15   C67   1.298615 A    
O8    V2    1.973634 S    
C7    C8    1.391136 A    
O19   V4    1.973452 S    
C17   H4    1.084344 S    
C39   C40   1.545976 S    
O1    V2    1.989155 S    
C11   C15   1.393764 A    
O7    V1    2.153704 S    
C22   H2    1.076956 S    
C1    O6    1.297009 A    
C35   H18   1.110241 S    
C60   C62   1.403650 A    
O16   V4    1.993749 S    
O9    C4    1.296517 A    
C41   N1    1.457439 S    
C42   C44   1.546850 S    
C58   H30   1.076118 S    
C25   C68   1.451860 S    
C47   C50   1.395057 A    
O13   V3    1.959716 S    
C64   H23   1.076988 S    
C27   C29   1.550614 S    
C55   C61   1.438274 A    
C52   C54   1.438290 A    
C20   H10   1.083927 S    
C29   C31   1.551025 S    
C38   C66   1.455735 S    
C43   C44   1.557315 S    
C25   C33   1.215493 T    
C12   C13   1.438112 A    
C41   C43   1.538510 S    
C53   C57   1.393770 A    
C58   C59   1.387790 A    
O4    C2    1.296984 A    
C48   C63   1.395075 A    
C35   C42   1.546137 S    
C23   C27   1.550815 S    
C15   H1    1.084344 S    
C13   C14   1.410970 A    
C49   C53   1.403637 A    
C21   H3    1.083609 S    
C31   H14   1.110065 S    
C7    C11   1.403610 A    
C17   C18   1.393777 A    
C35   C39   1.557202 S    
C28   C33   1.483368 S    
C49   H26   1.083966 S    
C19   C22   1.426847 A    
C24   H11   1.110143 S    
C51   C52   1.426813 A    
C6    C22   1.407019 A    
O3    C4    1.298612 A    
C62   H31   1.083966 S    
C59   H25   1.084390 S    
O15   V3    1.990501 S    
C2    C48   1.474427 S    
O6    V2    1.964343 S    
O9    V2    1.992344 S    
C24   C32   1.550619 S    
C51   H28   1.076999 S    
C9    H7    1.076959 S    
C26   C34   1.215491 T    
O2    V1    1.964911 S    
C3    C26   1.451861 S    
C27   C28   1.540002 S    
C14   H8    1.076081 S    
C1    C37   1.455867 S    
O17   V4    1.702770 S    
C23   H12   1.110066 S    
C29   C30   1.539469 S    
C39   H21   1.110597 S    
O1    C2    1.298895 A    
C10   C11   1.419472 A    
C12   C16   1.410968 A    
O11   V4    1.964135 S    
C41   C42   1.529929 S    
O5    V1    1.959546 S    
C40   C43   1.545119 S    
C65   O16   1.298907 A    
O8    C3    1.301258 A    
C29   H15   1.110145 S    
C37   C45   1.217891 T    
C16   H9    1.076087 S    
C61   C64   1.426825 A    
O14   V3    1.964944 S    
C20   C21   1.391152 A    
C30   C32   1.540002 S    
V3    O20   1.706952 S    
O4    V1    1.995171 S    
O3    V1    1.990473 S    
C27   H16   1.110357 S    
C36   H17   1.110314 S    
C18   C20   1.403631 A    
C40   C45   1.487538 S    
C48   C64   1.406992 A    
O2    C1    1.303990 A    
C63   H24   1.083619 S    
C24   C28   1.539471 S    
C59   C60   1.393806 A    
C36   C44   1.554570 S    
C10   C12   1.438309 A    
O7    V2    1.704075 S    
C6    C21   1.395026 A    
C5    C9    1.407039 A    
C5    C67   1.474492 S    
C35   C36   1.555100 S    
C23   C24   1.551025 S    
H19   C44   1.109916 S    
C55   C56   1.411061 A    
C23   C30   1.539256 S    
C49   C50   1.391145 A    
C43   H20   1.110301 S    
C56   H29   1.076104 S    
V4    O20   2.149227 S    
C42   C46   1.488481 S    
O19   C68   1.301252 A    
C39   C41   1.538071 S    
C56   C57   1.387758 A    
C9    C10   1.426862 A    
C57   H22   1.084389 S    
N1    O21   1.300496 A    
