data_mof_unit_3242.cif
_audit_creation_date              2013-03-05T15:58:05-0500
_audit_creation_method            fapswitch 2.2
_symmetry_space_group_name_H-M    P1
_symmetry_Int_Tables_number       1
_space_group_crystal_system       triclinic
_cell_length_a                    15.019419
_cell_length_b                    14.9696
_cell_length_c                    15.11435
_cell_angle_alpha                 109.956195
_cell_angle_beta                  108.926391
_cell_angle_gamma                 109.041322
_cell_volume                      2631.459208

loop_
_atom_site_label
_atom_site_type_symbol
_atom_site_description
_atom_site_fract_x
_atom_site_fract_y
_atom_site_fract_z
_atom_type_partial_charge
C1    C     C_R   0.910038 0.195772 0.995406 -0.059073
H1    H     H_    0.850782 0.167017 0.018700 0.109215
N1    N     N_R   0.947080 0.293830 0.002870 -0.056587
C2    C     C_R   0.295027 0.804298 0.206178 -0.149659
H2    H     H_    0.342364 0.831964 0.170856 0.093297
N2    N     N_R   0.208950 0.706170 0.152110 -0.048446
C3    C     C_R   0.222418 0.408544 0.978836 -0.092330
H3    H     H_    0.203710 0.324281 0.942996 0.111481
N3    N     N_R   0.153670 0.443180 0.946090 -0.030450
C4    C     C_R   0.058209 0.589646 0.313416 -0.151606
H4    H     H_    0.103586 0.673318 0.378554 0.103406
N4    N     N_R   0.002360 0.556820 0.208890 -0.043065
C5    C     C_R   0.311478 0.591492 0.070446 -0.016959
H5    H     H_    0.372879 0.676329 0.120916 0.084907
N5    N     N_R   0.210070 0.556820 0.002870 -0.035378
C6    C     C_R   0.978120 0.407589 0.217668 -0.088198
H6    H     H_    0.958299 0.324800 0.191756 0.146016
N6    N     N_R   0.945960 0.443180 0.152110 -0.055412
C7    C     C_R   0.206047 0.802605 0.298413 -0.126945
H7    H     H_    0.171515 0.825562 0.348145 0.123223
N7    N     N_R   0.151710 0.706170 0.208890 -0.042997
C8    C     C_R   0.000329 0.198272 0.904819 -0.152932
H8    H     H_    0.017877 0.172302 0.840250 0.121817
N8    N     N_R   0.004320 0.293830 0.946090 -0.048329
C9    C     C_R   0.943525 0.134159 0.935244 0.087525
C10   C     C_R   0.297229 0.867174 0.299770 0.085168
C11   C     C_R   0.323594 0.500352 0.054155 -0.006981
C12   C     C_R   0.041575 0.495550 0.320274 0.063612
C13   C     C_R   0.699048 0.409241 0.001534 -0.050310
H9    H     H_    0.644125 0.325105 0.972449 0.139946
N9    N     N_R   0.789930 0.443180 0.997130 -0.043846
C14   C     C_R   0.091921 0.591604 0.791162 -0.138985
H10   H     H_    0.145084 0.675965 0.822482 0.120569
N10   N     N_R   0.054040 0.556820 0.847890 -0.047262
C15   C     C_R   0.781402 0.252358 0.688277 -0.124769
H11   H     H_    0.806706 0.253008 0.629540 0.120845
N11   N     N_R   0.848290 0.293830 0.791110 -0.049794
C16   C     C_R   0.924023 0.736169 0.016021 -0.054133
H12   H     H_    0.861303 0.731234 0.036107 0.104687
N12   N     N_R   0.995680 0.706170 0.053910 -0.039946
C17   C     C_R   0.023566 0.746848 0.934073 -0.112693
H13   H     H_    0.059782 0.760843 0.885883 0.091970
N13   N     N_R   0.052920 0.706170 0.997130 -0.044589
C18   C     C_R   0.686097 0.240858 0.775982 -0.086691
H14   H     H_    0.621414 0.222068 0.795157 0.141077
N14   N     N_R   0.791050 0.293830 0.847890 -0.049951
C19   C     C_R   0.788474 0.591031 0.091668 -0.168257
H15   H     H_    0.818396 0.675158 0.148382 0.106439
N15   N     N_R   0.846330 0.556820 0.053910 -0.042518
C20   C     C_R   0.007024 0.410229 0.703179 -0.112586
H16   H     H_    0.986910 0.327114 0.653833 0.119508
N16   N     N_R   0.997640 0.443180 0.791110 -0.049841
Ni1   Ni    Ni4+2 0.869690 0.369690 0.000000 0.230098
Ni2   Ni    Ni4+2 0.130310 0.630310 0.000000 0.231793
Ni3   Ni    Ni4+2 0.000970 0.369690 0.869780 0.233319
Ni4   Ni    Ni4+2 0.999030 0.630310 0.130220 0.223070
C21   C     C_R   0.694257 0.500216 0.057349 0.051888
C22   C     C_R   0.063708 0.501279 0.699228 0.111574
C23   C     C_R   0.678320 0.212915 0.674501 0.051766
C24   C     C_R   0.941847 0.767288 0.943992 0.071721
C25   C     C_R   0.704265 0.251322 0.183513 -0.240938
H17   H     H_    0.640460 0.270383 0.156486 0.155293
C26   C     C_R   0.796736 0.327589 0.283651 -0.243606
H18   H     H_    0.803268 0.404548 0.331773 0.148790
C27   C     C_R   0.883694 0.308321 0.317950 -0.054861
C28   C     C_R   0.874135 0.207703 0.255373 0.290581
C29   C     C_R   0.780266 0.131013 0.155557 -0.412951
H19   H     H_    0.776063 0.056704 0.105350 0.196750
C30   C     C_R   0.696701 0.153901 0.116776 0.393311
C31   C     C_R   0.002277 0.401644 0.509793 -0.157897
H20   H     H_    0.940950 0.333931 0.504608 0.116634
C32   C     C_R   0.080136 0.496600 0.608304 0.063846
C33   C     C_R   0.155479 0.585647 0.610863 0.045515
C34   C     C_R   0.149002 0.576882 0.514405 -0.231665
H21   H     H_    0.205128 0.645559 0.515726 0.137358
C35   C     C_R   0.062519 0.487030 0.416488 0.068674
C36   C     C_R   0.987785 0.398220 0.414451 0.117261
C37   C     C_R   0.196424 0.774824 0.718362 -0.214848
H22   H     H_    0.123540 0.758457 0.654184 0.119035
C38   C     C_R   0.255153 0.873506 0.815289 -0.126249
H23   H     H_    0.228210 0.932793 0.824390 0.153226
C39   C     C_R   0.345726 0.893262 0.900994 -0.013749
H24   H     H_    0.389300 0.968622 0.977233 0.132584
C40   C     C_R   0.379869 0.815532 0.888226 -0.034476
H25   H     H_    0.450592 0.831784 0.954367 0.135347
C41   C     C_R   0.321521 0.716515 0.790849 -0.088778
H26   H     H_    0.347374 0.656058 0.780900 0.195234
C42   C     C_R   0.227463 0.694507 0.707177 0.072584
H27   H     H_    0.024846 0.944018 0.508073 0.106272
C43   C     C_R   0.122622 0.027774 0.454536 -0.051686
H28   H     H_    0.068768 0.055732 0.423168 0.163695
C44   C     C_R   0.216465 0.053563 0.445984 -0.028636
H29   H     H_    0.233189 0.099032 0.405535 0.168768
C45   C     C_R   0.288597 0.020902 0.490078 0.059335
C46   C     C_R   0.269133 0.967315 0.547727 -0.141984
H30   H     H_    0.325738 0.943942 0.584432 0.135700
C47   C     C_R   0.172946 0.937695 0.552000 -0.112907
H31   H     H_    0.155990 0.893050 0.592968 0.122297
C48   C     C_R   0.098873 0.966422 0.503882 -0.182602
C49   C     C_R   0.482499 0.129395 0.567087 -0.189729
H32   H     H_    0.481798 0.179531 0.637863 0.183592
C50   C     C_R   0.580063 0.142242 0.570547 0.050523
C51   C     C_R   0.580178 0.078722 0.476698 0.022779
C52   C     C_R   0.483412 0.005922 0.382919 -0.229274
H33   H     H_    0.487794 0.958323 0.313997 0.123598
C53   C     C_R   0.385877 0.977314 0.384904 0.070672
C54   C     C_R   0.385185 0.043480 0.477564 0.011938
C55   C     C_R   0.721727 0.100464 0.420497 -0.211827
H34   H     H_    0.692421 0.139170 0.378262 0.134284
C56   C     C_R   0.809778 0.087496 0.421073 -0.120048
H35   H     H_    0.847328 0.115139 0.378861 0.160409
C57   C     C_R   0.848507 0.037673 0.475050 -0.089687
H36   H     H_    0.916659 0.027935 0.475117 0.102536
C58   C     C_R   0.798423 0.999490 0.527854 -0.132826
H37   H     H_    0.826912 0.959077 0.567955 0.103995
C59   C     C_R   0.710904 0.012995 0.528441 -0.128415
H38   H     H_    0.672758 0.983434 0.569901 0.119494
C60   C     C_R   0.673277 0.065272 0.476256 0.112586
C61   C     C_3   0.518475 0.479823 0.949156 0.044575
H39   H     H_    0.555355 0.554044 0.943586 0.156393
C62   C     C_3   0.410481 0.460832 0.944582 0.192916
H40   H     H_    0.354046 0.371078 0.897296 0.105008
H41   H     H_    0.508539 0.328731 0.019373 0.190097
H42   H     H_    0.372178 0.341495 0.051481 0.170092
C63   C     C_3   0.540020 0.411825 0.085624 -0.416518
C64   C     C_3   0.627322 0.611987 0.149972 -0.465036
C65   C     C_3   0.597068 0.499625 0.060273 0.240761
H43   H     H_    0.678971 0.626846 0.231117 0.182698
H44   H     H_    0.672976 0.679074 0.140148 0.176729
C66   C     C_3   0.424109 0.501118 0.061104 0.189124
C67   C     C_3   0.445198 0.422365 0.098826 -0.456720
C68   C     C_3   0.525138 0.616134 0.143407 -0.397709
H45   H     H_    0.520112 0.677216 0.119340 0.188790
H46   H     H_    0.531764 0.645107 0.224783 0.167584
H47   H     H_    0.598542 0.422233 0.161118 0.167038
H48   H     H_    0.465057 0.453500 0.184782 0.195763
H49   H     H_    0.337085 0.181653 0.869116 0.159707
C69   C     C_R   0.163981 0.090759 0.772819 -0.105150
H50   H     H_    0.164138 0.101122 0.705732 0.157419
C70   C     C_R   0.066480 0.030571 0.766535 -0.228416
H51   H     H_    0.991362 0.991130 0.692613 0.112236
C71   C     C_R   0.066303 0.027665 0.858279 0.124968
C72   C     C_R   0.165036 0.076716 0.952570 -0.118140
H52   H     H_    0.166344 0.072035 0.022917 0.158545
C73   C     C_R   0.262463 0.129860 0.955636 -0.190795
H53   H     H_    0.338356 0.164978 0.027508 0.140797
C74   C     C_R   0.261883 0.138517 0.866305 -0.095187
C75   C     C_R   0.942089 0.864568 0.842313 -0.244714
H54   H     H_    0.979290 0.825339 0.805040 0.123875
C76   C     C_R   0.900375 0.829999 0.902603 0.086785
C77   C     C_R   0.843129 0.878084 0.940333 0.086291
C78   C     C_R   0.837800 0.961677 0.922360 -0.172157
H55   H     H_    0.790270 0.994300 0.947041 0.152150
C79   C     C_R   0.912230 0.018519 0.898739 0.058085
C80   C     C_R   0.964988 0.967611 0.856185 0.020386
C81   C     C_R   0.695905 0.815843 0.982716 -0.134392
H56   H     H_    0.637390 0.776250 0.898074 0.158436
C82   C     C_R   0.659902 0.822529 0.057818 -0.093082
H57   H     H_    0.574979 0.787354 0.031700 0.169298
C83   C     C_R   0.733582 0.876919 0.167522 -0.235213
H58   H     H_    0.704799 0.881200 0.225042 0.153960
C84   C     C_R   0.843995 0.924356 0.202831 -0.174385
H59   H     H_    0.899875 0.965425 0.287860 0.144451
C85   C     C_R   0.881796 0.921150 0.129159 0.388839
C86   C     C_R   0.807043 0.865221 0.017394 -0.072159
N17   N     N_R   0.608549 0.082449 0.007772 0.220889
O1    O     O_R   0.540840 0.112222 0.966571 -0.462464
O2    O     O_R   0.602567 0.993213 0.945036 -0.451706
N18   N     N_R   0.966786 0.192737 0.281333 0.238260
O3    O     O_R   0.008558 0.186764 0.217876 -0.380739
O4    O     O_R   0.022168 0.208425 0.376812 -0.417547
Br1   Br    Br    0.488809 0.358633 0.818398 -0.616025
N19   N     N_R   0.362892 0.509081 0.886946 0.244350
O5    O     O_R   0.273808 0.446444 0.794636 -0.386688
O6    O     O_R   0.408975 0.613952 0.926417 -0.509640
Br2   Br    Br    0.035511 0.991701 0.184042 -0.555991

loop_
_geom_bond_atom_site_label_1
_geom_bond_atom_site_label_2
_geom_bond_distance
_ccdc_geom_bond_type
C6    C12   1.369533 A    
N17   O2    1.301313 A    
C26   C27   1.402277 A    
C64   C65   1.555238 S    
C17   N13   1.331263 A    
C17   H13   1.075693 S    
C28   N18   1.431708 S    
C46   H30   1.083338 S    
C14   C22   1.378517 A    
C62   C66   1.570939 S    
C10   C53   1.467958 S    
C52   C53   1.399369 A    
C47   H31   1.081034 S    
C3    H3    1.080304 S    
C19   N15   1.325005 A    
N19   O5    1.301317 A    
C55   H34   1.083311 S    
N8    Ni3   1.875118 S    
C34   C35   1.393117 A    
H27   C48   1.081462 S    
C44   H29   1.082700 S    
C81   H56   1.083280 S    
C7    N7    1.327569 A    
C40   C41   1.399206 A    
C84   H59   1.076234 S    
C16   H12   1.067909 S    
C38   H23   1.075856 S    
C41   C42   1.398763 A    
H41   C63   1.110126 S    
C53   C54   1.418385 A    
C18   C23   1.398276 A    
C4    C12   1.394314 A    
C72   H52   1.083506 S    
C3    C11   1.393221 A    
C59   H38   1.083290 S    
C15   C23   1.378215 A    
C1    H1    1.076130 S    
C33   C34   1.386094 A    
C25   C26   1.394766 A    
C7    C10   1.383737 A    
C30   N17   1.438539 S    
C57   H36   1.079732 S    
N6    Ni1   1.884384 S    
C73   C74   1.397295 A    
C56   H35   1.075972 S    
N12   N13   1.397931 A    
C62   N19   1.467604 S    
C7    H7    1.070028 S    
C55   C56   1.395672 A    
C68   H45   1.108328 S    
N12   Ni4   1.875121 S    
C8    C9    1.371843 A    
C20   N16   1.322445 A    
C77   C78   1.389021 A    
C31   H20   1.082475 S    
N3    Ni3   1.890004 S    
C75   C80   1.388486 A    
C71   C80   1.476979 S    
C25   H17   1.081974 S    
N16   Ni3   1.875317 S    
C61   Br1   1.962016 S    
C63   H47   1.112434 S    
N19   O6    1.297432 A    
C28   C29   1.401269 A    
C5    H5    1.078595 S    
C31   C36   1.365795 A    
C82   C83   1.391795 A    
N18   O4    1.300814 A    
N1    N8    1.397932 A    
C45   C46   1.406240 A    
N9    N15   1.392680 A    
C57   C58   1.396344 A    
C52   H33   1.079638 S    
C47   C48   1.397265 A    
C18   N14   1.334004 A    
C73   H53   1.082424 S    
C84   C85   1.398555 A    
C61   C62   1.526260 S    
C70   H51   1.080347 S    
C2    C10   1.388717 A    
C45   C54   1.468407 S    
C27   C36   1.480104 S    
C34   H21   1.085128 S    
C29   H19   1.078959 S    
C20   C22   1.384734 A    
N18   O3    1.299984 A    
C55   C60   1.402881 A    
C35   C36   1.415718 A    
C2    N2    1.324038 A    
C67   H48   1.112945 S    
C69   H50   1.077448 S    
C37   H22   1.083145 S    
C6    H6    1.063124 S    
C64   H44   1.104215 S    
C77   C86   1.477130 S    
N2    N7    1.397932 A    
C39   H24   1.081880 S    
N9    Ni1   1.872433 S    
H42   C67   1.101662 S    
C1    N1    1.338028 A    
C15   H11   1.074720 S    
C83   C84   1.392102 A    
C66   C68   1.556646 S    
N5    Ni2   1.872432 S    
C33   C42   1.467558 S    
C13   H9    1.081162 S    
C19   C21   1.380904 A    
C63   C67   1.549982 S    
N13   Ni2   1.872087 S    
C43   C44   1.396268 A    
C19   H15   1.080101 S    
C64   C68   1.528626 S    
C69   C74   1.395166 A    
C44   C45   1.398770 A    
C20   H16   1.081979 S    
C79   C80   1.418585 A    
C6    N6    1.310258 A    
C24   C76   1.479939 S    
C40   H25   1.078603 S    
C62   H40   1.114864 S    
N4    Ni4   1.875316 S    
C4    N4    1.335084 A    
C16   C24   1.388426 A    
C38   C39   1.396026 A    
C13   C21   1.374997 A    
N2    Ni2   1.884511 S    
C39   C40   1.397991 A    
C5    N5    1.321193 A    
C82   H57   1.073891 S    
C69   C70   1.398468 A    
C8    N8    1.322738 A    
C51   C60   1.478066 S    
C12   C35   1.444299 S    
C43   C48   1.397635 A    
C18   H14   1.080236 S    
C49   C50   1.395182 A    
C78   C79   1.395272 A    
C37   C42   1.403412 A    
C72   C73   1.395541 A    
C85   C86   1.416332 A    
C49   C54   1.387031 A    
C64   H43   1.113306 S    
C15   N11   1.316000 A    
C9    C79   1.473396 S    
C41   H26   1.080154 S    
C23   C50   1.451972 S    
H49   C74   1.081094 S    
C8    H8    1.071328 S    
C17   C24   1.398433 A    
C75   C76   1.404062 A    
C32   C33   1.418121 A    
C21   C65   1.471916 S    
N7    Ni4   1.890059 S    
C58   C59   1.395912 A    
C61   H39   1.113942 S    
C46   C47   1.396407 A    
C58   H37   1.080459 S    
C70   C71   1.402930 A    
N15   Ni4   1.890002 S    
N10   N16   1.392681 A    
C76   C77   1.422781 A    
C25   C30   1.403787 A    
C83   H58   1.081973 S    
C81   C82   1.395300 A    
C66   C67   1.549350 S    
N3    N5    1.392679 A    
C13   N9    1.324872 A    
C14   H10   1.070143 S    
C16   N12   1.333800 A    
N1    Ni1   1.872088 S    
N10   Ni2   1.884386 S    
C22   C32   1.455992 S    
C43   H28   1.077846 S    
N17   O1    1.301910 A    
C81   C86   1.403688 A    
N14   Ni1   1.884514 S    
C49   H32   1.082653 S    
C59   C60   1.405210 A    
C85   Br2   1.924142 S    
C37   C38   1.393098 A    
C75   H54   1.080216 S    
C50   C51   1.413562 A    
C56   C57   1.396701 A    
C4    H4    1.081010 S    
C26   H18   1.083436 S    
N11   Ni3   1.890057 S    
C3    N3    1.331515 A    
C2    H2    1.080306 S    
C78   H55   1.078472 S    
C68   H46   1.113144 S    
C27   C28   1.407914 A    
N4    N6    1.392679 A    
C51   C52   1.372864 A    
C63   C65   1.558960 S    
C11   C66   1.474896 S    
C71   C72   1.404811 A    
C5    C11   1.384529 A    
C31   C32   1.395037 A    
C29   C30   1.405933 A    
N11   N14   1.397932 A    
C1    C9    1.399053 A    
C14   N10   1.325848 A    
C61   C65   1.564504 S    
