data_mof_unit_4062.cif
_audit_creation_date              2012-12-11T16:08:32-0500
_audit_creation_method            fapswitch 2.2
_symmetry_space_group_name_H-M    P1
_symmetry_Int_Tables_number       1
_space_group_crystal_system       triclinic
_cell_length_a                    7.250198
_cell_length_b                    21.404063
_cell_length_c                    23.452408
_cell_angle_alpha                 90.0
_cell_angle_beta                  90.000063
_cell_angle_gamma                 89.999985
_cell_volume                      3639.43132433

loop_
_atom_site_label
_atom_site_type_symbol
_atom_type_description
_atom_site_fract_x
_atom_site_fract_y
_atom_site_fract_z
_atom_type_partial_charge
O1    O     O_R   0.365470 0.806380 0.442440 -0.532557
O2    O     O_R   0.134530 0.193620 0.942440 -0.532557
O3    O     O_R   0.865470 0.693620 0.557560 -0.532557
O4    O     O_R   0.634530 0.306380 0.057560 -0.532557
O5    O     O_R   0.035730 0.813790 0.557160 -0.535901
O6    O     O_R   0.464270 0.186210 0.057160 -0.535901
O7    O     O_R   0.535730 0.686210 0.442840 -0.535901
O8    O     O_R   0.964270 0.313790 0.942840 -0.535901
C1    C     C_R   0.204241 0.828672 0.575834 0.711874
C2    C     C_R   0.295759 0.171328 0.075834 0.711875
C3    C     C_R   0.704241 0.671328 0.424166 0.711875
C4    C     C_R   0.795759 0.328672 0.924166 0.711875
O9    O     O_R   0.035760 0.813790 0.442850 -0.535101
O10   O     O_R   0.464240 0.186210 0.942850 -0.535101
O11   O     O_R   0.535760 0.686210 0.557150 -0.535101
O12   O     O_R   0.964240 0.313790 0.057150 -0.535101
O13   O     O_R   0.865450 0.693620 0.442430 -0.531211
O14   O     O_R   0.634550 0.306380 0.942430 -0.531211
O15   O     O_R   0.365450 0.806380 0.557570 -0.531211
O16   O     O_R   0.134550 0.193620 0.057570 -0.531211
C5    C     C_R   0.204284 0.828656 0.424172 0.716047
C6    C     C_R   0.295716 0.171344 0.924172 0.716047
C7    C     C_R   0.704284 0.671344 0.575828 0.716047
C8    C     C_R   0.795716 0.328656 0.075828 0.716047
O17   O     O_3   0.198970 0.710570 0.500000 -0.374936
O18   O     O_3   0.301030 0.289430 0.000000 -0.374936
O19   O     O_3   0.698970 0.789430 0.500000 -0.374936
O20   O     O_3   0.801030 0.210570 0.000000 -0.374936
V1    V     V_3+5 0.924120 0.757310 0.500000 1.421218
V2    V     V_3+5 0.575880 0.242690 0.000000 1.421218
V3    V     V_3+5 0.424120 0.742690 0.500000 1.421218
V4    V     V_3+5 0.075880 0.257310 0.000000 1.421218
C9    C     C_3   0.946555 0.532584 0.727364 0.035388
C10   C     C_3   0.553445 0.467416 0.227363 0.035389
C11   C     C_3   0.446555 0.967416 0.272637 0.035387
C12   C     C_3   0.053445 0.032584 0.772636 0.035389
C13   C     C_3   0.632110 0.563670 0.760235 -0.399834
C14   C     C_3   0.867890 0.436330 0.260235 -0.399834
C15   C     C_3   0.132110 0.936330 0.239765 -0.399834
C16   C     C_3   0.367891 0.063670 0.739765 -0.399836
C17   C     C_3   0.659608 0.517788 0.811299 -0.422289
C18   C     C_3   0.840392 0.482212 0.311298 -0.422287
C19   C     C_3   0.159609 0.982212 0.188701 -0.422291
C20   C     C_3   0.340393 0.017788 0.688702 -0.422289
H1    H     H_    0.042895 0.494189 0.808848 0.124329
H2    H     H_    0.457106 0.505810 0.308848 0.124330
H3    H     H_    0.542896 0.005810 0.191152 0.124328
H4    H     H_    0.957105 0.994189 0.691152 0.124329
H5    H     H_    0.980926 0.575781 0.751792 0.102127
H6    H     H_    0.519074 0.424219 0.251791 0.102127
H7    H     H_    0.480925 0.924219 0.248209 0.102127
H8    H     H_    0.019075 0.075781 0.748207 0.102128
H9    H     H_    0.483001 0.567410 0.749992 0.151440
H10   H     H_    0.016998 0.432590 0.249991 0.151440
H11   H     H_    0.983001 0.932590 0.250008 0.151440
H12   H     H_    0.516999 0.067410 0.750009 0.151440
H13   H     H_    0.678161 0.611257 0.773010 0.158638
H14   H     H_    0.821839 0.388743 0.273010 0.158639
H15   H     H_    0.178161 0.888743 0.226990 0.158639
H16   H     H_    0.321841 0.111257 0.726990 0.158639
H17   H     H_    0.738495 0.541603 0.845717 0.167000
H18   H     H_    0.761506 0.458397 0.345717 0.166999
H19   H     H_    0.238496 0.958397 0.154283 0.166999
H20   H     H_    0.261508 0.041602 0.654283 0.166999
H21   H     H_    0.522597 0.505103 0.829308 0.148930
H22   H     H_    0.977403 0.494897 0.329308 0.148930
H23   H     H_    0.022598 0.994897 0.170692 0.148931
H24   H     H_    0.477405 0.005102 0.670693 0.148930
C21   C     C_1   0.786444 0.374364 0.878454 -0.171151
C22   C     C_1   0.713555 0.625636 0.378454 -0.171151
C23   C     C_1   0.286445 0.125636 0.121546 -0.171151
C24   C     C_1   0.213556 0.874363 0.621546 -0.171152
C25   C     C_3   0.741708 0.541004 0.706947 0.235685
C26   C     C_3   0.758291 0.458996 0.206947 0.235683
C27   C     C_3   0.241708 0.958996 0.293053 0.235685
C28   C     C_3   0.258291 0.041004 0.793053 0.235689
C29   C     C_3   0.960300 0.478144 0.771592 -0.364454
C30   C     C_3   0.539699 0.521855 0.271592 -0.364453
C31   C     C_3   0.460301 0.021856 0.228408 -0.364450
C32   C     C_3   0.039700 0.978144 0.728408 -0.364455
C33   C     C_3   0.764576 0.457963 0.791982 0.193223
C34   C     C_3   0.735424 0.542037 0.291982 0.193221
C35   C     C_3   0.264577 0.042037 0.208018 0.193225
C36   C     C_3   0.235424 0.957963 0.708018 0.193227
C37   C     C_3   0.655140 0.430341 0.740550 0.234335
C38   C     C_3   0.844859 0.569659 0.240550 0.234336
C39   C     C_3   0.155142 0.069659 0.259450 0.234337
C40   C     C_3   0.344859 0.930341 0.759451 0.234337
C41   C     C_3   0.657124 0.476854 0.689228 -0.375367
C42   C     C_3   0.842875 0.523146 0.189228 -0.375365
C43   C     C_3   0.157124 0.023146 0.310772 -0.375371
C44   C     C_3   0.342876 0.976854 0.810772 -0.375372
C45   C     C_1   0.777090 0.412117 0.839793 -0.022461
C46   C     C_1   0.722910 0.587882 0.339793 -0.022463
C47   C     C_1   0.277091 0.087883 0.160207 -0.022460
C48   C     C_1   0.222911 0.912117 0.660207 -0.022460
C49   C     C_1   0.725136 0.587522 0.659795 -0.064373
C50   C     C_1   0.774864 0.412478 0.159795 -0.064373
C51   C     C_1   0.225135 0.912478 0.340205 -0.064374
C52   C     C_1   0.274863 0.087522 0.840205 -0.064371
C53   C     C_1   0.714006 0.625529 0.621402 -0.184169
C54   C     C_1   0.785994 0.374471 0.121402 -0.184169
C55   C     C_1   0.214006 0.874471 0.378598 -0.184169
C56   C     C_1   0.285994 0.125529 0.878598 -0.184169
H25   H     H_    0.730494 0.456368 0.652464 0.164162
H26   H     H_    0.769502 0.543632 0.152465 0.164164
H27   H     H_    0.230494 0.043632 0.347536 0.164160
H28   H     H_    0.269505 0.956369 0.847536 0.164160
H29   H     H_    0.513589 0.483865 0.674067 0.124849
H30   H     H_    0.986409 0.516135 0.174067 0.124848
H31   H     H_    0.013588 0.016135 0.325932 0.124850
H32   H     H_    0.486411 0.983865 0.825933 0.124849
H33   H     H_    0.036112 0.437622 0.753714 0.153115
H34   H     H_    0.463886 0.562378 0.253715 0.153114
H35   H     H_    0.536113 0.062379 0.246286 0.153117
H36   H     H_    0.963889 0.937621 0.746286 0.153118
H37   H     H_    0.508961 0.424481 0.754155 0.118431
H38   H     H_    0.991039 0.575519 0.254155 0.118431
H39   H     H_    0.008963 0.075520 0.245844 0.118430
H40   H     H_    0.491038 0.924480 0.745845 0.118430
C57   C     C_3   0.099975 0.530983 0.681242 -0.356336
C58   C     C_3   0.082140 0.481213 0.634969 -0.740625
H41   H     H_    0.057263 0.434405 0.653557 0.215615
H42   H     H_    0.971168 0.493831 0.604524 0.222124
H43   H     H_    0.212814 0.479079 0.610348 0.212322
H44   H     H_    0.108978 0.577425 0.660177 0.186056
H45   H     H_    0.233170 0.523694 0.703354 0.166556
C59   C     C_3   0.400025 0.469017 0.181241 -0.356342
C60   C     C_3   0.417860 0.518788 0.134969 -0.740626
H46   H     H_    0.442743 0.565596 0.153558 0.215615
H47   H     H_    0.528827 0.506169 0.104524 0.222124
H48   H     H_    0.287182 0.520923 0.110350 0.212323
H49   H     H_    0.391023 0.422577 0.160176 0.186057
H50   H     H_    0.266830 0.476306 0.203353 0.166557
C61   C     C_3   0.599974 0.969016 0.318759 -0.356337
C62   C     C_3   0.582142 0.018788 0.365031 -0.740629
H51   H     H_    0.557267 0.065596 0.346442 0.215614
H52   H     H_    0.471170 0.006170 0.395476 0.222125
H53   H     H_    0.712816 0.020921 0.389652 0.212323
H54   H     H_    0.608973 0.922576 0.339824 0.186057
H55   H     H_    0.733170 0.976304 0.296647 0.166556
C63   C     C_3   0.900023 0.030984 0.818757 -0.356344
C64   C     C_3   0.917864 0.981217 0.865033 -0.740629
H56   H     H_    0.942744 0.934408 0.846448 0.215615
H57   H     H_    0.028836 0.993839 0.895476 0.222127
H58   H     H_    0.787191 0.979085 0.889654 0.212323
H59   H     H_    0.891012 0.077426 0.839819 0.186057
H60   H     H_    0.766831 0.023691 0.796645 0.166559
O21   O     O_3   0.718051 0.370524 0.724817 -0.643512
H61   H     H_    0.841493 0.374874 0.707241 0.290813
O22   O     O_3   0.781948 0.629476 0.224817 -0.643511
H62   H     H_    0.658504 0.625126 0.207242 0.290812
O23   O     O_3   0.218056 0.129476 0.275183 -0.643511
H63   H     H_    0.341493 0.125124 0.292762 0.290812
O24   O     O_3   0.281944 0.870524 0.775184 -0.643512
H64   H     H_    0.158506 0.874875 0.792762 0.290813

loop_
_geom_bond_atom_site_label_1
_geom_bond_atom_site_label_2
_ccdc_geom_bond_type
O17   V3    S    
C64   H58   S    
C51   C55   T    
C4    C21   S    
O1    C5    A    
C34   C46   S    
C31   H35   S    
O19   V1    S    
C19   C35   S    
O3    C7    A    
C18   C34   S    
C1    C24   S    
C17   H17   S    
C32   C36   S    
O15   V3    S    
C59   C60   S    
C3    C22   S    
C19   H19   S    
C61   C62   S    
C26   C50   S    
C20   H20   S    
O7    C3    A    
C11   C27   S    
C16   H16   S    
O9    V1    S    
C22   C46   T    
C14   C18   S    
C39   C43   S    
C14   C26   S    
O13   V1    S    
O4    C8    A    
C23   C47   T    
C9    H5    S    
C64   H56   S    
C41   H29   S    
O1    V3    S    
C6    C56   S    
O2    V4    S    
C36   C48   S    
C43   H31   S    
O3    V1    S    
C12   C63   S    
C38   C42   S    
C12   C28   S    
C14   H14   S    
C44   H28   S    
C52   C56   T    
C15   H11   S    
C40   C44   S    
C2    O16   A    
C16   H12   S    
O2    C6    A    
O22   H62   S    
C39   O23   S    
O14   V2    S    
H3    C31   S    
C40   H40   S    
C18   H18   S    
C12   H8    S    
C27   C43   S    
C60   H48   S    
C13   H9    S    
C2    C23   S    
O11   C7    A    
C15   H15   S    
O12   C8    A    
C9    C57   S    
C39   H39   S    
C30   H34   S    
C59   H49   S    
O10   V2    S    
C62   H53   S    
C29   H33   S    
C1    O15   A    
O5    V1    S    
C61   H54   S    
C10   H6    S    
O7    V3    S    
O8    V4    S    
C40   O24   S    
C63   H60   S    
C42   H26   S    
C62   H52   S    
C12   C32   S    
C11   C61   S    
H2    C30   S    
C37   C41   S    
O18   V4    S    
C44   H32   S    
C17   H21   S    
C50   C54   T    
O11   V3    S    
O4    V2    S    
C16   C28   S    
C24   C48   T    
C25   C49   S    
O5    C1    A    
C59   H50   S    
C33   C45   S    
C30   C34   S    
C49   C53   T    
C14   H10   S    
C16   C20   S    
O8    C4    A    
C17   C33   S    
C27   C51   S    
O9    C5    A    
C38   H38   S    
C35   C47   S    
C37   H37   S    
C57   C58   S    
C10   C26   S    
C9    C25   S    
O6    V2    S    
C28   C44   S    
C15   C27   S    
C11   H7    S    
C20   H24   S    
C28   C52   S    
C42   H30   S    
C58   H42   S    
C60   H46   S    
O16   V4    S    
C64   H57   S    
C13   C25   S    
C3    O13   A    
C63   H59   S    
C32   H36   S    
C36   C40   S    
C62   H51   S    
C20   C36   S    
C35   C39   S    
O6    C2    A    
C15   C19   S    
C10   C59   S    
C57   H45   S    
O12   V4    S    
C37   O21   S    
C21   C45   T    
C9    C29   S    
C41   H25   S    
H4    C32   S    
C58   H43   S    
O20   V2    S    
C58   H41   S    
C25   C41   S    
C57   H44   S    
C34   C38   S    
C38   O22   S    
C10   C30   S    
C31   C35   S    
O10   C6    A    
C7    C53   S    
C26   C42   S    
C11   C31   S    
C8    C54   S    
C13   C17   S    
C13   H13   S    
C5    C55   S    
C61   H55   S    
C19   H23   S    
C29   C33   S    
C4    O14   A    
O24   H64   S    
C18   H22   S    
C63   C64   S    
H1    C29   S    
O23   H63   S    
O21   H61   S    
C33   C37   S    
C60   H47   S    
C43   H27   S    
