data_mof_unit_4543.cif
_audit_creation_date              2012-10-26T20:22:28-0400
_audit_creation_method            fapswitch 2.2
_symmetry_space_group_name_H-M    P1
_symmetry_Int_Tables_number       1
_space_group_crystal_system       triclinic
_cell_length_a                    9.57038
_cell_length_b                    10.814196
_cell_length_c                    17.135281
_cell_angle_alpha                 90.481364
_cell_angle_beta                  87.025097
_cell_angle_gamma                 90.606948
_cell_volume                      1770.88839221

loop_
_atom_site_label
_atom_site_type_symbol
_atom_type_description
_atom_site_fract_x
_atom_site_fract_y
_atom_site_fract_z
_atom_type_partial_charge
C1    C     C_R   0.500403 0.737421 0.501355 0.594636
C2    C     C_R   0.076300 0.426853 0.448528 0.175020
C3    C     C_R   0.072136 0.571831 0.551265 0.024542
C4    C     C_R   0.928168 0.427930 0.448654 0.015291
C5    C     C_R   0.482457 0.503205 0.650043 0.549869
C6    C     C_R   0.517144 0.503849 0.349882 0.570175
C7    C     C_R   0.472470 0.524315 0.734205 0.006527
C8    C     C_R   0.523788 0.527721 0.265977 0.000965
C9    C     C_R   0.548024 0.622120 0.765969 -0.068185
C10   C     C_R   0.417352 0.596679 0.234589 -0.123342
C11   C     C_R   0.532478 0.651654 0.845613 0.067835
C12   C     C_R   0.499559 0.262589 0.498259 0.599596
C13   C     C_R   0.426474 0.632946 0.156365 0.058158
C14   C     C_R   0.442603 0.576869 0.894390 0.011069
C15   C     C_R   0.540481 0.590523 0.107421 0.011992
C16   C     C_R   0.361660 0.483398 0.861067 -0.127099
C17   C     C_R   0.648135 0.523884 0.139775 -0.129213
C18   C     C_R   0.375053 0.458484 0.781365 -0.137749
C19   C     C_R   0.640709 0.493773 0.218695 -0.107459
C20   C     C_2   0.433511 0.586983 0.980219 -0.050507
C21   C     C_2   0.547145 0.603974 0.021791 -0.051012
C22   C     C_2   0.321026 0.721005 0.129763 0.558973
C23   C     C_R   0.592872 0.933808 0.448387 0.239637
C24   C     C_2   0.603071 0.765251 0.873895 0.564747
C25   C     C_3   0.613455 0.842947 0.328310 -0.066877
C26   C     C_3   0.384971 0.150271 0.671616 -0.074428
C27   C     C_2   0.689531 0.127193 0.388161 0.599122
C28   C     C_2   0.306926 0.872774 0.608356 0.605612
C29   C     C_2   0.853359 0.650112 0.611664 0.610767
C30   C     C_2   0.149022 0.343120 0.392492 0.605085
C31   C     C_R   0.406232 0.065994 0.549690 0.234510
C32   C     C_R   0.593222 0.063139 0.445996 0.005326
C33   C     C_R   0.404840 0.936817 0.551435 0.000010
C34   C     C_R   0.498561 0.128558 0.496695 -0.056470
C35   C     C_R   0.500875 0.871436 0.501808 -0.054283
C36   C     C_R   0.924237 0.572366 0.551768 0.180675
Cu1   Cu    Cu3+1 0.359340 0.499980 0.500000 1.053220
Cu2   Cu    Cu3+1 0.640660 0.500020 0.500000 1.058353
H1    H     H_    0.611296 0.681135 0.727413 0.188270
H2    H     H_    0.873985 0.370045 0.407894 0.149384
H3    H     H_    0.278402 0.864536 0.060698 0.356538
H4    H     H_    0.597816 0.911828 0.947574 0.352429
H5    H     H_    0.681513 0.783419 0.289834 0.163921
H6    H     H_    0.594882 0.929634 0.296150 0.138992
H7    H     H_    0.512784 0.792358 0.339903 0.082972
H8    H     H_    0.467791 0.222718 0.664569 0.105488
H9    H     H_    0.430339 0.063822 0.693984 0.127721
H10   H     H_    0.306019 0.181992 0.716736 0.151101
H11   H     H_    0.883107 0.138665 0.336002 0.339060
H12   H     H_    0.330761 0.628747 0.272523 0.174088
H13   H     H_    0.279947 0.744509 0.692674 0.340826
H14   H     H_    0.766389 0.814706 0.639740 0.342988
H15   H     H_    0.223989 0.172151 0.370375 0.340545
H16   H     H_    0.725086 0.442480 0.242507 0.164996
H17   H     H_    0.310036 0.387510 0.756636 0.126011
H18   H     H_    0.649770 0.610919 0.991824 0.137488
H19   H     H_    0.334223 0.562725 0.010124 0.137430
H20   H     H_    0.289701 0.427649 0.897218 0.130038
H21   H     H_    0.736776 0.492306 0.103299 0.134745
H22   H     H_    0.126508 0.628925 0.592350 0.155464
N1    N     N_R   0.147930 0.499970 0.499980 -0.276786
N2    N     N_R   0.852070 0.500030 0.500020 -0.274337
O1    O     O_R   0.381260 0.680340 0.500000 -0.512636
O2    O     O_R   0.359207 0.809699 0.073551 -0.646687
O3    O     O_2   0.714954 0.798863 0.842892 -0.494729
O4    O     O_R   0.539768 0.836447 0.934008 -0.647281
O5    O     O_3   0.682111 0.867397 0.397816 -0.484453
O6    O     O_3   0.317732 0.131692 0.600989 -0.490052
O7    O     O_2   0.647199 0.212176 0.349409 -0.545643
O8    O     O_R   0.828048 0.088281 0.376918 -0.609597
O9    O     O_2   0.184294 0.903622 0.615184 -0.430190
O10   O     O_R   0.355868 0.779546 0.655478 -0.727854
O11   O     O_2   0.848250 0.616190 0.679595 -0.522632
O12   O     O_R   0.618740 0.319660 0.500000 -0.504616
O13   O     O_R   0.808179 0.767999 0.592743 -0.632535
O14   O     O_2   0.175160 0.376695 0.325335 -0.516006
O15   O     O_R   0.176185 0.221882 0.414309 -0.641131
O16   O     O_R   0.618830 0.680370 0.500010 -0.426478
O17   O     O_R   0.381170 0.319630 0.499990 -0.427411
O18   O     O_R   0.367440 0.500000 0.613600 -0.499190
O19   O     O_R   0.632560 0.500000 0.386400 -0.498856
O20   O     O_R   0.605010 0.500030 0.613600 -0.493817
O21   O     O_R   0.394990 0.499970 0.386400 -0.488161
O22   O     O_2   0.201463 0.718432 0.158710 -0.504504

loop_
_geom_bond_atom_site_label_1
_geom_bond_atom_site_label_2
_ccdc_geom_bond_type
C12   O12   A    
H15   O15   S    
C25   O5    S    
H14   O13   S    
C25   H5    S    
Cu1   O17   S    
C29   C36   S    
C11   C14   A    
C29   O11   D    
C12   O17   A    
C4    N2    A    
C11   C24   S    
C9    H1    S    
C15   C17   A    
C23   O5    S    
C17   C19   A    
C30   O15   S    
C4    H2    S    
C31   C33   A    
C27   O7    D    
C2    N1    A    
C26   H10   S    
C3    H22   S    
C6    O19   A    
Cu2   O20   S    
C1    O16   A    
C28   O10   S    
C36   N2    A    
C1    O1    A    
C25   H6    S    
Cu1   O1    S    
C3    N1    A    
C31   O6    S    
Cu1   O18   S    
C8    C19   A    
C14   C20   S    
C5    C7    S    
C6    C8    S    
Cu2   O16   S    
C32   C34   A    
C2    C4    A    
Cu1   Cu2   S    
C30   O14   D    
C7    C18   A    
C31   C34   A    
C16   H20   S    
C5    O18   A    
C9    C11   A    
C27   O8    S    
C24   O3    D    
C17   H21   S    
C18   H17   S    
C19   H16   S    
C16   C18   A    
C28   C33   S    
C23   C35   A    
H11   O8    S    
C13   C15   A    
Cu2   O19   S    
C14   C16   A    
C28   O9    D    
H13   O10   S    
C12   C34   S    
C10   H12   S    
C25   H7    S    
C1    C35   S    
Cu2   O12   S    
C7    C9    A    
C26   H9    S    
C6    O21   A    
C27   C32   S    
C10   C13   A    
C21   H18   S    
Cu1   N1    S    
C29   O13   S    
C24   O4    S    
C2    C30   S    
C26   O6    S    
C23   C32   A    
C5    O20   A    
C3    C36   A    
C33   C35   A    
C13   C22   S    
C26   H8    S    
C22   O2    S    
C15   C21   S    
C20   C21   D    
C8    C10   A    
H4    O4    S    
Cu1   O21   S    
H3    O2    S    
C20   H19   S    
C22   O22   D    
Cu2   N2    S    
