data_mof_unit_1361.cif
_audit_creation_date              2012-12-10T17:03:42-0500
_audit_creation_method            fapswitch 2.2
_symmetry_space_group_name_H-M    P1
_symmetry_Int_Tables_number       1
_space_group_crystal_system       triclinic
_cell_length_a                    10.070479
_cell_length_b                    10.72569
_cell_length_c                    13.06894
_cell_angle_alpha                 90.051644
_cell_angle_beta                  71.536821
_cell_angle_gamma                 90.50943
_cell_volume                      1338.89817863

loop_
_atom_site_label
_atom_site_type_symbol
_atom_type_description
_atom_site_fract_x
_atom_site_fract_y
_atom_site_fract_z
_atom_type_partial_charge
C1    C     C_R   0.498700 0.736938 0.505258 0.784551
C2    C     C_R   0.445967 0.594832 0.976103 0.006428
C3    C     C_R   0.486040 0.595904 0.863121 0.015344
C4    C     C_R   0.550410 0.578269 0.025024 0.039502
C5    C     C_R   0.692928 0.591680 0.963210 0.034252
C6    C     C_R   0.728909 0.632234 0.856288 0.482010
C7    C     C_R   0.625234 0.631546 0.805438 -0.273738
C8    C     C_R   0.516529 0.540789 0.132088 -0.220308
C9    C     C_R   0.761616 0.529459 0.117377 -0.175318
C10   C     C_R   0.383515 0.565880 0.813468 -0.178856
C11   C     C_2   0.616353 0.067047 0.482701 -0.140194
C12   C     C_R   0.424793 0.518583 0.701857 0.897159
C13   C     C_2   0.506467 0.131937 0.478046 -0.258840
C14   C     C_2   0.612419 0.933365 0.475897 -0.287797
C15   C     C_2   0.495038 0.868378 0.524543 0.395768
C16   C     C_2   0.065773 0.402337 0.519666 -0.153450
C17   C     C_2   0.914049 0.404015 0.524830 -0.147701
C18   C     C_R   0.501448 0.262927 0.495035 0.924701
C19   C     C_R   0.576655 0.501354 0.295938 0.872400
C20   C     C_R   0.797189 0.562972 0.008988 -0.126322
C21   C     C_R   0.620541 0.520883 0.179654 -0.092928
C22   C     C_R   0.241581 0.581842 0.873034 -0.331141
C23   C     C_R   0.204288 0.616936 0.981845 0.591046
C24   C     C_R   0.303864 0.612003 0.034994 -0.256536
H1    H     H_    0.708978 0.887522 0.430372 0.143853
H2    H     H_    0.106336 0.314817 0.538076 0.177116
H3    H     H_    0.109326 0.582602 0.484589 0.161693
H4    H     H_    0.852999 0.319782 0.552664 0.169078
H5    H     H_    0.911747 0.575982 0.466751 0.160770
H6    H     H_    0.905582 0.563311 0.959468 0.213171
H7    H     H_    0.408530 0.524247 0.178971 0.166503
H8    H     H_    0.160938 0.570944 0.835101 0.174020
H9    H     H_    0.269606 0.630861 0.120626 0.151866
H10   H     H_    0.651942 0.665265 0.723444 0.181783
H11   H     H_    0.710102 0.111243 0.490633 0.166662
N1    N     N_2   0.148270 0.498670 0.498870 -0.201073
N2    N     N_2   0.852610 0.498640 0.498840 -0.199093
O1    O     O_R   0.386950 0.680940 0.500020 -0.602540
O2    O     O_R   0.613110 0.680900 0.499980 -0.650355
O3    O     O_R   0.330780 0.500000 0.653640 -0.614241
O4    O     O_R   0.556930 0.499960 0.653610 -0.605744
O5    O     O_R   0.386890 0.319100 0.500020 -0.609350
O6    O     O_R   0.613050 0.319060 0.499980 -0.610757
O7    O     O_R   0.443070 0.500040 0.346390 -0.608327
O8    O     O_R   0.669220 0.500000 0.346360 -0.602572
Zn1   Zn    Zn3+2 0.349000 0.500030 0.500020 0.935905
Zn2   Zn    Zn3+2 0.651000 0.499970 0.499980 0.931131
H12   H     H_    0.843575 0.510868 0.152359 0.199368
H13   H     H_    0.418238 0.088059 0.460758 0.192269
O9    O     O_3   0.374520 0.925400 0.590836 -0.606699
C25   C     C_3   0.327017 0.865353 0.692279 -0.291959
H14   H     H_    0.413930 0.847458 0.725888 0.144196
H15   H     H_    0.270635 0.777265 0.687360 0.174304
H16   H     H_    0.251401 0.927212 0.749770 0.192209
O10   O     O_3   0.860255 0.684929 0.808540 -0.631008
C26   C     C_3   0.930429 0.622447 0.712431 -0.322476
H17   H     H_    0.893379 0.655775 0.646025 0.172675
H18   H     H_    0.919946 0.519271 0.721913 0.170886
H19   H     H_    0.043530 0.645777 0.690327 0.195939
O11   O     O_3   0.069538 0.650061 0.039283 -0.643260
C27   C     C_3   0.048461 0.773747 0.011611 -0.340549
H20   H     H_    0.054506 0.781257 0.925293 0.191660
H21   H     H_    0.124512 0.839295 0.029647 0.163209
H22   H     H_    0.941871 0.802597 0.060924 0.209707

loop_
_geom_bond_atom_site_label_1
_geom_bond_atom_site_label_2
_ccdc_geom_bond_type
C12   O3    A    
C27   H22   S    
C2    C4    A    
C23   C24   A    
C19   O8    A    
N1    Zn1   S    
C6    C7    A    
C1    C15   S    
C12   O4    A    
H3    N1    S    
N2    Zn2   S    
C9    C20   A    
C24   H9    S    
C26   H19   S    
C6    O10   S    
C4    C8    A    
C25   H16   S    
O10   C26   S    
C11   H11   S    
O9    C25   S    
O4    Zn2   S    
C3    C10   A    
C17   N2    D    
C18   O6    A    
C16   N1    D    
O3    Zn1   S    
C23   O11   S    
C11   C13   D    
C9    C21   A    
C5    C6    A    
C22   H8    S    
C1    O1    A    
C13   H13   S    
C10   C12   S    
O2    Zn2   S    
C19   C21   S    
C26   H18   S    
C2    C3    A    
C3    C7    A    
O8    Zn2   S    
C14   H1    S    
C2    C24   A    
C27   H20   S    
C7    H10   S    
O1    Zn1   S    
C16   C17   S    
C1    O2    A    
C25   H14   S    
C19   O7    A    
C26   H17   S    
C9    H12   S    
C13   C18   S    
O5    Zn1   S    
C15   O9    S    
H5    N2    S    
C11   C14   S    
C5    C20   A    
C14   C15   D    
C4    C5    A    
C20   H6    S    
C18   O5    A    
C22   C23   A    
C17   H4    S    
O6    Zn2   S    
C27   H21   S    
C10   C22   A    
C8    H7    S    
O7    Zn1   S    
O11   C27   S    
C25   H15   S    
C16   H2    S    
C8    C21   A    
