data_mof_unit_1338.cif
_audit_creation_date              2013-03-05T16:09:51-0500
_audit_creation_method            fapswitch 2.2
_symmetry_space_group_name_H-M    P1
_symmetry_Int_Tables_number       1
_space_group_crystal_system       triclinic
_cell_length_a                    6.941928
_cell_length_b                    13.37287
_cell_length_c                    14.690066
_cell_angle_alpha                 98.937815
_cell_angle_beta                  89.87213
_cell_angle_gamma                 90.2273
_cell_volume                      1347.15881311

loop_
_atom_site_label
_atom_site_type_symbol
_atom_site_description
_atom_site_fract_x
_atom_site_fract_y
_atom_site_fract_z
_atom_type_partial_charge
O1    O     O_R   0.354890 0.151580 0.148210 -0.594446
O2    O     O_R   0.645110 0.848420 0.851790 -0.594448
O3    O     O_R   0.682370 0.152980 0.336770 -0.602075
O4    O     O_R   0.317630 0.847020 0.663230 -0.602074
O5    O     O_R   0.854980 0.348430 0.351800 -0.594863
O6    O     O_R   0.145020 0.651570 0.648200 -0.594863
C1    C     C_R   0.513702 0.131344 0.366371 1.021878
C2    C     C_R   0.486298 0.868656 0.633629 1.021877
O7    O     O_R   0.684450 0.139580 0.148000 -0.571742
O8    O     O_R   0.315550 0.860420 0.852000 -0.571742
O9    O     O_R   0.857080 0.334940 0.161680 -0.583695
O10   O     O_R   0.142920 0.665060 0.838320 -0.583691
C3    C     C_R   0.515515 0.112689 0.114018 1.006204
C4    C     C_R   0.484485 0.887311 0.885982 1.006208
O11   O     O_R   0.352790 0.165070 0.338330 -0.583781
O12   O     O_R   0.647210 0.834930 0.661670 -0.583781
O13   O     O_3   0.522170 0.314120 0.254710 -0.277767
O14   O     O_3   0.477830 0.685880 0.745290 -0.277767
V1    V     V_3+5 0.796120 0.238110 0.249130 1.242740
V2    V     V_3+5 0.203880 0.761890 0.750870 1.242741
O15   O     O_R   0.186930 0.347040 0.163240 -0.603179
O16   O     O_R   0.813070 0.652960 0.836760 -0.603178
C5    C     C_R   0.018546 0.368128 0.133347 1.038772
C6    C     C_R   0.981454 0.631871 0.866652 1.038764
O17   O     O_R   0.184850 0.360440 0.352010 -0.582312
O18   O     O_R   0.815150 0.639560 0.647990 -0.582311
C7    C     C_R   0.015858 0.387313 0.385994 1.005002
C8    C     C_R   0.984142 0.612687 0.614006 1.005002
V3    V     V_3+5 0.296410 0.261900 0.250880 1.236269
V4    V     V_3+5 0.703590 0.738100 0.749120 1.236269
O19   O     O_3   0.020490 0.185890 0.245290 -0.272273
O20   O     O_3   0.979510 0.814110 0.754710 -0.272273
C9    C     C_1   0.005180 0.466902 0.466347 -0.169254
C10   C     C_1   0.994820 0.533098 0.533653 -0.169255
C11   C     C_3   0.072408 0.588247 0.035133 0.445813
C12   C     C_3   0.927593 0.411754 0.964867 0.445817
C13   C     C_3   0.897921 0.538895 0.075767 -0.254929
C14   C     C_3   0.102080 0.461105 0.924232 -0.254923
H1    H     H_    0.816606 0.572077 0.138309 0.183544
H2    H     H_    0.183394 0.427924 0.861690 0.183543
C15   C     C_3   0.009617 0.437664 0.062571 -0.269732
C16   C     C_3   0.990384 0.562336 0.937430 -0.269738
C17   C     C_3   0.186133 0.488451 0.023513 -0.227532
C18   C     C_3   0.813868 0.511549 0.976487 -0.227531
H3    H     H_    0.338884 0.480841 0.043515 0.163673
H4    H     H_    0.661116 0.519159 0.956485 0.163673
C19   C     C_3   0.406664 0.956570 0.423402 -0.236142
C20   C     C_3   0.593336 0.043430 0.576598 -0.236143
C21   C     C_3   0.584293 0.913109 0.466762 0.563701
C22   C     C_3   0.415707 0.086891 0.533238 0.563701
H5    H     H_    0.331051 0.920606 0.360114 0.192621
H6    H     H_    0.668949 0.079394 0.639886 0.192621
C23   C     C_3   0.494172 0.938711 0.563000 -0.283256
C24   C     C_3   0.505828 0.061288 0.437000 -0.283256
C25   C     C_3   0.315120 0.982501 0.520850 -0.209822
C26   C     C_3   0.684880 0.017499 0.479149 -0.209822
H7    H     H_    0.162641 0.968920 0.538547 0.175533
H8    H     H_    0.837358 0.031080 0.461453 0.175533
C27   C     C_1   0.504917 0.033105 0.033659 -0.158656
C28   C     C_1   0.495083 0.966895 0.966341 -0.158655
N1    N     N_R   0.153469 0.685251 0.076922 0.229775
O21   O     O_R   0.222682 0.695584 0.160060 -0.373364
O22   O     O_R   0.153274 0.762370 0.032849 -0.419280
N2    N     N_R   0.846528 0.314747 0.923078 0.229786
O23   O     O_R   0.777315 0.304419 0.839944 -0.373373
O24   O     O_R   0.846745 0.237627 0.967150 -0.419283
Cl1   Cl    Cl    0.698638 0.796759 0.422146 -0.637425
Cl2   Cl    Cl    0.301362 0.203241 0.577854 -0.637425

loop_
_geom_bond_atom_site_label_1
_geom_bond_atom_site_label_2
_geom_bond_distance
_ccdc_geom_bond_type
C14   H2    1.110237 S    
O13   V3    1.710696 S    
O4    C2    1.295339 A    
V1    O19   1.706705 S    
C19   C21   1.545387 S    
C7    C9    1.463386 S    
O9    V1    2.004063 S    
C22   C24   1.534482 S    
C11   C13   1.540106 S    
C14   C16   1.548408 S    
O3    C1    1.295339 A    
O12   V4    2.000850 S    
C6    C16   1.500240 S    
N1    O22   1.300099 A    
C11   C16   1.533573 S    
O7    C3    1.302813 A    
O5    C7    1.298722 A    
O7    V1    1.983157 S    
O6    C8    1.298723 A    
O8    V2    1.983157 S    
O3    V1    2.005195 S    
O14   V4    1.710695 S    
C11   C17   1.539627 S    
C20   C22   1.545387 S    
C8    C10   1.463386 S    
C27   C28   1.222423 T    
C2    O12   1.297941 A    
C15   C17   1.550259 S    
C12   C15   1.533570 S    
C16   C18   1.550268 S    
C18   H4    1.110258 S    
O11   V3    2.000849 S    
C23   C25   1.546980 S    
O17   V3    1.984427 S    
C20   C23   1.543022 S    
C24   C26   1.546979 S    
O8    C4    1.302812 A    
C19   H5    1.110148 S    
C1    O11   1.297941 A    
O15   V3    1.999535 S    
N2    O24   1.300083 A    
O10   V2    2.004061 S    
O1    V3    1.981587 S    
C9    C10   1.222541 T    
C11   N1    1.457589 S    
C17   H3    1.110247 S    
C19   C24   1.543022 S    
O5    V1    1.981108 S    
O18   V4    1.984426 S    
C25   H7    1.110356 S    
O16   C6    1.296957 A    
C12   C18   1.539607 S    
O1    C3    1.298857 A    
C12   C14   1.540095 S    
C4    C28   1.463212 S    
C19   C25   1.554603 S    
V2    O20   1.706705 S    
C20   C26   1.554603 S    
C21   Cl1   1.780777 S    
C2    C23   1.502839 S    
C3    C27   1.463212 S    
O17   C7    1.303682 A    
C21   C26   1.543823 S    
O6    V2    1.981108 S    
O10   C6    1.295364 A    
O18   C8    1.303682 A    
C22   C25   1.543823 S    
C5    C15   1.500242 S    
O2    V4    1.981588 S    
N2    O23   1.300402 A    
C13   C18   1.561279 S    
O15   C5    1.296954 A    
C14   C17   1.561296 S    
V3    O19   2.160577 S    
O16   V4    1.999532 S    
V4    O20   2.160578 S    
C21   C23   1.534482 S    
O9    C5    1.295361 A    
O13   V1    2.155298 S    
C26   H8    1.110357 S    
O14   V2    2.155297 S    
C13   C15   1.548400 S    
N1    O21   1.300454 A    
O2    C4    1.298856 A    
O4    V2    2.005194 S    
C20   H6    1.110148 S    
C13   H1    1.110237 S    
C1    C24   1.502839 S    
C12   N2    1.457641 S    
C22   Cl2   1.780778 S    
