data_mof_unit_2415.cif
_audit_creation_date              2012-12-11T21:29:12-0500
_audit_creation_method            fapswitch 2.2
_symmetry_space_group_name_H-M    P1
_symmetry_Int_Tables_number       1
_space_group_crystal_system       triclinic
_cell_length_a                    8.291858
_cell_length_b                    18.851477
_cell_length_c                    18.726394
_cell_angle_alpha                 103.444446
_cell_angle_beta                  91.696655
_cell_angle_gamma                 92.11384
_cell_volume                      2842.8421762

loop_
_atom_site_label
_atom_site_type_symbol
_atom_type_description
_atom_site_fract_x
_atom_site_fract_y
_atom_site_fract_z
_atom_type_partial_charge
Ba1   Ba    Ba6+2 0.844980 0.532260 0.467660 1.668547
Ba2   Ba    Ba6+2 0.344840 0.467800 0.532350 1.665683
C1    C     C_3   0.477215 0.745254 0.236175 -0.394310
C2    C     C_R   0.918346 0.425254 0.088488 0.018611
C3    C     C_R   0.780251 0.382675 0.058776 -0.027059
C4    C     C_3   0.074649 0.675969 0.279148 0.378513
C5    C     C_R   0.716460 0.382954 0.988662 0.062509
C6    C     C_R   0.797273 0.424496 0.945295 0.019268
C7    C     C_R   0.940860 0.465207 0.973652 -0.006895
C8    C     C_R   0.740648 0.424490 0.873641 -0.064999
C9    C     C_R   0.829621 0.459371 0.827542 -0.010418
C10   C     C_R   0.974790 0.499325 0.855544 0.022971
C11   C     C_R   0.026788 0.503964 0.929578 0.012079
C12   C     C_3   0.572785 0.721787 0.297332 0.376391
C13   C     C_R   0.775336 0.456502 0.754479 0.074116
C14   C     C_R   0.874006 0.486689 0.708469 -0.300112
C15   C     C_R   0.018924 0.526131 0.734539 0.040225
C16   C     C_3   0.048179 0.695565 0.205379 -0.359574
C17   C     C_R   0.066528 0.535693 0.810296 -0.016551
C18   C     C_R   0.143752 0.506002 0.074327 -0.005394
C19   C     C_R   0.202083 0.507532 0.146916 -0.016074
C20   C     C_R   0.112851 0.470316 0.192004 -0.025772
C21   C     C_R   0.974796 0.427144 0.160434 0.047568
C22   C     C_R   0.199896 0.581805 0.843104 0.000853
C23   C     C_3   0.489317 0.329846 0.296122 0.249699
C24   C     C_R   0.250461 0.586718 0.916578 0.045584
C25   C     C_R   0.168410 0.545100 0.958784 0.015682
C26   C     C_R   0.228385 0.544963 0.030437 0.015855
C27   C     C_R   0.384232 0.631907 0.948540 -0.067775
C28   C     C_3   0.199503 0.703771 0.652305 0.256487
C29   C     C_R   0.450205 0.627711 0.016941 -0.096066
C30   C     C_R   0.374621 0.583181 0.057678 0.025789
C31   C     C_R   0.352862 0.543820 0.172935 -0.028950
C32   C     C_R   0.440961 0.577988 0.125892 -0.121939
C33   C     C_R   0.410676 0.544533 0.245065 0.030933
C34   C     C_3   0.451961 0.284155 0.217513 -0.142120
C35   C     C_R   0.314609 0.513279 0.291146 -0.273365
C36   C     C_R   0.167080 0.476002 0.266302 0.046982
C37   C     C_R   0.694443 0.949997 0.531845 0.002201
C38   C     C_R   0.770692 0.907430 0.574307 -0.055089
C39   C     C_R   0.918469 0.044699 0.553207 -0.074034
C40   C     C_3   0.203916 0.785228 0.693070 -0.116699
C41   C     C_R   0.759183 0.019916 0.528128 0.025209
C42   C     C_R   0.975322 0.115472 0.554170 -0.008622
C43   C     C_R   0.873931 0.165303 0.532906 0.040758
C44   C     C_R   0.720559 0.139010 0.499595 -0.006659
C45   C     C_3   0.112858 0.291037 0.727958 0.199354
C46   C     C_R   0.664142 0.065873 0.495925 0.017981
C47   C     C_R   0.921918 0.239981 0.541487 0.007488
C48   C     C_R   0.820714 0.285629 0.513765 -0.305312
C49   C     C_R   0.675194 0.258958 0.476524 0.024989
C50   C     C_R   0.623920 0.185572 0.469139 -0.035359
C51   C     C_R   0.544728 0.923055 0.495206 0.043012
C52   C     C_3   0.996815 0.294343 0.343553 0.235558
C53   C     C_R   0.486149 0.850652 0.493985 0.029745
C54   C     C_R   0.575786 0.805802 0.530248 -0.028258
C55   C     C_R   0.712667 0.837113 0.573655 0.039720
C56   C     C_3   0.210431 0.281816 0.797998 -0.144853
C57   C     C_R   0.481803 0.156604 0.429260 0.000438
C58   C     C_R   0.427939 0.085524 0.424552 -0.099422
C59   C     C_R   0.512759 0.039548 0.460341 0.000417
C60   C     C_R   0.452836 0.967906 0.459881 0.029984
C61   C     C_R   0.300871 0.940213 0.427167 -0.111686
C62   C     C_R   0.336476 0.823685 0.457564 -0.023040
C63   C     C_R   0.245023 0.869931 0.425733 -0.117081
C64   C     C_3   0.059395 0.216354 0.318432 -0.234778
C65   C     C_R   0.279813 0.751962 0.455940 0.021402
C66   C     C_R   0.376286 0.706223 0.486115 -0.294625
C67   C     C_3   0.565746 0.277890 0.658445 0.378226
C68   C     C_R   0.522504 0.732044 0.523857 0.043776
C69   C     C_3   0.698376 0.652734 0.703121 0.263224
C70   C     C_3   0.701676 0.691969 0.785325 -0.107787
C71   C     C_3   0.675059 0.787785 0.340122 -0.276493
C72   C     C_3   0.322219 0.801043 0.760215 -0.379064
C73   C     C_2   0.235821 0.836493 0.643822 0.798158
C74   C     C_2   0.055220 0.186573 0.235629 0.948354
C75   C     C_2   0.967925 0.161944 0.350487 0.749925
C76   C     C_3   0.825844 0.756777 0.803070 -0.379068
C77   C     C_2   0.724140 0.640829 0.835075 0.762812
C78   C     C_3   0.546985 0.200226 0.669318 -0.244910
C79   C     C_2   0.379224 0.328457 0.168879 0.798631
C80   C     C_3   0.603593 0.248944 0.182739 -0.296523
C81   C     C_2   0.944262 0.258976 0.730464 0.774428
C82   C     C_3   0.158982 0.335332 0.867425 -0.472176
C83   C     C_2   0.204235 0.204403 0.808583 0.887600
C84   C     C_3   0.562639 0.338669 0.961599 -0.393688
C85   C     C_R   0.000161 0.466116 0.045764 0.008294
H1    H     H_    0.081866 0.797513 0.714235 0.079865
H2    H     H_    0.389447 0.701661 0.208573 0.091829
H3    H     H_    0.374388 0.349103 0.321190 0.008293
H4    H     H_    0.571100 0.377751 0.295300 0.053257
H5    H     H_    0.364337 0.239198 0.220876 0.111711
H6    H     H_    0.559680 0.758252 0.194811 0.128283
H7    H     H_    0.096605 0.653174 0.160928 0.073589
H8    H     H_    0.108055 0.350583 0.730380 0.030463
H9    H     H_    0.338306 0.296249 0.793921 0.148781
H10   H     H_    0.690435 0.287596 0.642435 -0.033926
H11   H     H_    0.481705 0.283513 0.613318 0.084526
H12   H     H_    0.863595 0.292808 0.338549 0.057473
H13   H     H_    0.631487 0.164264 0.635417 0.086140
H14   H     H_    0.423331 0.176886 0.652760 0.147482
H15   H     H_    0.006303 0.623789 0.277541 0.086840
H16   H     H_    0.573678 0.199273 0.727545 0.205663
H17   H     H_    0.721760 0.348889 0.090485 0.110620
H18   H     H_    0.833363 0.482399 0.652137 0.066680
H19   H     H_    0.628721 0.395200 0.852903 0.117517
H20   H     H_    0.909749 0.394089 0.190949 0.108495
H21   H     H_    0.266950 0.613731 0.812011 0.102655
H22   H     H_    0.441355 0.668848 0.919552 0.095279
H23   H     H_    0.037610 0.317673 0.401694 0.020302
H24   H     H_    0.558998 0.660201 0.038469 0.089463
H25   H     H_    0.558214 0.604191 0.143075 0.107208
H26   H     H_    0.205391 0.668754 0.288026 -0.101738
H27   H     H_    0.359168 0.515001 0.346438 0.066185
H28   H     H_    0.858745 0.342114 0.518416 0.067757
H29   H     H_    0.098514 0.131059 0.573608 0.097783
H30   H     H_    0.776903 0.808268 0.608271 0.115239
H31   H     H_    0.409560 0.187937 0.400328 0.116463
H32   H     H_    0.127323 0.853326 0.400033 0.118829
H33   H     H_    0.332631 0.650892 0.483743 0.069380
H34   H     H_    0.188037 0.219838 0.337703 0.012190
H35   H     H_    0.003229 0.009706 0.571119 0.068834
H36   H     H_    0.873039 0.928615 0.610861 0.100347
H37   H     H_    0.319396 0.068430 0.391291 0.113890
H38   H     H_    0.917503 0.699537 0.193326 0.152432
H39   H     H_    0.218997 0.971576 0.402748 0.097290
H40   H     H_    0.110628 0.748882 0.206220 0.116402
H41   H     H_    0.322659 0.686458 0.637694 0.005085
H42   H     H_    0.119869 0.694552 0.601901 0.050485
H43   H     H_    0.728462 0.775345 0.390246 0.143322
H44   H     H_    0.772555 0.802196 0.305902 0.146016
H45   H     H_    0.821713 0.638347 0.685665 0.003548
H46   H     H_    0.600583 0.836080 0.356560 0.047071
H47   H     H_    0.296592 0.763381 0.796530 0.129279
H48   H     H_    0.448372 0.795378 0.742474 0.160170
H49   H     H_    0.309897 0.857717 0.792918 0.140160
H50   H     H_    0.141368 0.885784 0.568923 0.306220
H51   H     H_    0.206726 0.106760 0.242712 0.263736
H52   H     H_    0.764592 0.098741 0.345326 0.314700
H53   H     H_    0.950361 0.737213 0.797723 0.154449
H54   H     H_    0.806243 0.793926 0.765783 0.136449
H55   H     H_    0.813118 0.788753 0.860309 0.138189
H56   H     H_    0.618206 0.602531 0.692874 0.056382
H57   H     H_    0.622267 0.559509 0.873333 0.304584
H58   H     H_    0.419722 0.403813 0.110613 0.307263
H59   H     H_    0.578851 0.222504 0.123705 0.120833
H60   H     H_    0.704149 0.290533 0.187836 0.142260
H61   H     H_    0.642170 0.206076 0.210634 0.194863
H62   H     H_    0.005123 0.154042 0.695943 0.295215
H63   H     H_    0.218660 0.324261 0.917240 0.158425
H64   H     H_    0.195850 0.391584 0.864360 0.122806
H65   H     H_    0.027023 0.330670 0.873809 0.189886
H66   H     H_    0.114547 0.132410 0.863573 0.330042
H67   H     H_    0.407094 0.793914 0.259154 0.096244
H68   H     H_    0.582860 0.297667 0.909921 0.153181
H69   H     H_    0.516969 0.308879 0.002101 0.141644
H70   H     H_    0.469165 0.376261 0.951852 0.100686
H71   H     H_    0.581073 0.714435 0.797549 0.069144
H72   H     H_    0.486600 0.705398 0.335657 -0.035800
O1    O     O_2   0.885040 0.450540 0.321170 -0.472847
O2    O     O_2   0.242091 0.246492 0.526348 -0.475281
O3    O     O_3   0.190985 0.256752 0.663555 -0.640777
O4    O     O_3   0.133000 0.456200 0.410860 -0.484800
O5    O     O_3   0.556800 0.589310 0.543550 -0.484513
O6    O     O_2   0.384750 0.321010 0.451130 -0.460913
O7    O     O_3   0.565885 0.284357 0.334681 -0.642628
O8    O     O_2   0.431956 0.460380 0.754369 -0.456285
O9    O     O_3   0.532828 0.327517 0.724318 -0.593587
O10   O     O_3   0.639000 0.584840 0.375630 -0.467753
O11   O     O_2   0.742018 0.528826 0.244139 -0.477863
O12   O     O_3   0.636098 0.701851 0.665141 -0.659817
O13   O     O_3   0.059358 0.335266 0.296593 -0.627994
O14   O     O_3   0.677793 0.666299 0.266489 -0.597525
O15   O     O_2   0.804950 0.679010 0.548920 -0.459541
O16   O     O_3   0.051170 0.624120 0.414780 -0.487056
O17   O     O_2   0.947451 0.754074 0.472492 -0.455616
O18   O     O_2   0.360017 0.875047 0.651533 -0.606236
O19   O     O_R   0.115456 0.844105 0.593033 -0.773556
O20   O     O_2   0.973631 0.214275 0.194975 -0.532042
O21   O     O_R   0.142519 0.125659 0.204679 -0.713621
O22   O     O_2   0.037436 0.130960 0.392131 -0.630841
O23   O     O_3   0.018595 0.732111 0.334585 -0.611224
O24   O     O_R   0.807246 0.142330 0.327420 -0.757556
O25   O     O_2   0.834576 0.651046 0.881625 -0.617405
O26   O     O_R   0.608659 0.584493 0.831336 -0.781271
O27   O     O_2   0.244661 0.311318 0.140238 -0.566747
O28   O     O_R   0.469497 0.386397 0.153136 -0.796535
O29   O     O_2   0.841122 0.299069 0.758906 -0.636492
O30   O     O_R   0.907694 0.183921 0.710326 -0.734556
O31   O     O_2   0.282369 0.157917 0.769602 -0.618851
O32   O     O_R   0.108728 0.185763 0.862443 -0.713413
O33   O     O_2   0.304650 0.549490 0.678880 -0.457454
O34   O     O_3   0.056690 0.543860 0.589150 -0.485719
O35   O     O_3   0.550690 0.415220 0.624380 -0.491517
O36   O     O_3   0.135641 0.665282 0.701154 -0.661401
O37   O     O_3   0.632900 0.410750 0.456460 -0.474376
O38   O     O_3   0.138520 0.375940 0.585230 -0.471591
P1    P     P_3+3 0.058010 0.429760 0.330690 0.990780
P2    P     P_3+3 0.631910 0.669560 0.569730 0.979911
P3    P     P_3+3 0.075328 0.716598 0.420153 0.961389
P4    P     P_3+3 0.131690 0.570300 0.669320 0.985038
P5    P     P_3+3 0.119064 0.281542 0.582737 0.930835
P6    P     P_3+3 0.614727 0.581248 0.281976 0.965633
P7    P     P_3+3 0.566655 0.319132 0.429531 0.948834
P8    P     P_3+3 0.573122 0.416818 0.716412 0.995039

loop_
_geom_bond_atom_site_label_1
_geom_bond_atom_site_label_2
_ccdc_geom_bond_type
C53   C54   A    
C71   H44   S    
C68   P2    S    
C72   H48   S    
Ba2   O38   S    
C32   H25   S    
Ba1   P1    S    
C74   O20   D    
H51   O21   S    
C61   C63   A    
C80   H60   S    
C70   H71   S    
C5    C6    A    
C2    C85   A    
C43   C44   A    
C54   C55   A    
C40   C73   S    
C35   C36   A    
C4    O23   S    
O8    P8    D    
C69   H56   S    
C33   C35   A    
O6    P7    D    
Ba2   O33   S    
C48   H28   S    
C70   C77   S    
C76   H55   S    
C16   H38   S    
C7    C11   A    
C56   H9    S    
O3    P5    S    
C5    C84   S    
C19   C31   A    
C13   C14   A    
C20   C36   A    
C18   C85   A    
C44   C50   A    
C83   O32   S    
O34   P4    S    
C77   O25   D    
C52   H23   S    
Ba1   Ba2   S    
C58   H37   S    
C73   O19   S    
C84   H69   S    
O12   P2    S    
C31   C33   A    
C69   H45   S    
C47   P5    S    
C45   O3    S    
C9    C13   A    
H50   O19   S    
C29   C30   A    
O4    P1    S    
C34   C80   S    
C6    C7    A    
C72   H49   S    
C75   O22   D    
O33   P4    D    
C36   P1    S    
O13   P1    S    
C22   H21   S    
C45   C81   S    
O37   P7    S    
C41   C46   A    
O5    P2    S    
C67   H11   S    
C34   H5    S    
C4    H15   S    
C3    H17   S    
C21   H20   S    
C57   C58   A    
C19   C20   A    
C78   H13   S    
C39   C41   A    
Ba1   P2    S    
Ba2   P4    S    
O17   P3    D    
C73   O18   D    
C80   H59   S    
C48   C49   A    
C44   C46   A    
H57   O26   S    
C51   C53   A    
C63   H32   S    
C4    C16   S    
C28   H41   S    
Ba1   O15   S    
C40   C72   S    
C23   H4    S    
C78   H16   S    
C65   C66   A    
C12   C71   S    
C52   O13   S    
O2    P5    D    
C26   C30   A    
Ba1   O37   S    
O23   P3    S    
Ba1   O5    S    
C65   P3    S    
C76   H54   S    
Ba2   O5    S    
C37   C38   A    
C3    C5    A    
C2    C21   A    
C14   C15   A    
C37   C41   A    
C35   H27   S    
C18   C26   A    
C83   O31   D    
C1    H67   S    
C49   C50   A    
C58   C59   A    
Ba2   O35   S    
C30   C32   A    
C39   H35   S    
Ba1   O34   S    
C84   H68   S    
C62   C65   A    
C4    H26   S    
C60   C61   A    
C50   C57   A    
C56   C82   S    
C16   H40   S    
O10   P6    S    
C51   C60   A    
C80   H61   S    
C28   O36   S    
C43   C47   A    
C34   C79   S    
C64   C74   S    
C53   C62   A    
C31   C32   A    
O15   P2    D    
C64   H34   S    
O38   P5    S    
C1    H6    S    
O7    P7    S    
C10   C11   A    
C15   P4    S    
Ba2   O6    S    
C42   H29   S    
O11   P6    D    
C13   P8    S    
C1    C12   S    
C14   H18   S    
O36   P4    S    
C82   H65   S    
C66   C68   A    
H58   O28   S    
C57   H31   S    
C54   C68   A    
C24   C25   A    
C16   H7    S    
C39   C42   A    
C69   O12   S    
C52   H12   S    
C8    H19   S    
C40   H1    S    
C56   C83   S    
C79   O27   D    
H52   O24   S    
C49   P7    S    
C55   H30   S    
H66   O32   S    
C27   H22   S    
O35   P8    S    
C71   H43   S    
Ba1   O16   S    
C29   H24   S    
C38   C55   A    
C77   O26   S    
O9    P8    S    
C28   C40   S    
C81   O30   S    
Ba1   O1    S    
C23   H3    S    
C42   C43   A    
C22   C24   A    
C2    C3    A    
C74   O21   S    
C76   H53   S    
Ba2   O4    S    
O1    P1    D    
C9    C10   A    
C52   C64   S    
C23   O7    S    
C12   O14   S    
C28   H42   S    
C12   H72   S    
H62   O30   S    
C1    H2    S    
C78   H14   S    
O14   P6    S    
Ba2   O34   S    
C62   C63   A    
C17   C22   A    
C67   O9    S    
C69   C70   S    
C27   C29   A    
C66   H33   S    
C45   C56   S    
C33   P6    S    
C46   C59   A    
C37   C51   A    
C38   H36   S    
C72   H47   S    
C10   C17   A    
Ba1   O10   S    
C15   C17   A    
Ba2   O37   S    
C64   C75   S    
C59   C60   A    
C81   O29   D    
C84   H70   S    
O16   P3    S    
C61   H39   S    
C8    C9    A    
C23   C34   S    
C82   H64   S    
C18   C19   A    
Ba1   O4    S    
C24   C27   A    
C6    C8    A    
C47   C48   A    
C71   H46   S    
C70   C76   S    
C25   C26   A    
C45   H8    S    
C20   C21   A    
C11   C25   A    
C67   C78   S    
C79   O28   S    
C7    C85   A    
C75   O24   S    
C67   H10   S    
C82   H63   S    
