data_mof_unit_339.cif
_audit_creation_date              2012-12-10T19:06:28-0500
_audit_creation_method            fapswitch 2.2
_symmetry_space_group_name_H-M    P1
_symmetry_Int_Tables_number       1
_space_group_crystal_system       triclinic
_cell_length_a                    23.490472
_cell_length_b                    10.841867
_cell_length_c                    9.582653
_cell_angle_alpha                 90.541937
_cell_angle_beta                  89.733079
_cell_angle_gamma                 91.004477
_cell_volume                      2440.00673178

loop_
_atom_site_label
_atom_site_type_symbol
_atom_type_description
_atom_site_fract_x
_atom_site_fract_y
_atom_site_fract_z
_atom_type_partial_charge
C1    C     C_R   0.498384 0.262543 0.499285 0.792224
C2    C     C_R   0.967237 0.315748 0.638982 -0.157262
C3    C     C_R   0.026631 0.315844 0.640613 -0.156150
C4    C     C_R   0.058132 0.406772 0.568867 -0.016654
C5    C     C_R   0.029336 0.498083 0.494680 -0.016608
C6    C     C_R   0.060483 0.589779 0.422581 -0.015196
C7    C     C_R   0.031339 0.680302 0.348685 -0.156771
C8    C     C_R   0.971953 0.679754 0.346341 -0.157655
C9    C     C_R   0.117883 0.408632 0.568863 0.539931
C10   C     C_R   0.120170 0.588589 0.426554 0.538151
C11   C     C_R   0.238412 0.517924 0.624381 -0.085834
C12   C     C_R   0.390956 0.499697 0.500245 0.797197
C13   C     C_R   0.297796 0.518074 0.624996 -0.185224
C14   C     C_R   0.328264 0.499104 0.500312 -0.057789
C15   C     C_R   0.298262 0.479725 0.375207 -0.200103
C16   C     C_R   0.238924 0.479115 0.374946 -0.088839
C17   C     C_R   0.208722 0.498448 0.499380 0.335076
C18   C     C_R   0.758612 0.401697 0.428856 -0.084898
C19   C     C_R   0.699226 0.402327 0.431456 -0.212385
C20   C     C_R   0.670777 0.499824 0.496646 -0.013585
C21   C     C_R   0.701899 0.598523 0.555016 -0.161620
C22   C     C_R   0.761232 0.597842 0.552861 -0.074824
C23   C     C_R   0.498972 0.737790 0.500344 0.794606
C24   C     C_R   0.789882 0.499107 0.490398 0.335722
C25   C     C_R   0.485453 0.065435 0.621971 0.121606
C26   C     C_R   0.491764 0.129568 0.497450 -0.097818
C27   C     C_R   0.489906 0.063087 0.370885 -0.203481
C28   C     C_R   0.490444 0.934407 0.371897 -0.203684
C29   C     C_R   0.493020 0.871098 0.499406 -0.102448
C30   C     C_R   0.486167 0.938417 0.623259 0.149098
C31   C     C_3   0.519530 0.938393 0.755555 -0.491539
C32   C     C_3   0.518183 0.077962 0.754259 -0.451299
C33   C     C_R   0.546609 0.540006 0.073763 0.255924
C34   C     C_R   0.608718 0.500306 0.499354 0.791922
C35   C     C_R   0.457122 0.445502 0.076023 -0.062025
C36   C     C_R   0.457121 0.442531 0.927471 0.041639
C37   C     C_R   0.547230 0.538182 0.926866 0.295461
C38   C     C_3   0.576494 0.661742 0.924299 -0.279235
C39   C     C_3   0.574485 0.663748 0.083069 -0.518314
C40   C     C_R   0.880716 0.586750 0.417714 0.536872
C41   C     C_R   0.878390 0.408545 0.562778 0.543071
C42   C     C_R   0.938088 0.406374 0.565251 -0.016888
C43   C     C_R   0.969245 0.497753 0.492661 -0.016816
C44   C     C_R   0.940458 0.588903 0.418207 -0.013815
Cu1   Cu    Cu3+1 0.500000 0.499980 0.640670 0.948447
Cu2   Cu    Cu3+1 0.500000 0.500020 0.359330 0.948278
H1    H     H_    0.944284 0.244456 0.695626 0.190668
H2    H     H_    0.675466 0.326427 0.384083 0.145407
H3    H     H_    0.680266 0.676743 0.599984 0.119925
H4    H     H_    0.784996 0.673955 0.599614 0.147360
H5    H     H_    0.491206 0.109834 0.271496 0.168087
H6    H     H_    0.491757 0.885532 0.272951 0.162380
H7    H     H_    0.494462 0.898760 0.843524 0.201609
H8    H     H_    0.563174 0.902326 0.740315 0.186333
H9    H     H_    0.492198 0.117743 0.840305 0.194679
H10   H     H_    0.560872 0.121982 0.739227 0.210987
H11   H     H_    0.422874 0.401535 0.134031 0.179469
H12   H     H_    0.047735 0.244589 0.698408 0.191812
H13   H     H_    0.545648 0.735028 0.125837 0.193520
H14   H     H_    0.054289 0.751785 0.292340 0.191914
H15   H     H_    0.950851 0.750870 0.288327 0.190841
H16   H     H_    0.215411 0.533590 0.720925 0.155060
H17   H     H_    0.320569 0.464405 0.277600 0.174822
H18   H     H_    0.216320 0.463412 0.277992 0.156019
H19   H     H_    0.780376 0.325662 0.379199 0.151493
N1    N     N_R   0.850994 0.497809 0.489779 -0.468518
N2    N     N_R   0.147593 0.498705 0.498541 -0.469060
N3    N     N_R   0.500360 0.500930 0.147930 -0.213606
N4    N     N_R   0.500360 0.500890 0.852020 -0.252427
O1    O     O_R   0.500000 0.319640 0.618810 -0.607283
O2    O     O_2   0.847937 0.323005 0.633977 -0.528614
O3    O     O_2   0.146095 0.320508 0.637404 -0.524788
O4    O     O_2   0.150597 0.677068 0.359950 -0.530395
O5    O     O_R   0.500010 0.319680 0.381230 -0.582725
O6    O     O_R   0.417880 0.499940 0.618820 -0.601777
O7    O     O_R   0.417880 0.499980 0.381240 -0.583298
O8    O     O_R   0.499990 0.680320 0.618770 -0.583383
O9    O     O_R   0.500000 0.680360 0.381190 -0.579998
O10   O     O_R   0.582120 0.500020 0.618760 -0.550726
O11   O     O_R   0.582120 0.500060 0.381180 -0.576663
O12   O     O_2   0.852516 0.672323 0.345131 -0.535824
C45   C     C_2   0.411067 0.369275 0.859902 0.361390
H20   H     H_    0.417915 0.321281 0.762497 0.130109
O13   O     O_2   0.364443 0.358068 0.915791 -0.574158
C46   C     C_2   0.636513 0.659614 0.869177 0.415952
H21   H     H_    0.656759 0.745287 0.836412 0.048267
O14   O     O_2   0.663554 0.564359 0.866023 -0.516657
H22   H     H_    0.549821 0.731561 0.875685 0.141760
H23   H     H_    0.616664 0.660014 0.135074 0.215272
H24   H     H_    0.319774 0.534142 0.722702 0.188301

loop_
_geom_bond_atom_site_label_1
_geom_bond_atom_site_label_2
_ccdc_geom_bond_type
C37   N4    A    
C13   H24   S    
C11   C13   A    
C41   C42   A    
C35   C36   A    
C9    O3    S    
C11   H16   S    
C21   H3    S    
C7    C8    A    
C10   N2    A    
C18   H19   S    
C26   C27   A    
C29   C30   A    
C18   C24   A    
C1    O5    A    
C23   C29   S    
C28   C29   A    
C5    C6    A    
C10   O4    S    
C15   C16   A    
C18   C19   A    
C34   O11   A    
C19   C20   A    
C36   C45   S    
C16   C17   A    
C32   H9    S    
C24   N1    S    
C8    H15   S    
C41   O2    S    
C20   C34   S    
C25   C32   S    
C5    C43   A    
C31   H8    S    
C40   N1    A    
C21   C22   A    
Cu2   O7    S    
C27   H5    S    
C46   O14   D    
C38   C39   S    
C17   N2    S    
C38   C46   S    
Cu1   N4    S    
C22   H4    S    
Cu2   O9    S    
C19   H2    S    
C25   C26   A    
C46   H21   S    
C23   O8    A    
C38   H22   S    
C43   C44   A    
C9    N2    A    
Cu2   N3    S    
C37   C38   S    
C34   O10   A    
C31   C32   S    
C39   H13   S    
Cu1   O10   S    
C33   C39   S    
C31   H7    S    
C41   N1    A    
C12   C14   S    
C45   O13   D    
C12   O7    A    
C1    C26   S    
C22   C24   A    
C42   C43   A    
C3    C4    A    
C7    H14   S    
Cu2   O5    S    
C36   N4    A    
C25   C30   A    
C11   C17   A    
Cu1   O1    S    
C40   O12   S    
C8    C44   A    
C4    C5    A    
C6    C10   A    
C6    C7    A    
C2    H1    S    
C1    O1    A    
Cu1   O6    S    
C35   H11   S    
C2    C3    A    
Cu2   O11   S    
C28   H6    S    
C30   C31   S    
C35   N3    A    
C2    C42   A    
C39   H23   S    
C23   O9    A    
C33   C37   A    
C3    H12   S    
Cu1   Cu2   S    
C40   C44   A    
C20   C21   A    
C45   H20   S    
C12   O6    A    
C27   C28   A    
C15   H17   S    
C14   C15   A    
Cu1   O8    S    
C16   H18   S    
C4    C9    A    
C13   C14   A    
C32   H10   S    
C33   N3    A    
