data_mof_unit_1099.cif
_audit_creation_date              2012-12-11T15:45:03-0500
_audit_creation_method            fapswitch 2.2
_symmetry_space_group_name_H-M    P1
_symmetry_Int_Tables_number       1
_space_group_crystal_system       triclinic
_cell_length_a                    6.946174
_cell_length_b                    16.648698
_cell_length_c                    17.217482
_cell_angle_alpha                 100.429158
_cell_angle_beta                  88.23715
_cell_angle_gamma                 91.259861
_cell_volume                      1957.01744273

loop_
_atom_site_label
_atom_site_type_symbol
_atom_type_description
_atom_site_fract_x
_atom_site_fract_y
_atom_site_fract_z
_atom_type_partial_charge
O1    O     O_R   0.494370 0.415690 0.413450 -0.545438
O2    O     O_R   0.819420 0.429360 0.578420 -0.542721
O3    O     O_R   0.994280 0.584310 0.586550 -0.523964
C1    C     C_R   0.647231 0.413080 0.604315 0.680751
O4    O     O_R   0.823790 0.406230 0.413570 -0.515265
O5    O     O_R   0.998670 0.561000 0.420530 -0.534787
C2    C     C_R   0.656725 0.383916 0.384113 0.729225
O6    O     O_R   0.489970 0.439000 0.579470 -0.539157
O7    O     O_3   0.662300 0.550810 0.502470 -0.372771
V1    V     V_3+5 0.935380 0.490570 0.499540 1.460427
O8    O     O_R   0.328650 0.570640 0.421580 -0.543673
C3    C     C_R   0.164018 0.586772 0.395112 0.738911
O9    O     O_R   0.324290 0.593770 0.586430 -0.558352
C4    C     C_R   0.154621 0.617619 0.614403 0.725881
V2    V     V_3+5 0.435930 0.509430 0.500460 1.400463
O10   O     O_3   0.159140 0.449190 0.497530 -0.365162
C5    C     C_R   0.276608 0.693290 0.743345 -0.254441
H1    H     H_    0.388353 0.648366 0.740318 0.121662
C6    C     C_R   0.267259 0.757145 0.808697 -0.154055
H2    H     H_    0.372547 0.760400 0.854327 0.123138
C7    C     C_R   0.121586 0.815332 0.815824 -0.091190
C8    C     C_R   0.988695 0.809640 0.755257 -0.240541
H3    H     H_    0.882109 0.856670 0.758683 0.121788
C9    C     C_R   0.996910 0.745626 0.688774 0.432384
C10   C     C_R   0.142976 0.686815 0.682724 -0.125372
C11   C     C_R   0.172703 0.639962 0.333940 -0.156568
C12   C     C_R   0.092029 0.860995 0.166831 -0.156757
C13   C     C_R   0.900925 0.806266 0.268387 0.481730
C14   C     C_R   0.922809 0.859207 0.213664 -0.235765
C15   C     C_R   0.241029 0.807941 0.175291 -0.208087
C16   C     C_R   0.218607 0.751517 0.227492 -0.011521
C17   C     C_R   0.046407 0.750110 0.274006 -0.016240
C18   C     C_R   0.023888 0.693399 0.325955 -0.196456
C19   C     C_R   0.342023 0.641989 0.287194 -0.244432
C20   C     C_R   0.364029 0.695352 0.232880 0.487071
H4    H     H_    0.894191 0.692854 0.362488 0.176273
H5    H     H_    0.460289 0.602486 0.293430 0.137599
H6    H     H_    0.804329 0.898524 0.207176 0.140255
H7    H     H_    0.370705 0.808401 0.138736 0.173007
C21   C     C_R   0.627314 0.359410 0.664597 -0.072881
C22   C     C_R   0.636864 0.137844 0.834363 -0.046076
C23   C     C_R   0.760972 0.153170 0.704525 -0.193883
C24   C     C_R   0.741548 0.107738 0.764942 -0.170824
C25   C     C_R   0.559403 0.216432 0.844600 -0.226627
C26   C     C_R   0.584228 0.264100 0.784939 0.133613
C27   C     C_R   0.678231 0.231083 0.712281 0.132685
C28   C     C_R   0.684865 0.276339 0.649280 0.021719
C29   C     C_R   0.541139 0.391569 0.738084 -0.199846
C30   C     C_R   0.515451 0.343990 0.796758 -0.184411
H8    H     H_    0.491334 0.453943 0.749803 0.114557
H9    H     H_    0.842113 0.126392 0.652016 0.126889
H10   H     H_    0.444699 0.370366 0.852197 0.116810
H11   H     H_    0.805790 0.047947 0.756828 0.111950
H12   H     H_    0.483468 0.240893 0.899470 0.100555
C31   C     C_R   0.809499 0.267111 0.286882 0.441636
C32   C     C_R   0.793375 0.204918 0.220445 -0.299369
H13   H     H_    0.917853 0.167444 0.201866 0.196347
C33   C     C_R   0.620690 0.189328 0.179838 -0.226077
C34   C     C_R   0.465126 0.242449 0.202981 0.434783
C35   C     C_R   0.480839 0.305231 0.269176 -0.299369
H14   H     H_    0.357844 0.343954 0.286503 0.195260
C36   C     C_R   0.650239 0.317783 0.312893 -0.221659
O11   O     O_R   0.774880 0.061150 0.920630 -0.541143
O12   O     O_R   0.440980 0.093710 0.086500 -0.513368
O13   O     O_R   0.266190 0.938890 0.079390 -0.538817
C37   C     C_R   0.609378 0.118464 0.113461 0.737302
O14   O     O_R   0.445420 0.070740 0.921670 -0.539007
O15   O     O_R   0.270660 0.915760 0.913380 -0.539851
C38   C     C_R   0.617389 0.087727 0.896675 0.688561
O16   O     O_R   0.770400 0.084270 0.086640 -0.545803
O17   O     O_3   0.602590 0.949210 0.997500 -0.373284
V3    V     V_3+5 0.329470 0.009420 0.000470 1.437747
O18   O     O_R   0.940650 0.906250 0.913470 -0.542772
C39   C     C_R   0.110370 0.883198 0.884956 0.701643
O19   O     O_R   0.936210 0.929220 0.078300 -0.541860
C40   C     C_R   0.100752 0.913501 0.105102 0.726187
V4    V     V_3+5 0.828930 0.990510 0.999490 1.401597
O20   O     O_3   0.105680 0.050790 0.002500 -0.366836
C41   C     C_3   0.729311 0.233596 0.565085 -0.376650
C42   C     C_3   0.572980 0.168878 0.536456 -0.296236
C43   C     C_3   0.616954 0.123221 0.452897 -0.829780
H15   H     H_    0.614633 0.165674 0.410162 0.226378
H16   H     H_    0.759827 0.093953 0.449812 0.223988
H17   H     H_    0.505826 0.074763 0.436057 0.225966
H18   H     H_    0.558309 0.123037 0.575701 0.202710
H19   H     H_    0.432223 0.199525 0.537938 0.194086
H20   H     H_    0.731778 0.277691 0.524221 0.161596
H21   H     H_    0.874366 0.206161 0.560935 0.164791
O21   O     O_3   0.984636 0.278942 0.323874 -0.535341
C44   C     C_3   0.005972 0.216898 0.368966 0.109343
H22   H     H_    0.961815 0.154960 0.337552 0.099838
H23   H     H_    0.919527 0.232312 0.423918 0.125417
C45   C     C_3   0.213670 0.212092 0.391583 -0.713977
H24   H     H_    0.268649 0.273041 0.420274 0.237920
H25   H     H_    0.221239 0.169029 0.433484 0.168806
H26   H     H_    0.303503 0.188010 0.338543 0.227298
O22   O     O_3   0.293462 0.231753 0.163596 -0.536305
C46   C     C_3   0.295633 0.283979 0.107428 0.128623
H27   H     H_    0.410200 0.265776 0.061242 0.087492
H28   H     H_    0.319686 0.348976 0.135818 0.096913
C47   C     C_3   0.102217 0.277766 0.067462 -0.698830
H29   H     H_    0.985906 0.298894 0.111639 0.216689
H30   H     H_    0.104915 0.316666 0.021404 0.157754
H31   H     H_    0.071407 0.213627 0.039222 0.236637
O23   O     O_3   0.880351 0.745387 0.624630 -0.563000
C48   C     C_3   0.682766 0.750581 0.647358 0.107030
H32   H     H_    0.650998 0.748291 0.710789 0.099088
H33   H     H_    0.607078 0.697319 0.612655 0.170442
C49   C     C_3   0.598885 0.827708 0.627038 -0.740195
H34   H     H_    0.624054 0.828708 0.563281 0.227641
H35   H     H_    0.441393 0.828993 0.640365 0.196105
H36   H     H_    0.667361 0.882886 0.662015 0.207591
O24   O     O_3   0.727417 0.802822 0.309372 -0.533512
C50   C     C_3   0.713958 0.871019 0.371113 0.077715
H37   H     H_    0.736755 0.929720 0.349394 0.105203
H38   H     H_    0.821447 0.866676 0.416791 0.120049
C51   C     C_3   0.513077 0.871727 0.409027 -0.698544
H39   H     H_    0.482230 0.812978 0.429288 0.226676
H40   H     H_    0.502605 0.922535 0.460480 0.172176
H41   H     H_    0.404001 0.880271 0.365498 0.221423
O25   O     O_3   0.536428 0.698623 0.191042 -0.533337
C52   C     C_3   0.550268 0.629190 0.130720 0.078304
H42   H     H_    0.426365 0.625295 0.090482 0.102568
H43   H     H_    0.555813 0.572183 0.155782 0.106721
C53   C     C_3   0.735210 0.636060 0.082522 -0.696938
H44   H     H_    0.861648 0.638971 0.120991 0.223640
H45   H     H_    0.748231 0.582033 0.034393 0.165496
H46   H     H_    0.733900 0.692192 0.056132 0.218607

loop_
_geom_bond_atom_site_label_1
_geom_bond_atom_site_label_2
_ccdc_geom_bond_type
C21   C28   A    
C31   C32   A    
C45   H24   S    
C12   C14   A    
C19   H5    S    
O18   C39   A    
C6    H2    S    
C28   C41   S    
C1    O6    A    
C41   H20   S    
C50   H37   S    
V4    O20   S    
C47   H29   S    
O13   C40   A    
C7    C8    A    
C13   C14   A    
C6    C7    A    
O14   V3    S    
C51   H40   S    
O5    C3    A    
C15   C16   A    
C48   H32   S    
O15   C39   A    
V2    O10   S    
C31   C36   A    
C18   H4    S    
C32   H13   S    
C35   C36   A    
C19   C20   A    
C23   C27   A    
C42   H19   S    
O8    V2    S    
C24   H11   S    
O11   C38   A    
C14   H6    S    
C53   H46   S    
V3    O20   S    
O1    V2    S    
O7    V1    S    
C23   H9    S    
C29   H8    S    
C34   C35   A    
C47   H30   S    
O9    C4    A    
C12   C15   A    
C22   C24   A    
C13   C17   A    
C41   H21   S    
C43   H16   S    
C33   C37   S    
O22   C46   S    
C1    C21   S    
C20   O25   S    
C9    C10   A    
C49   H36   S    
O4    C2    A    
C33   C34   A    
C26   C27   A    
C7    C39   S    
C43   H15   S    
C3    C11   S    
C35   H14   S    
O14   C38   A    
O12   C37   A    
O2    C1    A    
O19   C40   A    
C2    C36   S    
C42   H18   S    
C11   C18   A    
C44   H23   S    
C16   C17   A    
C26   C30   A    
O15   V3    S    
C30   H10   S    
C5    H1    S    
O19   V4    S    
O25   C52   S    
O3    C4    A    
C29   C30   A    
C45   H26   S    
O6    V2    S    
C46   H28   S    
O9    V2    S    
C53   H44   S    
C34   O22   S    
C22   C25   A    
C16   C20   A    
C51   H41   S    
C23   C24   A    
C52   H43   S    
C12   C40   S    
O2    V1    S    
O17   V4    S    
C43   H17   S    
C25   C26   A    
C44   C45   S    
C22   C38   S    
O24   C50   S    
O11   V4    S    
C21   C29   A    
C27   C28   A    
C11   C19   A    
O1    C2    A    
C42   C43   S    
O5    V1    S    
C50   H38   S    
O8    C3    A    
C52   H42   S    
C47   H31   S    
O13   V3    S    
O23   C48   S    
C46   C47   S    
C5    C10   A    
C17   C18   A    
C52   C53   S    
C49   H35   S    
O7    V2    S    
O17   V3    S    
C31   O21   S    
O3    V1    S    
V1    O10   S    
C51   H39   S    
C44   H22   S    
C37   O16   A    
C48   H33   S    
C5    C6    A    
C32   C33   A    
C15   H7    S    
C8    C9    A    
O12   V3    S    
C4    C10   S    
C50   C51   S    
C13   O24   S    
C41   C42   S    
C25   H12   S    
O4    V1    S    
C45   H25   S    
C46   H27   S    
C53   H45   S    
O18   V4    S    
C8    H3    S    
C9    O23   S    
O21   C44   S    
C49   H34   S    
O16   V4    S    
C48   C49   S    
