data_mof_unit_2464.cif
_audit_creation_date              2013-03-05T15:43:50-0500
_audit_creation_method            fapswitch 2.2
_symmetry_space_group_name_H-M    P1
_symmetry_Int_Tables_number       1
_space_group_crystal_system       triclinic
_cell_length_a                    13.480607
_cell_length_b                    13.487618
_cell_length_c                    27.498583
_cell_angle_alpha                 90.677141
_cell_angle_beta                  90.027874
_cell_angle_gamma                 60.058102
_cell_volume                      4332.12341233

loop_
_atom_site_label
_atom_site_type_symbol
_atom_site_description
_atom_site_fract_x
_atom_site_fract_y
_atom_site_fract_z
_atom_type_partial_charge
O1    O     O_R   0.301710 0.195650 0.554160 -0.498135
O2    O     O_R   0.522390 0.158990 0.550460 -0.495056
C1    C     C_R   0.620198 0.101500 0.570192 0.546215
O3    O     O_R   0.694390 0.003530 0.554040 -0.500484
O4    O     O_R   0.657700 0.819660 0.549320 -0.487112
C2    C     C_R   0.599444 0.779819 0.568809 0.546876
O5    O     O_R   0.501930 0.803280 0.552920 -0.509210
O6    O     O_R   0.318170 0.023580 0.549580 -0.496254
C3    C     C_R   0.278141 0.121649 0.569876 0.548513
O7    O     O_R   0.303010 0.193990 0.446760 -0.522322
O8    O     O_R   0.523600 0.157450 0.450900 -0.503162
C4    C     C_R   0.622148 0.099314 0.431105 0.545752
O9    O     O_R   0.695690 0.001860 0.446640 -0.521383
O10   O     O_R   0.658900 0.818120 0.449760 -0.500835
C5    C     C_R   0.600931 0.777463 0.429718 0.545367
O11   O     O_R   0.503220 0.801620 0.445520 -0.522056
O12   O     O_R   0.319370 0.022040 0.450020 -0.499821
C6    C     C_R   0.280753 0.119813 0.430160 0.548060
Cr1   Cr    Cr6+3 0.417550 0.169090 0.500530 1.030365
Cr2   Cr    Cr6+3 0.669180 0.913420 0.499920 1.035876
Cr3   Cr    Cr6+3 0.413260 0.917540 0.499520 1.026930
O13   O     O_3   0.499990 0.000010 0.499990 -0.250548
C7    C     C_3   0.775725 0.616709 0.737771 0.135239
C8    C     C_3   0.734690 0.712375 0.776967 0.135801
H1    H     H_    0.578953 0.875696 0.741707 0.112725
C9    C     C_1   0.697672 0.607375 0.900101 0.009216
C10   C     C_1   0.629981 0.733854 0.616618 0.007066
C11   C     C_3   0.722258 0.557427 0.767023 -0.115238
C12   C     C_3   0.680571 0.654175 0.805570 0.038233
C13   C     C_3   0.607904 0.627676 0.739532 -0.131960
C14   C     C_3   0.662063 0.686127 0.710971 0.039120
C15   C     C_3   0.566603 0.723894 0.778735 -0.133572
C16   C     C_3   0.620636 0.782843 0.749477 -0.115668
C17   C     C_1   0.689219 0.632963 0.857897 -0.018384
C18   C     C_1   0.647717 0.707618 0.658719 -0.018133
H2    H     H_    0.480538 0.768237 0.796092 0.120692
H3    H     H_    0.555888 0.592647 0.723589 0.119878
H4    H     H_    0.764343 0.464547 0.774780 0.110252
C19   C     C_3   0.074201 0.169475 0.738213 -0.097838
C20   C     C_3   0.148379 0.073843 0.774577 -0.106212
H5    H     H_    0.132202 0.004939 0.786726 0.119819
H6    H     H_    0.996609 0.179904 0.719497 0.113728
H7    H     H_    0.332972 0.971072 0.738115 0.108416
C21   C     C_1   0.099453 0.199499 0.902331 -0.003892
C22   C     C_1   0.231698 0.136965 0.618131 -0.001868
C23   C     C_3   0.078541 0.259231 0.772407 -0.079595
C24   C     C_3   0.153100 0.163590 0.807953 0.043636
C25   C     C_3   0.188514 0.240828 0.746552 -0.079710
C26   C     C_3   0.183852 0.151224 0.713057 0.053932
C27   C     C_3   0.262739 0.145326 0.782799 -0.109849
C28   C     C_3   0.258618 0.055302 0.748550 -0.108100
C29   C     C_1   0.129084 0.178412 0.860340 -0.047707
C30   C     C_1   0.205232 0.144806 0.660486 -0.038217
H8    H     H_    0.340274 0.135111 0.801495 0.109006
H9    H     H_    0.204797 0.309758 0.734537 0.142459
H10   H     H_    0.004136 0.343014 0.783235 0.141848
C31   C     C_3   0.679296 0.254466 0.738320 -0.109714
C32   C     C_3   0.579897 0.286377 0.774882 -0.102490
H11   H     H_    0.516750 0.374332 0.787410 0.117069
H12   H     H_    0.698225 0.315981 0.719826 0.109543
H13   H     H_    0.463296 0.220507 0.738308 0.109882
C33   C     C_1   0.691664 0.208484 0.902741 -0.000960
C34   C     C_1   0.635369 0.134420 0.618193 -0.007320
C35   C     C_3   0.762068 0.156949 0.772089 -0.097285
C36   C     C_3   0.662550 0.188502 0.807833 0.052565
C37   C     C_3   0.732765 0.072661 0.745911 -0.080626
C38   C     C_3   0.650193 0.170287 0.712891 0.044419
C39   C     C_3   0.633437 0.104431 0.782347 -0.089474
C40   C     C_3   0.550580 0.201930 0.748575 -0.106522
C41   C     C_1   0.674606 0.198276 0.860416 -0.040229
C42   C     C_1   0.643438 0.154400 0.660401 -0.049538
H14   H     H_    0.613941 0.043333 0.800833 0.133111
H15   H     H_    0.796067 0.984901 0.733245 0.151850
H16   H     H_    0.849433 0.138207 0.782313 0.112048
C43   C     C_R   0.731199 0.710338 0.357601 -0.130408
C44   C     C_R   0.742567 0.695028 0.307072 -0.022149
C45   C     C_R   0.761032 0.671602 0.205323 -0.009690
C46   C     C_R   0.851955 0.667928 0.232852 0.217201
C47   C     C_R   0.841051 0.680003 0.283560 -0.119624
C48   C     C_R   0.773970 0.642300 0.155936 -0.131356
H17   H     H_    0.857663 0.604377 0.139041 0.196445
H18   H     H_    0.797181 0.714788 0.378466 0.120087
H19   H     H_    0.909494 0.678674 0.304771 0.137270
C49   C     C_R   0.682307 0.649086 0.129320 -0.024292
C50   C     C_R   0.546084 0.721497 0.353544 -0.121593
C51   C     C_R   0.553446 0.713033 0.303256 -0.002690
C52   C     C_R   0.651540 0.700361 0.279620 0.049462
C53   C     C_R   0.461936 0.720799 0.276561 -0.117825
C54   C     C_R   0.465026 0.717690 0.226029 0.100790
C55   C     C_R   0.563141 0.705389 0.201286 0.026116
C56   C     C_R   0.658288 0.693204 0.228712 -0.027079
C57   C     C_R   0.572313 0.700311 0.150354 0.165850
C58   C     C_R   0.631100 0.727577 0.380712 0.003988
H20   H     H_    0.387242 0.729075 0.295193 0.126132
H21   H     H_    0.468534 0.733769 0.370998 0.132059
C59   C     C_R   0.206937 0.063764 0.357513 -0.136521
C60   C     C_R   0.184202 0.073984 0.307559 0.012897
C61   C     C_R   0.140108 0.096375 0.207299 0.016400
C62   C     C_R   0.130273 0.013232 0.233693 -0.104049
C63   C     C_R   0.153870 0.000926 0.283427 -0.121868
C64   C     C_R   0.110121 0.114184 0.158372 -0.114791
H22   H     H_    0.077742 0.063647 0.140868 0.145730
H23   H     H_    0.205885 0.995812 0.377765 0.117886
H24   H     H_    0.102887 0.958815 0.215993 0.150796
H25   H     H_    0.146419 0.935816 0.303128 0.119311
C65   C     C_R   0.111482 0.204067 0.133487 -0.004972
C66   C     C_R   0.236873 0.227224 0.354444 -0.122952
C67   C     C_R   0.220400 0.234693 0.304771 0.003263
C68   C     C_R   0.193356 0.158382 0.281065 0.062395
C69   C     C_R   0.233003 0.316098 0.278444 -0.109532
C70   C     C_R   0.216251 0.323771 0.228497 -0.092822
C71   C     C_R   0.184130 0.251950 0.204751 0.006714
C72   C     C_R   0.173907 0.167867 0.230913 0.059850
C73   C     C_R   0.154895 0.267929 0.155924 -0.123165
C74   C     C_R   0.234401 0.139782 0.380915 0.000095
H26   H     H_    0.157419 0.336218 0.136533 0.149994
H27   H     H_    0.225211 0.387882 0.208689 0.166144
H28   H     H_    0.255364 0.374035 0.296518 0.124803
H29   H     H_    0.258971 0.286161 0.371824 0.136355
C75   C     C_R   0.562766 0.236187 0.362384 -0.135912
C76   C     C_R   0.568289 0.253684 0.312633 0.012189
C77   C     C_R   0.578736 0.283879 0.212079 0.010307
C78   C     C_R   0.495429 0.372621 0.241133 -0.125437
C79   C     C_R   0.489538 0.357271 0.291044 -0.135423
C80   C     C_R   0.591335 0.300428 0.162767 -0.131152
H30   H     H_    0.538929 0.384080 0.147001 0.150942
H31   H     H_    0.494432 0.301868 0.384474 0.118895
H32   H     H_    0.435368 0.453885 0.225324 0.158061
H33   H     H_    0.424160 0.426634 0.312799 0.114686
C81   C     C_R   0.678634 0.211353 0.135119 -0.007449
C82   C     C_R   0.730258 0.046274 0.354392 -0.127621
C83   C     C_R   0.733891 0.060447 0.304784 0.006111
C84   C     C_R   0.652437 0.164208 0.283619 0.065788
C85   C     C_R   0.815671 0.970686 0.275878 -0.127825
C86   C     C_R   0.817036 0.983616 0.225938 -0.119097
C87   C     C_R   0.738060 0.087036 0.204644 0.003279
C88   C     C_R   0.655620 0.178171 0.233372 0.064048
C89   C     C_R   0.745323 0.102843 0.155443 -0.121550
C90   C     C_R   0.642095 0.131313 0.383044 -0.001144
H34   H     H_    0.811021 0.032820 0.133978 0.151844
H35   H     H_    0.881908 0.914119 0.204150 0.181337
H36   H     H_    0.878233 0.890494 0.291862 0.125747
H37   H     H_    0.791637 0.964826 0.369897 0.132253
O14   O     O_R   0.818720 0.150820 0.967160 -0.497010
O15   O     O_R   0.006410 0.181720 0.970200 -0.493353
C91   C     C_R   0.049692 0.235931 0.949877 0.546126
O16   O     O_R   0.027890 0.334070 0.964920 -0.498819
O17   O     O_R   0.809600 0.521790 0.967960 -0.487909
C92   C     C_R   0.711659 0.562882 0.948179 0.546216
O18   O     O_R   0.635520 0.542770 0.964420 -0.505144
O19   O     O_R   0.665950 0.325030 0.970100 -0.497217
C93   C     C_R   0.722261 0.225558 0.950830 0.545596
O20   O     O_R   0.816620 0.158530 0.074540 -0.517491
O21   O     O_R   0.004460 0.188870 0.069750 -0.501336
C94   C     C_R   0.049011 0.244296 0.088021 0.546845
O22   O     O_R   0.025800 0.341780 0.072300 -0.511408
O23   O     O_R   0.807650 0.528950 0.067500 -0.506973
C95   C     C_R   0.706871 0.577720 0.085431 0.553281
O24   O     O_R   0.633420 0.550490 0.071810 -0.476938
O25   O     O_R   0.664000 0.332180 0.069640 -0.496571
C96   C     C_R   0.718196 0.233860 0.089251 0.545730
Cr4   Cr    Cr6+3 0.909170 0.177380 0.020380 1.047830
Cr5   Cr    Cr6+3 0.912710 0.429210 0.018220 1.057061
Cr6   Cr    Cr6+3 0.657170 0.432570 0.019030 1.060189
O26   O     O_3   0.826350 0.346390 0.019210 -0.260348
I1    I     I_    0.834604 0.779042 0.808528 -0.393563
I2    I     I_    0.939129 0.533356 0.702384 -0.403310
N1    N     N_R   0.954267 0.654904 0.210227 0.060507
O27   O     O_R   0.948286 0.707103 0.169905 -0.364066
O28   O     O_R   0.050531 0.606915 0.233791 -0.366436
N2    N     N_R   0.471417 0.747539 0.120717 -0.199102
O29   O     O_R   0.469537 0.788148 0.077818 -0.000006
O30   O     O_R   0.469538 0.788149 0.077817 -0.000006
I3    I     I_    0.323772 0.712589 0.193513 -0.374932

loop_
_geom_bond_atom_site_label_1
_geom_bond_atom_site_label_2
_geom_bond_distance
_ccdc_geom_bond_type
C20   C24   1.536966 S    
C37   C39   1.548823 S    
N2    O29   1.301403 A    
C65   C94   1.457961 S    
C3    C22   1.435507 S    
C64   H22   1.084377 S    
C52   C56   1.401969 A    
C25   H9    1.110283 S    
C70   C71   1.398489 A    
C44   C47   1.396729 A    
C48   C49   1.399556 A    
C69   H28   1.083659 S    
C71   C73   1.387839 A    
O15   C91   1.274043 A    
C55   C56   1.425656 A    
C75   H31   1.084225 S    
C78   C79   1.398619 A    
O4    Cr2   1.924750 S    
C45   C46   1.420266 A    
C84   C88   1.400266 A    
N2    O30   1.301434 A    
O8    Cr1   1.924524 S    
C63   H25   1.083581 S    
C27   H8    1.110490 S    
C33   C93   1.434883 S    
C65   C73   1.398339 A    
O25   Cr6   1.923187 S    
C11   C12   1.542065 S    
Cr5   O26   1.975542 S    
C12   C15   1.536976 S    
O4    C2    1.273257 A    
C51   C53   1.394122 A    
O15   Cr4   1.925121 S    
C57   N2    1.437436 S    
C5    O11   1.264440 A    
C67   C68   1.405597 A    
C33   C41   1.205825 T    
C8    C12   1.534254 S    
C76   C79   1.403502 A    
C69   C70   1.388483 A    
N1    O27   1.301283 A    
C50   C58   1.403514 A    
C80   C81   1.405094 A    
C9    C17   1.203765 T    
O23   C95   1.273746 A    
C45   C56   1.417918 A    
C62   C63   1.396901 A    
O22   Cr5   2.042281 S    
O6    C3    1.273805 A    
C26   C28   1.539317 S    
C21   C91   1.434388 S    
C66   C67   1.380527 A    
C14   C16   1.541246 S    
C59   C74   1.401975 A    
C19   H6    1.110435 S    
O23   Cr5   1.925821 S    
C68   C72   1.399076 A    
C21   C29   1.205428 T    
C25   C27   1.548102 S    
C62   H24   1.083385 S    
C22   C30   1.206172 T    
Cr3   O13   1.975412 S    
C54   I3    2.134908 S    
C31   C38   1.535423 S    
C66   H29   1.084583 S    
C71   C72   1.413517 A    
C27   C28   1.550683 S    
C24   C27   1.535306 S    
C23   C25   1.547396 S    
C53   H20   1.084346 S    
O1    Cr1   2.042819 S    
O10   Cr2   1.926046 S    
C86   C87   1.399398 A    
Cr1   O13   1.976156 S    
O1    C3    1.269178 A    
O17   C92   1.273650 A    
C87   C89   1.383239 A    
C19   C20   1.550966 S    
C32   C40   1.551259 S    
C49   C95   1.465421 S    
C46   C47   1.401218 A    
C83   C84   1.409832 A    
C61   C72   1.408020 A    
C10   C18   1.203171 T    
C32   H11   1.110492 S    
C50   C51   1.385732 A    
C37   H15   1.110319 S    
C12   C17   1.463619 S    
O12   Cr3   1.924637 S    
C1    O3    1.269224 A    
C13   H3    1.110239 S    
O20   C96   1.265501 A    
C39   H14   1.110316 S    
C38   C40   1.538675 S    
C7    C14   1.533176 S    
C95   O24   1.270830 A    
C8    I1    2.136655 S    
C43   C44   1.399502 A    
C31   C32   1.551425 S    
C85   H36   1.083786 S    
Cr4   O26   1.976103 S    
C60   C68   1.414808 A    
C32   C36   1.537582 S    
C55   C57   1.403921 A    
C2    C10   1.430439 S    
O10   C5    1.278799 A    
C11   H4    1.110595 S    
O7    Cr1   2.043295 S    
O19   C93   1.274353 A    
C36   C39   1.534964 S    
C59   C60   1.400651 A    
H1    C16   1.110651 S    
O12   C6    1.280522 A    
C4    C90   1.461128 S    
C43   H18   1.084411 S    
C75   C90   1.405553 A    
C7    C11   1.548204 S    
C4    O9    1.266922 A    
C44   C52   1.411751 A    
C66   C74   1.407643 A    
O21   C94   1.269248 A    
C24   C29   1.465962 S    
C89   H34   1.084954 S    
C19   C23   1.548172 S    
C7    I2    2.137100 S    
C81   C96   1.462450 S    
C25   C26   1.537007 S    
C19   C26   1.535530 S    
C34   C42   1.205540 T    
C61   C62   1.403441 A    
C80   H30   1.084270 S    
C14   C18   1.462731 S    
C82   C83   1.383992 A    
C81   C89   1.402835 A    
C15   H2    1.110270 S    
C60   C63   1.401790 A    
C82   H37   1.084695 S    
C75   C76   1.399352 A    
C43   C58   1.401052 A    
C31   C35   1.549230 S    
C91   O16   1.268233 A    
C45   C48   1.396344 A    
H13   C40   1.110863 S    
C64   C65   1.407163 A    
C23   C24   1.537623 S    
Cr6   O26   1.976439 S    
O9    Cr2   2.040723 S    
O14   Cr4   2.044193 S    
O2    Cr1   1.926520 S    
C51   C52   1.404610 A    
O17   Cr5   1.925547 S    
O21   Cr4   1.925948 S    
C9    C92   1.431496 S    
C77   C88   1.412036 A    
Cr2   O13   1.976581 S    
C48   H17   1.081287 S    
C31   H12   1.110670 S    
O6    Cr3   1.925812 S    
C6    C74   1.461700 S    
C5    C58   1.462897 S    
C73   H26   1.084781 S    
O8    C4    1.275450 A    
O11   Cr3   2.043114 S    
C2    O5    1.267502 A    
O3    Cr2   2.043646 S    
C1    C34   1.434512 S    
C20   C28   1.552114 S    
O18   Cr6   2.041757 S    
C85   C86   1.387631 A    
C46   N1    1.441040 S    
C8    C16   1.547838 S    
C61   C64   1.393373 A    
O20   Cr4   2.041252 S    
C70   H27   1.083719 S    
C35   C36   1.538991 S    
C77   C80   1.400950 A    
C11   C13   1.550284 S    
O2    C1    1.273897 A    
C77   C78   1.403055 A    
O14   C93   1.268979 A    
O16   Cr5   2.043167 S    
C92   O18   1.267988 A    
C15   C16   1.550426 S    
C13   C15   1.550010 S    
C50   H21   1.084684 S    
H7    C28   1.110636 S    
C78   H32   1.082089 S    
C13   C14   1.536607 S    
O7    C6    1.260179 A    
C26   C30   1.467271 S    
O5    Cr3   2.042780 S    
N1    O28   1.301333 A    
C67   C69   1.401288 A    
C79   H33   1.083540 S    
C37   C38   1.536697 S    
C38   C42   1.466174 S    
C39   C40   1.549496 S    
O25   C96   1.277698 A    
C82   C90   1.402722 A    
C7    C8    1.545250 S    
C47   H19   1.083997 S    
C86   H35   1.082282 S    
C53   C54   1.389702 A    
C83   C85   1.399520 A    
O19   Cr6   1.926366 S    
C59   H23   1.084150 S    
C23   H10   1.110208 S    
C94   O22   1.271287 A    
C35   H16   1.110933 S    
O24   Cr6   2.043557 S    
C87   C88   1.408650 A    
C20   H5    1.110216 S    
C49   C57   1.406868 A    
C76   C84   1.411131 A    
C54   C55   1.420932 A    
C36   C41   1.466703 S    
C35   C37   1.547678 S    
