data_mof_unit_1615.cif
_audit_creation_date              2012-12-10T18:05:11-0500
_audit_creation_method            fapswitch 2.2
_symmetry_space_group_name_H-M    P1
_symmetry_Int_Tables_number       1
_space_group_crystal_system       triclinic
_cell_length_a                    9.658301
_cell_length_b                    10.822281
_cell_length_c                    16.956308
_cell_angle_alpha                 86.77788
_cell_angle_beta                  95.914753
_cell_angle_gamma                 89.978844
_cell_volume                      1760.09923979

loop_
_atom_site_label
_atom_site_type_symbol
_atom_type_description
_atom_site_fract_x
_atom_site_fract_y
_atom_site_fract_z
_atom_type_partial_charge
C1    C     C_R   0.500060 0.262476 0.500366 0.764106
C2    C     C_R   0.500086 0.737497 0.500143 0.771549
C3    C     C_R   0.376400 0.935445 0.507829 -0.186243
C4    C     C_R   0.624302 0.064462 0.493999 -0.193050
C5    C     C_R   0.500205 0.871550 0.500511 -0.021571
C6    C     C_R   0.500238 0.128381 0.500718 -0.009982
C7    C     C_R   0.085126 0.434078 0.557884 0.447825
C8    C     C_R   0.912936 0.576132 0.448080 0.461885
C9    C     C_R   0.937655 0.431331 0.557194 0.064428
C10   C     C_R   0.059414 0.566175 0.441383 0.015385
C11   C     C_R   0.519239 0.498391 0.650888 0.805407
C12   C     C_R   0.480690 0.503759 0.348892 0.818354
C13   C     C_R   0.532353 0.494757 0.737571 -0.108326
C14   C     C_R   0.468095 0.512640 0.261820 -0.071342
C15   C     C_R   0.444198 0.418168 0.778955 -0.206101
C16   C     C_R   0.574838 0.568944 0.222842 -0.324188
C17   C     C_R   0.455595 0.411550 0.861745 0.405048
C18   C     C_R   0.569071 0.574535 0.139717 0.429330
C19   C     C_R   0.552812 0.488921 0.903677 0.260537
C20   C     C_R   0.455200 0.519913 0.095465 0.346829
C21   C     C_R   0.642326 0.563279 0.861963 -0.201248
C22   C     C_R   0.346010 0.469037 0.134592 -0.266131
C23   C     C_R   0.631809 0.566881 0.779341 -0.237618
C24   C     C_R   0.352494 0.464587 0.217212 -0.235556
C25   C     C_R   0.376329 0.063291 0.507748 -0.178715
C26   C     C_R   0.624233 0.936617 0.493751 -0.170054
Cu1   Cu    Cu3+1 0.640660 0.500020 0.500000 0.966221
Cu2   Cu    Cu3+1 0.359340 0.499980 0.500000 0.938294
H1    H     H_    0.662601 0.609232 0.257129 0.185122
H2    H     H_    0.369091 0.360096 0.746905 0.195973
H3    H     H_    0.717821 0.621340 0.893678 0.183011
H4    H     H_    0.257653 0.428766 0.100856 0.174191
H5    H     H_    0.698977 0.628020 0.748020 0.158235
H6    H     H_    0.269572 0.419834 0.246096 0.157707
H7    H     H_    0.279456 0.110808 0.513493 0.148472
H8    H     H_    0.721109 0.889086 0.488030 0.162138
H9    H     H_    0.279738 0.886961 0.514000 0.147736
H10   H     H_    0.721251 0.112958 0.488549 0.149091
N1    N     N_2   0.562032 0.495517 0.987039 -0.190660
N2    N     N_2   0.447010 0.513921 0.011798 -0.223923
N3    N     N_R   0.852070 0.500030 0.499980 -0.214222
N4    N     N_R   0.147930 0.499970 0.500020 -0.227384
O1    O     O_R   0.618740 0.319660 0.500000 -0.607683
O2    O     O_R   0.381260 0.680340 0.500000 -0.593679
O3    O     O_R   0.381170 0.319630 0.500010 -0.612939
O4    O     O_R   0.618830 0.680370 0.499990 -0.536119
O5    O     O_R   0.631780 0.498870 0.613920 -0.596121
O6    O     O_R   0.368220 0.501130 0.386080 -0.599705
O7    O     O_R   0.394210 0.498840 0.613930 -0.551182
O8    O     O_R   0.605790 0.501160 0.386070 -0.519316
O9    O     O_3   0.671511 0.633702 0.100876 -0.712764
H11   H     H_    0.742632 0.666476 0.140629 0.316574
O10   O     O_3   0.372637 0.327508 0.898836 -0.721648
H12   H     H_    0.413943 0.309356 0.954152 0.338378
O11   O     O_3   0.162068 0.365723 0.617865 -0.765112
H13   H     H_    0.240268 0.327476 0.595879 0.360737
O12   O     O_3   0.828191 0.658664 0.400448 -0.718332
H14   H     H_    0.883633 0.732791 0.387691 0.297747
C27   C     C_3   0.881625 0.346279 0.620931 -0.307441
C28   C     C_3   0.907836 0.397413 0.704035 -0.315420
C29   C     C_3   0.846737 0.312364 0.766370 -0.817789
H15   H     H_    0.733647 0.298787 0.750254 0.249009
H16   H     H_    0.899999 0.220863 0.771381 0.259632
H17   H     H_    0.861697 0.354062 0.824979 0.256912
H18   H     H_    0.020669 0.406910 0.722423 0.267974
H19   H     H_    0.861177 0.490969 0.703343 0.222845
H20   H     H_    0.771172 0.326742 0.608870 0.235471
H21   H     H_    0.932586 0.253983 0.621535 0.184564
C30   C     C_3   0.100824 0.607648 0.359553 -0.332819
C31   C     C_3   0.175056 0.733298 0.355707 -0.307346
C32   C     C_3   0.146208 0.800528 0.274003 -0.882962
H22   H     H_    0.179470 0.742182 0.227389 0.270359
H23   H     H_    0.033525 0.822542 0.261045 0.254495
H24   H     H_    0.205327 0.888494 0.272783 0.253817
H25   H     H_    0.140550 0.793528 0.400988 0.202365
H26   H     H_    0.288811 0.719951 0.366260 0.250176
H27   H     H_    0.153161 0.533377 0.332611 0.202916
H28   H     H_    0.006135 0.614305 0.316250 0.183850

loop_
_geom_bond_atom_site_label_1
_geom_bond_atom_site_label_2
_ccdc_geom_bond_type
O11   H13   S    
C10   N4    A    
C11   O5    A    
C7    O11   S    
C12   O6    A    
O10   H12   S    
C2    O4    A    
C21   H3    S    
C22   H4    S    
C19   C21   A    
C20   N2    S    
C6    C25   A    
C26   H8    S    
C13   C23   A    
C15   C17   A    
C7    N4    A    
C14   C24   A    
C29   H16   S    
C27   H20   S    
C30   H27   S    
C1    O1    A    
C2    O2    A    
C23   H5    S    
C31   C32   S    
C14   C16   A    
Cu1   O8    S    
C28   H19   S    
C27   C28   S    
C30   H28   S    
C29   H15   S    
C18   O9    S    
Cu2   O3    S    
O9    H11   S    
C3    C25   A    
C8    N3    A    
C4    C6    A    
N1    N2    D    
C32   H23   S    
C16   H1    S    
Cu2   O2    S    
C24   H6    S    
C1    C6    S    
C28   C29   S    
C9    C27   S    
C29   H17   S    
C11   O7    A    
C27   H21   S    
Cu2   O7    S    
Cu1   N3    S    
C4    C26   A    
C19   N1    S    
C25   H7    S    
Cu1   O4    S    
C16   C18   A    
C12   C14   S    
C28   H18   S    
C13   C15   A    
C31   H26   S    
C22   C24   A    
C2    C5    S    
C17   O10   S    
Cu1   Cu2   S    
C15   H2    S    
Cu1   O5    S    
C7    C9    A    
Cu2   O6    S    
C20   C22   A    
C3    C5    A    
C32   H24   S    
C12   O8    A    
C9    N3    A    
C21   C23   A    
C32   H22   S    
C11   C13   S    
C1    O3    A    
O12   H14   S    
Cu2   N4    S    
C17   C19   A    
C18   C20   A    
C30   C31   S    
C5    C26   A    
C10   C30   S    
Cu1   O1    S    
C3    H9    S    
C8    C10   A    
C31   H25   S    
C4    H10   S    
C8    O12   S    
