data_mof_unit_137.cif
_audit_creation_date              2012-12-10T16:37:39-0500
_audit_creation_method            fapswitch 2.2
_symmetry_space_group_name_H-M    P1
_symmetry_Int_Tables_number       1
_space_group_crystal_system       triclinic
_cell_length_a                    10.852053
_cell_length_b                    10.833609
_cell_length_c                    15.544826
_cell_angle_alpha                 96.498132
_cell_angle_beta                  75.047629
_cell_angle_gamma                 98.317322
_cell_volume                      1741.59831218

loop_
_atom_site_label
_atom_site_type_symbol
_atom_type_description
_atom_site_fract_x
_atom_site_fract_y
_atom_site_fract_z
_atom_type_partial_charge
C1    C     C_R   0.158921 0.478413 0.520014 0.535391
C2    C     C_R   0.523687 0.501451 0.120395 -0.119276
C3    C     C_R   0.639021 0.324438 0.116330 0.070185
C4    C     C_R   0.842129 0.521569 0.480744 0.513276
C5    C     C_R   0.439183 0.594329 0.838490 -0.044901
C6    C     C_2   0.979723 0.528929 0.474210 0.234461
C7    C     C_2   0.022518 0.466734 0.529260 0.256510
C8    C     C_2   0.532570 0.966440 0.472583 -0.097262
C9    C     C_2   0.452889 0.036521 0.532606 0.252895
C10   C     C_R   0.469733 0.168063 0.519982 0.482361
C11   C     C_R   0.528707 0.833604 0.480724 0.511152
C12   C     C_R   0.315388 0.688728 0.977953 0.281122
C13   C     C_R   0.555531 0.444068 0.259227 0.523994
C14   C     C_R   0.451272 0.559253 0.741446 0.525624
C15   C     C_R   0.661432 0.310198 0.023856 -0.105780
C16   C     C_R   0.574341 0.423028 0.163656 0.041758
C17   C     C_R   0.345183 0.671365 0.884927 0.080629
C18   C     C_3   0.969278 0.284776 0.604487 0.019045
C19   C     C_3   0.920223 0.191914 0.535065 -0.262569
C20   C     C_3   0.949938 0.059862 0.540031 -0.503568
C21   C     C_3   0.270054 0.054268 0.652465 0.011764
C22   C     C_3   0.294833 0.139249 0.733551 -0.275706
C23   C     C_R   0.369997 0.620480 0.026184 0.108074
C24   C     C_3   0.184880 0.217717 0.774152 -0.469997
C25   C     C_3   0.657914 0.221036 0.784504 0.028236
C26   C     C_3   0.691424 0.088118 0.781081 -0.301410
C27   C     C_3   0.623426 0.997745 0.720402 -0.458132
C28   C     C_3   0.265994 0.888638 0.020449 0.017167
C29   C     C_3   0.327630 0.933890 0.098594 -0.277782
C30   C     C_3   0.371900 0.074250 0.099750 -0.471566
C31   C     C_3   0.765744 0.647378 0.784216 0.024278
C32   C     C_3   0.872885 0.684445 0.703053 -0.228438
C33   C     C_3   0.938867 0.816238 0.717945 -0.505739
C34   C     C_R   0.472641 0.550471 0.982158 -0.077364
C35   C     C_3   0.084940 0.716851 0.427169 0.001873
C36   C     C_3   0.205211 0.773754 0.361870 -0.242929
C37   C     C_3   0.229810 0.915145 0.381114 -0.480245
C38   C     C_R   0.512556 0.544789 0.887349 -0.108202
C39   C     C_R   0.535140 0.482140 0.028074 -0.024695
C40   C     C_R   0.614856 0.391794 0.978958 -0.016663
C41   C     C_R   0.653729 0.390439 0.886036 0.283041
C42   C     C_R   0.623171 0.485351 0.844629 0.291034
F1    F     F_    0.685757 0.246340 0.159191 -0.182404
F2    F     F_    0.277018 0.726401 0.841083 -0.155179
F3    F     F_    0.314745 0.618684 0.114921 -0.170626
H1    H     H_    0.600297 0.007619 0.415509 0.058249
H2    H     H_    0.900987 0.025442 0.606215 0.140343
H3    H     H_    0.187282 0.983626 0.676903 0.149179
H4    H     H_    0.239365 0.106763 0.605529 0.110133
H5    H     H_    0.305324 0.080674 0.784909 0.155204
H6    H     H_    0.385178 0.203052 0.714166 0.186921
H7    H     H_    0.177232 0.281903 0.725396 0.144385
H8    H     H_    0.203674 0.274840 0.834430 0.159809
H9    H     H_    0.092545 0.156341 0.793770 0.150755
H10   H     H_    0.682808 0.252508 0.715814 0.202844
H11   H     H_    0.551410 0.217596 0.811303 0.101454
H12   H     H_    0.718459 0.237965 0.987578 0.159949
H13   H     H_    0.796830 0.087927 0.756503 0.156034
H14   H     H_    0.662127 0.055739 0.849596 0.157224
H15   H     H_    0.650099 0.028712 0.651602 0.167997
H16   H     H_    0.651617 0.902639 0.717650 0.137369
H17   H     H_    0.517691 0.992586 0.746809 0.184194
H18   H     H_    0.182751 0.940938 0.027119 0.160706
H19   H     H_    0.334691 0.912056 0.955780 0.117636
H20   H     H_    0.256860 0.913306 0.162586 0.181336
H21   H     H_    0.411996 0.883569 0.092830 0.161406
H22   H     H_    0.444354 0.096552 0.036850 0.147316
H23   H     H_    0.480817 0.579677 0.159996 0.136335
H24   H     H_    0.416170 0.103999 0.156856 0.173944
H25   H     H_    0.288992 0.127347 0.107362 0.160661
H26   H     H_    0.808163 0.653477 0.843002 0.135955
H27   H     H_    0.693547 0.714808 0.796895 0.109592
H28   H     H_    0.946020 0.618500 0.689773 0.222886
H29   H     H_    0.832091 0.679818 0.644017 0.158559
H30   H     H_    0.867623 0.884301 0.736768 0.135095
H31   H     H_    0.009159 0.842295 0.655126 0.133897
H32   H     H_    0.990341 0.820402 0.771586 0.169060
H33   H     H_    0.099212 0.737567 0.496180 0.123720
H34   H     H_    0.920326 0.254890 0.671946 0.179045
H35   H     H_    0.000561 0.760756 0.422452 0.153666
H36   H     H_    0.289721 0.730723 0.367201 0.169485
H37   H     H_    0.193885 0.752992 0.292443 0.196940
H38   H     H_    0.149521 0.960760 0.371576 0.151237
H39   H     H_    0.320072 0.952404 0.334481 0.155501
H40   H     H_    0.239838 0.938128 0.450600 0.162218
H41   H     H_    0.073052 0.281388 0.598390 0.113378
H42   H     H_    0.814666 0.191150 0.546733 0.181835
H43   H     H_    0.966604 0.221472 0.466868 0.171122
H44   H     H_    0.054983 0.058954 0.528872 0.144094
H45   H     H_    0.915717 0.995541 0.487897 0.150712
O1    O     O_3   0.500000 0.500000 0.500000 -0.453535
O2    O     O_R   0.463530 0.379110 0.309170 -0.531786
O3    O     O_R   0.388210 0.611730 0.699360 -0.519769
O4    O     O_R   0.624720 0.532760 0.292120 -0.531609
O5    O     O_R   0.523540 0.476390 0.699360 -0.506446
O6    O     O_3   0.938944 0.406623 0.600521 -0.567246
O7    O     O_3   0.377208 0.988828 0.611939 -0.556692
O8    O     O_3   0.729855 0.302563 0.836715 -0.565955
O9    O     O_3   0.218838 0.759779 0.023146 -0.536206
O10   O     O_3   0.708673 0.524167 0.766884 -0.494192
O11   O     O_3   0.066388 0.586858 0.403921 -0.579777
O12   O     O_R   0.537910 0.240570 0.564270 -0.571722
O13   O     O_R   0.438950 0.782540 0.540270 -0.481741
O14   O     O_R   0.222350 0.398740 0.468260 -0.548330
O15   O     O_R   0.800790 0.578160 0.427210 -0.532114
O16   O     O_R   0.212140 0.566330 0.564260 -0.556902
O17   O     O_R   0.764730 0.456770 0.540270 -0.499350
O18   O     O_R   0.412790 0.208310 0.468260 -0.567617
O19   O     O_R   0.610350 0.768590 0.427210 -0.556195
Zn1   Zn    Zn3+2 0.580150 0.419820 0.574680 0.937952
Zn2   Zn    Zn3+2 0.401380 0.373730 0.437510 0.928901
Zn3   Zn    Zn3+2 0.631680 0.593260 0.413140 0.943286
Zn4   Zn    Zn3+2 0.386790 0.613180 0.574670 0.954226

loop_
_geom_bond_atom_site_label_1
_geom_bond_atom_site_label_2
_ccdc_geom_bond_type
C24   H7    S    
C40   C41   A    
C23   F3    S    
C11   O19   A    
C18   O6    S    
C41   C42   A    
C10   O18   A    
C35   C36   S    
C25   H11   S    
C21   H4    S    
C7    O6    S    
C12   C23   A    
C3    F1    S    
C26   C27   S    
C18   H41   S    
O1    Zn1   S    
C37   H40   S    
C36   C37   S    
O13   Zn4   S    
C38   C42   A    
C2    H23   S    
C27   H15   S    
C32   H29   S    
C5    C17   A    
C24   H9    S    
C35   H35   S    
C18   C19   S    
C6    O11   S    
O1    Zn2   S    
C12   O9    S    
C27   H16   S    
C2    C39   A    
C33   H30   S    
C19   C20   S    
C36   H37   S    
C8    C9    D    
C12   C17   A    
C37   H39   S    
C2    C16   A    
C9    C10   S    
C14   O3    A    
C30   H22   S    
C1    O16   A    
C22   H5    S    
C21   H3    S    
C31   H26   S    
C1    C7    S    
C21   C22   S    
C15   H12   S    
C30   H25   S    
C4    O17   A    
O16   Zn4   S    
C34   C39   A    
C10   O12   A    
C4    C6    S    
C19   H43   S    
O19   Zn3   S    
C39   C40   A    
C18   H34   S    
C25   C26   S    
C20   H45   S    
O1    Zn4   S    
O1    Zn3   S    
C29   C30   S    
C27   H17   S    
C42   O10   S    
C21   O7    S    
C33   H31   S    
C31   C32   S    
C36   H36   S    
C23   C34   A    
O3    Zn4   S    
C31   O10   S    
C26   H13   S    
C1    O14   A    
C5    C14   S    
C29   H20   S    
C28   H19   S    
C28   O9    S    
C31   H27   S    
O15   Zn3   S    
C13   O2    A    
O17   Zn1   S    
C22   C24   S    
O12   Zn1   S    
C14   O5    A    
C32   H28   S    
C30   H24   S    
C3    C15   A    
C4    O15   A    
C28   C29   S    
C9    O7    S    
C34   C38   A    
C25   H10   S    
C35   O11   S    
O5    Zn1   S    
O14   Zn2   S    
O2    Zn2   S    
C6    C7    D    
C20   H44   S    
C35   H33   S    
C19   H42   S    
O18   Zn2   S    
C13   O4    A    
C32   C33   S    
C24   H8    S    
C17   F2    S    
C33   H32   S    
C8    C11   S    
O4    Zn3   S    
C8    H1    S    
C15   C40   A    
C20   H2    S    
C29   H21   S    
C28   H18   S    
C25   O8    S    
C13   C16   S    
C41   O8    S    
C37   H38   S    
C26   H14   S    
C11   O13   A    
C5    C38   A    
C3    C16   A    
C22   H6    S    
