data_mof_unit_1662.cif
_audit_creation_date              2012-12-11T15:33:49-0500
_audit_creation_method            fapswitch 2.2
_symmetry_space_group_name_H-M    P1
_symmetry_Int_Tables_number       1
_space_group_crystal_system       triclinic
_cell_length_a                    27.138869
_cell_length_b                    7.203472
_cell_length_c                    22.73769
_cell_angle_alpha                 90.000137
_cell_angle_beta                  101.104989
_cell_angle_gamma                 90.000069
_cell_volume                      4361.85364494

loop_
_atom_site_label
_atom_site_type_symbol
_atom_type_description
_atom_site_fract_x
_atom_site_fract_y
_atom_site_fract_z
_atom_type_partial_charge
O1    O     O_R   0.207310 0.594030 0.676830 -0.532047
O2    O     O_R   0.792690 0.405970 0.323170 -0.532048
O3    O     O_R   0.292690 0.094030 0.823170 -0.532048
O4    O     O_R   0.707310 0.905970 0.176830 -0.532047
O5    O     O_R   0.197320 0.262370 0.795700 -0.539843
O6    O     O_R   0.802680 0.737630 0.204300 -0.539843
O7    O     O_R   0.302680 0.762370 0.704300 -0.539843
O8    O     O_R   0.697320 0.237630 0.295700 -0.539842
C1    C     C_R   0.184666 0.432513 0.811941 0.673233
C2    C     C_R   0.815334 0.567487 0.188058 0.673233
C3    C     C_R   0.315334 0.932513 0.688059 0.673231
C4    C     C_R   0.684666 0.067487 0.311941 0.673232
O9    O     O_R   0.201410 0.264250 0.675590 -0.534237
O10   O     O_R   0.798590 0.735750 0.324410 -0.534237
O11   O     O_R   0.298590 0.764250 0.824410 -0.534237
O12   O     O_R   0.701410 0.235750 0.175590 -0.534237
O13   O     O_R   0.296810 0.094940 0.702210 -0.538114
O14   O     O_R   0.703190 0.905060 0.297790 -0.538114
O15   O     O_R   0.203190 0.594940 0.797790 -0.538114
O16   O     O_R   0.796810 0.405060 0.202210 -0.538114
C5    C     C_R   0.189778 0.432523 0.653475 0.686375
C6    C     C_R   0.810222 0.567477 0.346525 0.686375
C7    C     C_R   0.310221 0.932524 0.846525 0.686375
C8    C     C_R   0.689778 0.067476 0.153475 0.686374
O17   O     O_3   0.281300 0.427390 0.758870 -0.372357
O18   O     O_3   0.718700 0.572610 0.241130 -0.372357
O19   O     O_3   0.218700 0.927390 0.741130 -0.372357
O20   O     O_3   0.781300 0.072610 0.258870 -0.372357
V1    V     V_3+5 0.244190 0.152150 0.748350 1.410513
V2    V     V_3+5 0.755810 0.847850 0.251650 1.410513
V3    V     V_3+5 0.255810 0.652150 0.751650 1.410513
V4    V     V_3+5 0.744190 0.347850 0.248350 1.410513
C9    C     C_R   0.654840 0.062489 0.095125 -0.038653
C10   C     C_R   0.345160 0.937511 0.904875 -0.038652
C11   C     C_R   0.845160 0.562492 0.404875 -0.038655
C12   C     C_R   0.154840 0.437508 0.595125 -0.038656
C13   C     C_R   0.639324 0.124854 0.988712 -0.158113
C14   C     C_R   0.360676 0.875146 0.011288 -0.158113
C15   C     C_R   0.860678 0.624889 0.511287 -0.158114
C16   C     C_R   0.139322 0.375110 0.488713 -0.158115
C17   C     C_R   0.672178 0.116037 0.043754 -0.163125
C18   C     C_R   0.327822 0.883963 0.956246 -0.163125
C19   C     C_R   0.827823 0.616060 0.456245 -0.163123
C20   C     C_R   0.172177 0.383939 0.543755 -0.163123
C21   C     C_R   0.603784 0.018259 0.091118 -0.212288
C22   C     C_R   0.396216 0.981741 0.908882 -0.212288
C23   C     C_R   0.896215 0.518251 0.408882 -0.212289
C24   C     C_R   0.103785 0.481750 0.591117 -0.212290
C25   C     C_R   0.569068 0.029438 0.035443 0.085806
C26   C     C_R   0.430932 0.970561 0.964557 0.085806
C27   C     C_R   0.930932 0.529441 0.464557 0.085805
C28   C     C_R   0.069068 0.470559 0.535443 0.085805
C29   C     C_R   0.588183 0.083474 0.984131 0.136234
C30   C     C_R   0.411817 0.916525 0.015869 0.136234
C31   C     C_R   0.911819 0.583500 0.515868 0.136233
C32   C     C_R   0.088181 0.416499 0.484132 0.136234
C33   C     C_R   0.516239 0.991565 0.028866 0.057475
C34   C     C_R   0.483761 0.008435 0.971134 0.057475
C35   C     C_R   0.983760 0.491557 0.471134 0.057475
C36   C     C_R   0.016240 0.508443 0.528865 0.057475
C37   C     C_R   0.505229 0.062001 0.921937 -0.184798
C38   C     C_R   0.494771 0.937999 0.078063 -0.184798
C39   C     C_R   0.994773 0.562034 0.578061 -0.184798
C40   C     C_R   0.005227 0.437965 0.421939 -0.184798
C41   C     C_R   0.556224 0.098212 0.928457 -0.196619
C42   C     C_R   0.443776 0.901788 0.071543 -0.196619
C43   C     C_R   0.943779 0.598253 0.571541 -0.196619
C44   C     C_R   0.056221 0.401746 0.428459 -0.196619
H1    H     H_    0.570813 0.139505 0.889252 0.127719
H2    H     H_    0.429187 0.860495 0.110748 0.127719
H3    H     H_    0.929191 0.639566 0.610745 0.127719
H4    H     H_    0.070809 0.360433 0.389255 0.127719
H5    H     H_    0.407564 0.019684 0.867644 0.095948
H6    H     H_    0.592436 0.980316 0.132356 0.095948
H7    H     H_    0.092437 0.519707 0.632354 0.095950
H8    H     H_    0.907563 0.480294 0.367646 0.095950
H9    H     H_    0.288706 0.847670 0.953608 0.109928
H10   H     H_    0.711294 0.152330 0.046392 0.109928
H11   H     H_    0.211292 0.347636 0.546394 0.109929
H12   H     H_    0.788708 0.652363 0.453606 0.109929
H13   H     H_    0.653877 0.166826 0.949569 0.118457
H14   H     H_    0.346123 0.833174 0.050431 0.118457
H15   H     H_    0.846126 0.666878 0.550428 0.118457
H16   H     H_    0.153874 0.333120 0.449572 0.118457
H17   H     H_    0.483561 0.077976 0.877328 0.125840
H18   H     H_    0.516439 0.922024 0.122672 0.125840
H19   H     H_    0.016441 0.578025 0.622669 0.125840
H20   H     H_    0.983559 0.421974 0.377331 0.125840
C45   C     C_R   0.629620 0.881862 0.367771 -0.160356
C46   C     C_R   0.370379 0.118138 0.632229 -0.160356
C47   C     C_R   0.870375 0.381862 0.132222 -0.160355
C48   C     C_R   0.129625 0.618137 0.867778 -0.160354
H21   H     H_    0.644885 0.754308 0.353528 0.124665
H22   H     H_    0.355114 0.245692 0.646472 0.124665
H23   H     H_    0.855106 0.254309 0.146460 0.124664
H24   H     H_    0.144894 0.745691 0.853540 0.124664
C49   C     C_R   0.593715 0.868904 0.404295 -0.140502
C50   C     C_R   0.406284 0.131096 0.595705 -0.140502
C51   C     C_R   0.906280 0.368904 0.095698 -0.140503
C52   C     C_R   0.093720 0.631096 0.904301 -0.140503
H25   H     H_    0.582641 0.732287 0.416805 0.133724
H26   H     H_    0.417359 0.267713 0.583195 0.133724
H27   H     H_    0.917350 0.232288 0.083183 0.133724
H28   H     H_    0.082649 0.767712 0.916817 0.133724
C53   C     C_R   0.572597 0.029379 0.424497 0.020118
C54   C     C_R   0.427403 0.970621 0.575503 0.020118
C55   C     C_R   0.927403 0.529378 0.075503 0.020119
C56   C     C_R   0.072597 0.470621 0.924497 0.020119
C57   C     C_R   0.588331 0.203598 0.406791 -0.134725
C58   C     C_R   0.411669 0.796402 0.593209 -0.134725
C59   C     C_R   0.911674 0.703597 0.093214 -0.134726
C60   C     C_R   0.088326 0.296402 0.906786 -0.134725
C61   C     C_R   0.624334 0.216700 0.370124 -0.160261
C62   C     C_R   0.375666 0.783300 0.629876 -0.160260
C63   C     C_R   0.875670 0.716700 0.129881 -0.160262
C64   C     C_R   0.124330 0.283300 0.870119 -0.160262
H29   H     H_    0.635585 0.353188 0.357724 0.120829
H30   H     H_    0.364415 0.646812 0.642276 0.120829
H31   H     H_    0.864423 0.853187 0.142287 0.120830
H32   H     H_    0.135577 0.146813 0.857713 0.120830
C65   C     C_R   0.645635 0.055868 0.350151 -0.047196
C66   C     C_R   0.354365 0.944132 0.649849 -0.047197
C67   C     C_R   0.854364 0.555868 0.149848 -0.047196
C68   C     C_R   0.145636 0.444132 0.850151 -0.047196
N1    N     N_R   0.514121 0.168478 0.483864 -0.280037
N2    N     N_R   0.485878 0.831522 0.516136 -0.280037
N3    N     N_R   0.985888 0.668477 0.016148 -0.280038
N4    N     N_R   0.014112 0.331523 0.983852 -0.280038
N5    N     N_R   0.480292 0.154486 0.519144 -0.285326
N6    N     N_R   0.519708 0.845514 0.480856 -0.285327
N7    N     N_R   0.019718 0.654486 0.980868 -0.285326
N8    N     N_R   0.980282 0.345514 0.019132 -0.285326
C69   C     C_R   0.465372 0.985734 0.536129 0.512858
C70   C     C_R   0.534628 0.014266 0.463871 0.512859
C71   C     C_R   0.034628 0.485734 0.963871 0.512859
C72   C     C_R   0.965372 0.514266 0.036129 0.512859
H33   H     H_    0.572942 0.330420 0.421383 0.138876
H34   H     H_    0.427058 0.669580 0.578617 0.138876
H35   H     H_    0.927065 0.830419 0.078628 0.138876
H36   H     H_    0.072934 0.169581 0.921372 0.138876

loop_
_geom_bond_atom_site_label_1
_geom_bond_atom_site_label_2
_ccdc_geom_bond_type
N1    C70   A    
O17   V3    S    
C51   H27   S    
O1    C5    A    
O19   V1    S    
C9    C21   A    
C60   H36   S    
O3    C7    A    
C10   C18   A    
O1    V3    S    
O15   V3    S    
C59   H35   S    
C33   C38   A    
C5    C12   S    
O7    C3    A    
C6    C11   S    
C38   H18   S    
C35   C40   A    
C26   C30   A    
C36   C39   A    
C40   C44   A    
O2    V4    S    
O9    V1    S    
C23   H8    S    
C14   C18   A    
N7    C71   A    
C48   C68   A    
C54   C58   A    
O4    C8    A    
C25   C29   A    
N8    C72   A    
C44   H4    S    
N2    N6    A    
C48   H24   S    
C1    C68   S    
O13   V1    S    
C57   H33   S    
O3    V1    S    
C16   H16   S    
C28   C36   A    
C1    O15   A    
C52   H28   S    
C15   C31   A    
C4    C65   S    
N2    C69   A    
C2    O16   A    
C16   C32   A    
O2    C6    A    
C10   C22   A    
C11   C19   A    
C58   C62   A    
C16   C20   A    
C43   H3    S    
C57   C61   A    
C13   C29   A    
C34   C37   A    
O11   C7    A    
C11   C23   A    
C35   C36   A    
O12   C8    A    
C47   C67   A    
C14   H14   S    
C45   H21   S    
C46   C66   A    
C24   H7    S    
C13   H13   S    
N6    C70   A    
O10   V2    S    
N4    N8    A    
C46   H22   S    
O5    V1    S    
C54   C69   S    
C39   C43   A    
C52   C56   A    
O7    V3    S    
C38   C42   A    
C26   C34   A    
C58   H34   S    
C63   C67   A    
N3    C72   A    
C56   C71   S    
C2    C67   S    
N4    C71   A    
C17   H10   S    
O18   V4    S    
C23   C27   A    
C19   H12   S    
C32   C44   A    
C47   H23   S    
O4    V2    S    
C64   H32   S    
C45   C49   A    
C21   H6    S    
O8    V4    S    
O5    C1    A    
C55   C72   S    
C37   C41   A    
C31   C43   A    
C14   C30   A    
C21   C25   A    
O8    C4    A    
C7    C10   S    
O9    C5    A    
C62   H30   S    
C37   H17   S    
C61   H29   S    
O6    V2    S    
C63   H31   S    
N1    N5    A    
O14   V2    S    
N5    C69   A    
C12   C20   A    
C3    C66   S    
C27   C35   A    
C60   C64   A    
C29   C41   A    
C48   C52   A    
O16   V4    S    
C53   C57   A    
C3    O13   A    
C64   C68   A    
C39   H19   S    
C55   C59   A    
C20   H11   S    
O6    C2    A    
C25   C33   A    
C15   C19   A    
O11   V3    S    
C30   C42   A    
O12   V4    S    
C51   C55   A    
C22   C26   A    
C8    C9    S    
C50   C54   A    
C9    C17   A    
O10   C6    A    
O20   V2    S    
C49   C53   A    
C50   H26   S    
C33   C34   A    
C42   H2    S    
C45   C65   A    
C41   H1    S    
C46   C50   A    
C12   C24   A    
C27   C31   A    
C13   C17   A    
N3    N7    A    
C15   H15   S    
C62   C66   A    
C56   C60   A    
C24   C28   A    
C61   C65   A    
C18   H9    S    
C4    O14   A    
C59   C63   A    
C47   C51   A    
C40   H20   S    
C22   H5    S    
C49   H25   S    
C28   C32   A    
C53   C70   S    
