data_mof_unit_627.cif
_audit_creation_date              2012-12-10T17:15:47-0500
_audit_creation_method            fapswitch 2.2
_symmetry_space_group_name_H-M    P1
_symmetry_Int_Tables_number       1
_space_group_crystal_system       triclinic
_cell_length_a                    10.087091
_cell_length_b                    10.730292
_cell_length_c                    10.839896
_cell_angle_alpha                 89.868669
_cell_angle_beta                  95.213554
_cell_angle_gamma                 81.810814
_cell_volume                      1156.37608691

loop_
_atom_site_label
_atom_site_type_symbol
_atom_type_description
_atom_site_fract_x
_atom_site_fract_y
_atom_site_fract_z
_atom_type_partial_charge
C1    C     C_R   0.443760 0.505219 0.267388 0.953682
C2    C     C_2   0.486836 0.465952 0.934108 -0.146562
C3    C     C_2   0.072917 0.489559 0.490250 -0.115238
C4    C     C_R   0.503026 0.260107 0.512506 0.873713
C5    C     C_2   0.927020 0.510692 0.509519 -0.144819
C6    C     C_R   0.556135 0.488589 0.732635 0.942340
C7    C     C_R   0.499662 0.740443 0.491352 0.886135
C8    C     C_R   0.758512 0.082789 0.558333 -0.170355
C9    C     C_R   0.875900 0.011660 0.524676 -0.197872
C10   C     C_R   0.868061 0.902342 0.457197 0.055166
C11   C     C_R   0.744544 0.857450 0.436166 -0.206904
C12   C     C_R   0.631297 0.045136 0.524318 0.103915
C13   C     C_R   0.626618 0.923198 0.481171 0.082136
C14   C     C_1   0.986466 0.836720 0.408762 0.104622
C15   C     C_R   0.507955 0.126335 0.526779 -0.120045
C16   C     C_R   0.385751 0.079076 0.518957 -0.219219
C17   C     C_R   0.384179 0.952945 0.502617 -0.204726
C18   C     C_R   0.503388 0.873934 0.484704 -0.121869
C19   C     C_2   0.411564 0.498120 0.135685 -0.375466
C20   C     C_2   0.511877 0.462158 0.065947 -0.147843
C21   C     C_2   0.587907 0.471796 0.864345 -0.379949
H1    H     H_    0.290725 0.139636 0.523451 0.168062
H2    H     H_    0.288707 0.917764 0.502837 0.180689
H3    H     H_    0.382953 0.472049 0.894580 0.188796
H4    H     H_    0.615410 0.437149 0.105490 0.189159
H5    H     H_    0.691519 0.465916 0.904291 0.150861
H6    H     H_    0.308310 0.523279 0.095726 0.153190
H7    H     H_    0.890293 0.579825 0.575911 0.170948
H8    H     H_    0.109531 0.420925 0.423376 0.160912
H9    H     H_    0.880642 0.383342 0.386772 0.164916
H10   H     H_    0.119482 0.616111 0.613781 0.165725
H11   H     H_    0.768297 0.167425 0.610365 0.163478
H12   H     H_    0.971779 0.044707 0.546842 0.135855
H13   H     H_    0.741640 0.775096 0.379376 0.174222
N1    N     N_2   0.157290 0.551390 0.551110 -0.188212
N2    N     N_2   0.842740 0.448550 0.448960 -0.201988
N3    N     N_1   0.081491 0.784492 0.369238 -0.186938
O1    O     O_R   0.568950 0.489660 0.307530 -0.614119
O2    O     O_R   0.348880 0.522640 0.340350 -0.602582
O3    O     O_R   0.610060 0.300270 0.483590 -0.619977
O4    O     O_R   0.389990 0.333260 0.516410 -0.623426
O5    O     O_R   0.651120 0.477360 0.659650 -0.619129
O6    O     O_R   0.431050 0.510340 0.692470 -0.612742
O7    O     O_R   0.610010 0.666740 0.483590 -0.630022
O8    O     O_R   0.389940 0.699730 0.516410 -0.602086
Zn1   Zn    Zn3+2 0.646940 0.477980 0.478090 0.930886
Zn2   Zn    Zn3+2 0.353060 0.522020 0.521910 0.952676

loop_
_geom_bond_atom_site_label_1
_geom_bond_atom_site_label_2
_ccdc_geom_bond_type
C9    H12   S    
C21   H5    S    
N2    Zn1   S    
C20   H4    S    
H9    N2    S    
C5    H7    S    
C19   H6    S    
C9    C10   A    
C2    H3    S    
C19   C20   D    
C12   C15   A    
C3    N1    D    
C8    C12   A    
C7    C18   S    
N1    Zn2   S    
C4    C15   S    
C17   C18   A    
O4    Zn2   S    
C7    O7    A    
C14   N3    T    
O3    Zn1   S    
C11   C13   A    
C17   H2    S    
O6    Zn2   S    
C13   C18   A    
C2    C21   D    
C7    O8    A    
O7    Zn1   S    
C6    O6    A    
O8    Zn2   S    
O5    Zn1   S    
H10   N1    S    
O1    Zn1   S    
C1    C19   S    
C10   C11   A    
C1    O2    A    
C2    C20   S    
C15   C16   A    
C8    H11   S    
C5    N2    D    
C12   C13   A    
O2    Zn2   S    
C4    O4    A    
C3    H8    S    
C16   C17   A    
C16   H1    S    
C6    C21   S    
C6    O5    A    
C11   H13   S    
C1    O1    A    
C4    O3    A    
C10   C14   S    
C8    C9    A    
C3    C5    S    
