data_mof_unit_4932.cif
_audit_creation_date              2012-12-11T16:06:34-0500
_audit_creation_method            fapswitch 2.2
_symmetry_space_group_name_H-M    P1
_symmetry_Int_Tables_number       1
_space_group_crystal_system       monoclinic
_cell_length_a                    7.202638
_cell_length_b                    14.70319
_cell_length_c                    15.657429
_cell_angle_alpha                 90.0
_cell_angle_beta                  90.0
_cell_angle_gamma                 89.278102
_cell_volume                      1658.01759849

loop_
_atom_site_label
_atom_site_type_symbol
_atom_type_description
_atom_site_fract_x
_atom_site_fract_y
_atom_site_fract_z
_atom_type_partial_charge
O1    O     O_R   0.388780 0.834790 0.412340 -0.518458
O2    O     O_R   0.111220 0.165210 0.912340 -0.518458
O3    O     O_R   0.888780 0.665210 0.587660 -0.507638
O4    O     O_R   0.611220 0.334790 0.087660 -0.507638
O5    O     O_R   0.059040 0.845930 0.587040 -0.536436
O6    O     O_R   0.440960 0.154070 0.087040 -0.536435
O7    O     O_R   0.559040 0.654070 0.412960 -0.556306
O8    O     O_R   0.940960 0.345930 0.912960 -0.556307
C1    C     C_R   0.225998 0.867678 0.615831 0.794872
C2    C     C_R   0.274002 0.132322 0.115831 0.794872
C3    C     C_R   0.728219 0.633186 0.383896 0.766654
C4    C     C_R   0.771781 0.366814 0.883896 0.766654
O9    O     O_R   0.059070 0.845930 0.412970 -0.558840
O10   O     O_R   0.440930 0.154070 0.912970 -0.558840
O11   O     O_R   0.559070 0.654070 0.587030 -0.500879
O12   O     O_R   0.940930 0.345930 0.087030 -0.500879
O13   O     O_R   0.888760 0.665210 0.412340 -0.536110
O14   O     O_R   0.611240 0.334790 0.912340 -0.536110
O15   O     O_R   0.388760 0.834790 0.587660 -0.543050
O16   O     O_R   0.111240 0.165210 0.087660 -0.543050
C5    C     C_R   0.227237 0.866310 0.383345 0.814511
C6    C     C_R   0.272763 0.133689 0.883345 0.814511
C7    C     C_R   0.728510 0.630178 0.613684 0.767533
C8    C     C_R   0.771490 0.369821 0.113684 0.767533
O17   O     O_3   0.222280 0.690700 0.500000 -0.363587
O18   O     O_3   0.277720 0.309300 0.000000 -0.363588
O19   O     O_3   0.722280 0.809300 0.500000 -0.393434
O20   O     O_3   0.777720 0.190700 0.000000 -0.393434
V1    V     V_3+5 0.947430 0.761000 0.500000 1.569296
V2    V     V_3+5 0.552570 0.239000 0.000000 1.569296
V3    V     V_3+5 0.447430 0.739000 0.500000 1.595131
V4    V     V_3+5 0.052570 0.261000 0.000000 1.595131
C9    C     C_3   0.774522 0.606466 0.772137 0.531682
C10   C     C_3   0.725478 0.393534 0.272137 0.531682
C11   C     C_3   0.445887 0.947601 0.283132 0.531716
C12   C     C_3   0.054113 0.052399 0.783132 0.531716
H1    H     H_    0.911443 0.639431 0.768893 0.055348
H2    H     H_    0.588557 0.360569 0.268893 0.055348
H3    H     H_    0.525475 0.969762 0.340171 0.063781
H4    H     H_    0.974526 0.030238 0.840171 0.063782
C13   C     C_3   0.767344 0.537408 0.848260 0.607305
C14   C     C_3   0.732656 0.462592 0.348260 0.607304
C15   C     C_3   0.466958 0.017317 0.208979 0.633606
C16   C     C_3   0.033042 0.982683 0.708979 0.633606
H5    H     H_    0.056079 0.422998 0.772672 0.230813
H6    H     H_    0.443920 0.577001 0.272672 0.230813
H7    H     H_    0.245169 0.163413 0.291919 0.240240
H8    H     H_    0.254831 0.836587 0.791918 0.240240
C17   C     C_3   0.899390 0.488599 0.669103 0.332660
C18   C     C_3   0.600609 0.511401 0.169103 0.332659
C19   C     C_3   0.161538 0.029628 0.341169 0.314627
C20   C     C_3   0.338462 0.970372 0.841169 0.314626
C21   C     C_3   0.556297 0.503494 0.692420 0.522963
C22   C     C_3   0.943702 0.496506 0.192420 0.522962
C23   C     C_3   0.125801 0.907499 0.231104 0.459068
C24   C     C_3   0.374199 0.092501 0.731104 0.459067
C25   C     C_3   0.739208 0.558919 0.685030 -0.298912
C26   C     C_3   0.760792 0.441081 0.185030 -0.298911
C27   C     C_3   0.239430 0.935885 0.311096 -0.286540
C28   C     C_3   0.260570 0.064115 0.811096 -0.286540
H9    H     H_    0.524715 0.470992 0.630024 0.056563
H10   H     H_    0.975285 0.529008 0.130024 0.056563
H11   H     H_    0.977111 0.900649 0.248983 0.084326
H12   H     H_    0.522889 0.099351 0.748983 0.084326
C29   C     C_3   0.760763 0.437209 0.812352 -0.196078
C30   C     C_3   0.739237 0.562791 0.312352 -0.196077
C31   C     C_3   0.268934 0.061122 0.187274 -0.211419
C32   C     C_3   0.231066 0.938878 0.687274 -0.211419
C33   C     C_3   0.915749 0.420159 0.744378 -0.464286
C34   C     C_3   0.584250 0.579841 0.244378 -0.464286
C35   C     C_3   0.175584 0.101708 0.268870 -0.471775
C36   C     C_3   0.324416 0.898292 0.768870 -0.471775
C37   C     C_3   0.574265 0.428450 0.761783 -0.362711
C38   C     C_3   0.925735 0.571550 0.261783 -0.362711
C39   C     C_3   0.142145 0.980578 0.159210 -0.337311
C40   C     C_3   0.357856 0.019422 0.659210 -0.337311
H13   H     H_    0.452440 0.432941 0.805268 0.239783
H14   H     H_    0.047560 0.567059 0.305268 0.239783
H15   H     H_    0.196537 0.948624 0.099739 0.285127
H16   H     H_    0.303463 0.051376 0.599739 0.285127
H17   H     H_    0.567634 0.360326 0.730937 0.152441
H18   H     H_    0.932366 0.639674 0.230937 0.152441
H19   H     H_    0.000654 0.006513 0.143164 0.135854
H20   H     H_    0.499346 0.993487 0.643164 0.135854
H21   H     H_    0.870592 0.450643 0.609128 0.121568
H22   H     H_    0.629408 0.549357 0.109128 0.121569
H23   H     H_    0.012924 0.022408 0.359095 0.124672
H24   H     H_    0.487075 0.977591 0.859095 0.124673
H25   H     H_    0.903838 0.349821 0.718796 0.213276
H26   H     H_    0.596162 0.650178 0.218796 0.213277
H27   H     H_    0.033279 0.125758 0.252356 0.180588
H28   H     H_    0.466721 0.874242 0.752356 0.180588
F1    F     F_    0.643569 0.675145 0.784520 -0.626237
F2    F     F_    0.856431 0.324855 0.284520 -0.626237
F3    F     F_    0.523080 0.864405 0.258863 -0.604082
F4    F     F_    0.976920 0.135595 0.758863 -0.604082
F5    F     F_    0.600273 0.552545 0.890878 -0.632787
F6    F     F_    0.899727 0.447455 0.390878 -0.632787
F7    F     F_    0.523116 0.969302 0.136697 -0.609120
F8    F     F_    0.976885 0.030698 0.636697 -0.609120
C41   C     C_3   0.917851 0.557856 0.917122 -0.461421
C42   C     C_3   0.122437 0.545501 0.892277 -0.638339
H29   H     H_    0.166422 0.473305 0.897019 0.231749
H30   H     H_    0.152340 0.571604 0.827601 0.289746
H31   H     H_    0.209642 0.583632 0.938139 0.283032
H32   H     H_    0.897981 0.629839 0.937445 0.234096
H33   H     H_    0.891282 0.516230 0.974943 0.176080
C43   C     C_3   0.582149 0.442144 0.417122 -0.461421
C44   C     C_3   0.377563 0.454499 0.392277 -0.638339
H34   H     H_    0.333578 0.526695 0.397019 0.231749
H35   H     H_    0.347659 0.428396 0.327601 0.289746
H36   H     H_    0.290358 0.416367 0.438139 0.283032
H37   H     H_    0.602019 0.370161 0.437445 0.234096
H38   H     H_    0.608718 0.483769 0.474943 0.176080
C45   C     C_3   0.635041 0.080174 0.229529 -0.421618
C46   C     C_3   0.606575 0.151724 0.298821 -0.771067
H39   H     H_    0.528595 0.210540 0.272427 0.234650
H40   H     H_    0.535779 0.124160 0.355570 0.280828
H41   H     H_    0.743710 0.175541 0.320834 0.290393
H42   H     H_    0.751648 0.035360 0.250625 0.153750
H43   H     H_    0.691055 0.113474 0.171764 0.234431
C47   C     C_3   0.864958 0.919826 0.729529 -0.421617
C48   C     C_3   0.893425 0.848276 0.798820 -0.771069
H44   H     H_    0.971405 0.789460 0.772425 0.234650
H45   H     H_    0.964222 0.875838 0.855568 0.280828
H46   H     H_    0.756290 0.824459 0.820833 0.290394
H47   H     H_    0.748352 0.964640 0.750625 0.153750
H48   H     H_    0.808944 0.886527 0.671763 0.234431
F9    F     F_    0.067740 0.531486 0.658457 -0.603604
F10   F     F_    0.432260 0.468514 0.158457 -0.603604
F11   F     F_    0.254000 0.058814 0.413569 -0.667222
F12   F     F_    0.246000 0.941186 0.913569 -0.667222
F13   F     F_    0.408588 0.560664 0.712813 -0.557061
F14   F     F_    0.091412 0.439336 0.212813 -0.557061
F15   F     F_    0.186163 0.823533 0.200972 -0.598430
F16   F     F_    0.313836 0.176467 0.700972 -0.598429

loop_
_geom_bond_atom_site_label_1
_geom_bond_atom_site_label_2
_ccdc_geom_bond_type
C41   H33   S    
O1    C5    A    
C41   C42   S    
C24   C40   S    
C23   C27   S    
O19   V1    S    
O13   V1    S    
O3    C7    A    
C10   C14   S    
O15   V3    S    
C40   H20   S    
C35   H27   S    
C17   C25   S    
C48   H44   S    
C2    C31   S    
C43   C44   S    
O18   V4    S    
C45   H43   S    
O2    V4    S    
O9    V1    S    
C38   H18   S    
C5    C27   S    
C44   H35   S    
C6    C28   S    
C11   H3    S    
O4    C8    A    
C23   F15   S    
C48   H45   S    
C45   C46   S    
C22   F14   S    
O1    V3    S    
C29   C37   S    
C46   H39   S    
C42   H31   S    
C11   C27   S    
C43   H38   S    
C47   H47   S    
O3    V1    S    
C18   F10   S    
C15   C45   S    
C22   C38   S    
C21   H9    S    
C1    O15   A    
C36   H28   S    
C2    O16   A    
C23   H11   S    
O2    C6    A    
C24   H12   S    
O14   V2    S    
C11   C15   S    
C3    C30   S    
C32   C36   S    
C23   C39   S    
O11   C7    A    
O12   C8    A    
C17   C33   S    
C34   H26   S    
C19   C35   S    
H8    C36   S    
C33   H25   S    
C37   H17   S    
C24   F16   S    
O5    V1    S    
O7    V3    S    
H5    C33   S    
O8    V4    S    
C8    C26   S    
C17   H21   S    
C20   H24   S    
C21   F13   S    
C44   H36   S    
C19   H23   S    
C21   C25   S    
C48   H46   S    
C13   C29   S    
C22   H10   S    
O10   V2    S    
C17   F9    S    
C9    H1    S    
C24   C28   S    
C20   F12   S    
C43   H37   S    
O7    C3    A    
O5    C1    A    
C20   C36   S    
C12   F4    S    
C12   H4    S    
O8    C4    A    
C22   C26   S    
C18   C26   S    
O9    C5    A    
C32   C40   S    
C42   H30   S    
H7    C35   S    
C46   H40   S    
C15   C31   S    
O6    V2    S    
C10   F2    S    
C13   F5    S    
C16   C32   S    
C31   C39   S    
C10   C26   S    
O16   V4    S    
C41   H32   S    
C7    C25   S    
C3    O13   A    
C9    C25   S    
C10   H2    S    
O17   V3    S    
C21   C37   S    
C40   H16   S    
C15   F7    S    
C12   C28   S    
C9    F1    S    
O6    C2    A    
O11   V3    S    
C11   F3    S    
O12   V4    S    
C4    C29   S    
C46   H41   S    
C9    C13   S    
O10   C6    A    
C14   F6    S    
C18   C34   S    
C1    C32   S    
O20   V2    S    
C44   H34   S    
C16   F8    S    
C39   H19   S    
C30   C34   S    
C39   H15   S    
C29   C33   S    
C16   C47   S    
C13   C41   S    
C31   C35   S    
C47   H48   S    
C42   H29   S    
H6    C34   S    
C12   C16   S    
C18   H22   S    
C19   C27   S    
C20   C28   S    
C45   H42   S    
C38   H14   S    
C19   F11   S    
C4    O14   A    
C14   C30   S    
C37   H13   S    
C47   C48   S    
C14   C43   S    
O4    V2    S    
C30   C38   S    
