data_mof_unit_3898.cif
_audit_creation_date              2012-12-10T19:17:49-0500
_audit_creation_method            fapswitch 2.2
_symmetry_space_group_name_H-M    P1
_symmetry_Int_Tables_number       1
_space_group_crystal_system       triclinic
_cell_length_a                    16.011536
_cell_length_b                    14.786663
_cell_length_c                    10.661695
_cell_angle_alpha                 90.040689
_cell_angle_beta                  89.86763
_cell_angle_gamma                 89.932673
_cell_volume                      2524.22379565

loop_
_atom_site_label
_atom_site_type_symbol
_atom_type_description
_atom_site_fract_x
_atom_site_fract_y
_atom_site_fract_z
_atom_type_partial_charge
C1    C     C_R   0.341022 0.500068 0.499433 0.860110
C2    C     C_R   0.658977 0.499932 0.500567 0.860110
C3    C     C_1   0.822642 0.498724 0.504122 0.047960
C4    C     C_1   0.177358 0.501277 0.495873 0.047974
C5    C     C_R   0.956118 0.565487 0.571935 -0.069291
C6    C     C_R   0.043882 0.434516 0.428053 -0.069303
C7    C     C_R   0.044192 0.568120 0.565933 -0.063695
C8    C     C_R   0.955808 0.431884 0.434055 -0.063691
C9    C     C_R   0.912589 0.497356 0.505949 -0.040425
C10   C     C_R   0.087411 0.502647 0.494042 -0.040418
C11   C     C_R   0.500354 0.499990 0.258891 0.859147
C12   C     C_R   0.499646 0.500010 0.741109 0.859146
C13   C     C_1   0.252225 0.500410 0.497669 -0.088068
C14   C     C_1   0.747775 0.499590 0.502329 -0.088073
C15   C     C_R   0.541847 0.951566 0.595332 -0.033326
C16   C     C_R   0.458153 0.048434 0.404668 -0.033326
C17   C     C_R   0.457522 0.951752 0.404923 -0.033921
C18   C     C_R   0.542478 0.048248 0.595077 -0.033920
C19   C     C_R   0.499029 0.902823 0.500704 -0.069067
C20   C     C_R   0.500971 0.097177 0.499296 -0.069067
C21   C     C_3   0.489416 0.585327 0.042099 -0.227790
C22   C     C_3   0.510584 0.414673 0.957901 -0.227791
C23   C     C_3   0.562396 0.552845 0.956995 -0.230283
C24   C     C_3   0.437604 0.447155 0.043005 -0.230281
C25   C     C_3   0.427074 0.532063 0.960858 0.043917
C26   C     C_3   0.572926 0.467937 0.039142 0.043917
C27   C     C_3   0.499090 0.500047 0.877382 -0.041658
C28   C     C_3   0.500910 0.499953 0.122618 -0.041659
C29   C     C_1   0.499801 0.802454 0.499990 0.166556
C30   C     C_1   0.500199 0.197546 0.500010 0.166552
Cu1   Cu    Cu3+1 0.500000 0.589220 0.500000 1.021049
Cu2   Cu    Cu3+1 0.500000 0.410780 0.500000 1.021047
H1    H     H_    0.479791 0.654765 0.079125 0.162554
H2    H     H_    0.520209 0.345235 0.920875 0.162554
H3    H     H_    0.613846 0.595256 0.919409 0.166680
H4    H     H_    0.386154 0.404744 0.080591 0.166682
N1    N     N_1   0.500000 0.276710 0.500000 -0.149288
N2    N     N_1   0.500000 0.723290 0.500000 -0.149287
O1    O     O_R   0.380310 0.575320 0.500020 -0.551433
O2    O     O_R   0.619690 0.424680 0.499980 -0.551435
O3    O     O_R   0.619690 0.575320 0.499980 -0.577855
O4    O     O_R   0.380310 0.424680 0.500020 -0.577855
O5    O     O_R   0.499980 0.575330 0.316850 -0.587792
O6    O     O_R   0.500020 0.424670 0.683150 -0.587792
O7    O     O_R   0.500020 0.575330 0.683150 -0.560638
O8    O     O_R   0.499980 0.424670 0.316850 -0.560638
C31   C     C_R   0.584571 0.098431 0.697993 0.097698
C32   C     C_R   0.653031 0.154889 0.672105 -0.151087
C33   C     C_R   0.692758 0.201487 0.769261 -0.083271
C34   C     C_R   0.665019 0.191352 0.892823 -0.103734
C35   C     C_R   0.597184 0.135148 0.919294 -0.168291
C36   C     C_R   0.556624 0.089292 0.822379 -0.117823
H5    H     H_    0.675722 0.162441 0.576908 0.148653
H6    H     H_    0.745362 0.245008 0.748850 0.168930
H7    H     H_    0.696267 0.226687 0.968166 0.169047
H8    H     H_    0.576241 0.126813 0.014966 0.130934
H9    H     H_    0.503797 0.046354 0.844239 0.128632
C37   C     C_R   0.415428 0.901569 0.302009 0.097697
C38   C     C_R   0.443377 0.910703 0.177623 -0.117823
C39   C     C_R   0.402817 0.864846 0.080711 -0.168292
C40   C     C_R   0.334979 0.808644 0.107182 -0.103735
C41   C     C_R   0.307239 0.798515 0.230744 -0.083269
C42   C     C_R   0.346966 0.845114 0.327898 -0.151088
H10   H     H_    0.496205 0.953638 0.155763 0.128632
H11   H     H_    0.423761 0.873176 0.985039 0.130933
H12   H     H_    0.303731 0.773308 0.031842 0.169050
H13   H     H_    0.254633 0.754996 0.251156 0.168932
H14   H     H_    0.324274 0.837565 0.423095 0.148654
C43   C     C_R   0.411993 0.098998 0.306335 0.106388
C44   C     C_R   0.324655 0.092459 0.298026 -0.120098
C45   C     C_R   0.281601 0.139296 0.204348 -0.105227
C46   C     C_R   0.325353 0.192890 0.118622 -0.087351
C47   C     C_R   0.412202 0.199724 0.126514 -0.142932
C48   C     C_R   0.455450 0.153301 0.220228 -0.150834
H15   H     H_    0.290114 0.051123 0.363948 0.135636
H16   H     H_    0.214356 0.133862 0.198009 0.135694
H17   H     H_    0.292006 0.229016 0.046019 0.143473
H18   H     H_    0.446085 0.240671 0.059765 0.132066
H19   H     H_    0.522756 0.159155 0.225524 0.125239
C49   C     C_R   0.588009 0.901001 0.693663 0.106388
C50   C     C_R   0.544553 0.846699 0.779771 -0.150834
C51   C     C_R   0.587801 0.800273 0.873483 -0.142936
C52   C     C_R   0.674651 0.807105 0.881369 -0.087346
C53   C     C_R   0.718401 0.860698 0.795641 -0.105224
C54   C     C_R   0.675347 0.907538 0.701967 -0.120103
H20   H     H_    0.477246 0.840846 0.774480 0.125237
H21   H     H_    0.553919 0.759326 0.940232 0.132065
H22   H     H_    0.707998 0.770976 0.953969 0.143476
H23   H     H_    0.785647 0.866129 0.801976 0.135696
H24   H     H_    0.709886 0.948874 0.636044 0.135637
C55   C     C_2   0.343878 0.567861 0.920044 0.809098
O9    O     O_2   0.291748 0.588123 0.999119 -0.586986
O10   O     O_R   0.325976 0.577515 0.792637 -0.773143
H25   H     H_    0.267757 0.602116 0.777425 0.345129
C56   C     C_2   0.656121 0.432138 0.079956 0.809099
O11   O     O_2   0.708251 0.411875 0.000881 -0.586989
O12   O     O_R   0.674024 0.422486 0.207363 -0.773142
H26   H     H_    0.732243 0.397884 0.222575 0.345130
C57   C     C_2   0.091486 0.636729 0.639568 0.886188
O13   O     O_2   0.147433 0.680179 0.589810 -0.594556
O14   O     O_R   0.071998 0.651183 0.765942 -0.731331
H27   H     H_    0.108543 0.699127 0.805892 0.340240
C58   C     C_2   0.908513 0.363281 0.360411 0.886194
O15   O     O_2   0.852571 0.319822 0.410167 -0.594551
O16   O     O_R   0.927996 0.348841 0.234030 -0.731324
H28   H     H_    0.891450 0.300901 0.194071 0.340241
C59   C     C_2   0.909239 0.636534 0.642287 0.903669
O17   O     O_2   0.852525 0.615356 0.713463 -0.576912
O18   O     O_R   0.930042 0.727657 0.626518 -0.746228
H29   H     H_    0.893903 0.769374 0.679166 0.329638
C60   C     C_2   0.090760 0.363472 0.357693 0.903653
O19   O     O_2   0.147480 0.384653 0.286528 -0.576912
O20   O     O_R   0.069950 0.272347 0.373439 -0.746223
H30   H     H_    0.106089 0.230632 0.320787 0.329638

loop_
_geom_bond_atom_site_label_1
_geom_bond_atom_site_label_2
_ccdc_geom_bond_type
C7    C10   A    
O14   H27   S    
C15   C18   A    
C47   C48   A    
C56   O11   D    
C18   C31   S    
C49   C54   A    
O12   H26   S    
C20   C30   S    
C15   C19   A    
C38   H10   S    
C24   H4    S    
Cu1   O5    S    
C41   H13   S    
C45   H16   S    
C49   C50   A    
C21   H1    S    
C2    O3    A    
C33   H6    S    
C37   C42   A    
C35   H8    S    
C6    C60   S    
C23   C26   S    
C4    C13   T    
C46   H17   S    
C40   H12   S    
C15   C49   S    
C8    C9    A    
C29   N2    T    
C47   H18   S    
C11   O5    A    
C44   C45   A    
C23   C27   S    
C50   H20   S    
C16   C20   A    
C17   C37   S    
C52   H22   S    
C38   C39   A    
C59   O18   S    
C43   C44   A    
C50   C51   A    
C32   H5    S    
C22   H2    S    
C25   C55   S    
C12   C27   S    
C35   C36   A    
C31   C32   A    
C24   C25   S    
C58   O16   S    
C55   O9    D    
C5    C7    A    
C16   C17   A    
C6    C8    A    
C37   C38   A    
C30   N1    T    
C39   C40   A    
C5    C9    A    
C41   C42   A    
C3    C9    S    
C55   O10   S    
C52   C53   A    
C59   O17   D    
C34   C35   A    
Cu2   O6    S    
C43   C48   A    
C60   O20   S    
O10   H25   S    
Cu2   N1    S    
C53   C54   A    
C3    C14   T    
C7    C57   S    
C32   C33   A    
C57   O14   S    
C21   C28   S    
C39   H11   S    
C51   C52   A    
C23   H3    S    
C22   C27   S    
C21   C23   S    
Cu1   O7    S    
C22   C24   S    
C1    C13   S    
C53   H23   S    
C4    C10   S    
C19   C29   S    
C58   O15   D    
O20   H30   S    
C5    C59   S    
C26   C56   S    
C21   C25   S    
C42   H14   S    
Cu1   O3    S    
C60   O19   D    
Cu2   O8    S    
Cu1   Cu2   S    
C16   C43   S    
C24   C28   S    
C46   C47   A    
C6    C10   A    
C54   H24   S    
C56   O12   S    
Cu1   N2    S    
C31   C36   A    
C12   O7    A    
C25   C27   S    
O16   H28   S    
C26   C28   S    
C34   H7    S    
C57   O13   D    
C48   H19   S    
C45   C46   A    
C12   O6    A    
O18   H29   S    
C11   C28   S    
C17   C19   A    
Cu1   O1    S    
C18   C20   A    
Cu2   O2    S    
C40   C41   A    
C2    C14   S    
C8    C58   S    
C36   H9    S    
C1    O1    A    
C2    O2    A    
C1    O4    A    
C33   C34   A    
C22   C26   S    
C44   H15   S    
Cu2   O4    S    
C11   O8    A    
C51   H21   S    
