data_mof_unit_2936.cif
_audit_creation_date              2012-10-26T20:21:15-0400
_audit_creation_method            fapswitch 2.2
_symmetry_space_group_name_H-M    P1
_symmetry_Int_Tables_number       1
_space_group_crystal_system       triclinic
_cell_length_a                    9.520677
_cell_length_b                    10.834028
_cell_length_c                    15.496048
_cell_angle_alpha                 89.865748
_cell_angle_beta                  74.524895
_cell_angle_gamma                 90.003229
_cell_volume                      1540.42387416

loop_
_atom_site_label
_atom_site_type_symbol
_atom_type_description
_atom_site_fract_x
_atom_site_fract_y
_atom_site_fract_z
_atom_type_partial_charge
C1    C     C_R   0.999935 0.262074 0.500062 0.551679
C2    C     C_R   0.127741 0.063869 0.499754 -0.138453
C3    C     C_R   0.000038 0.871776 0.499957 0.020165
C4    C     C_R   0.999946 0.128219 0.500080 0.019970
C5    C     C_R   0.548642 0.428195 0.559059 0.010973
C6    C     C_R   0.451354 0.571820 0.440949 0.011145
C7    C     C_R   0.399829 0.428304 0.559079 0.007096
C8    C     C_R   0.600170 0.571708 0.440927 0.007549
C9    C     C_R   0.918307 0.501463 0.672092 0.547512
C10   C     C_R   0.081696 0.499729 0.327846 0.548020
C11   C     C_R   0.872925 0.513663 0.769816 -0.001044
C12   C     C_R   0.000059 0.737924 0.499951 0.551457
C13   C     C_R   0.126544 0.497343 0.229617 -0.001871
C14   C     C_R   0.918256 0.581148 0.908353 -0.144591
C15   C     C_R   0.074985 0.459853 0.087550 -0.142323
C16   C     C_R   0.969181 0.556559 0.817207 -0.141872
C17   C     C_R   0.026995 0.470338 0.180257 -0.140302
C18   C     C_R   0.726799 0.492542 0.814654 -0.129307
C19   C     C_R   0.273148 0.517845 0.185252 -0.132394
C20   C     C_R   0.671168 0.521254 0.905810 0.035121
C21   C     C_R   0.323983 0.510911 0.091499 0.034168
C22   C     C_R   0.770521 0.564029 0.952887 0.049122
C23   C     C_R   0.576224 0.574383 0.089163 -0.137598
C24   C     C_R   0.222393 0.478668 0.042997 0.049885
C25   C     C_R   0.520278 0.509141 0.951163 0.034536
C26   C     C_R   0.473150 0.531158 0.045096 0.034142
C27   C     C_R   0.414525 0.478555 0.905437 -0.137686
C28   C     C_R   0.721554 0.590812 0.043657 -0.139325
C29   C     C_R   0.268766 0.464292 0.950633 -0.139951
C30   C     C_R   0.872185 0.063826 0.500374 -0.139110
C31   C     C_R   0.127796 0.936168 0.499673 -0.139165
C32   C     C_R   0.872239 0.936125 0.500293 -0.138328
Cu1   Cu    Cu3+1 0.140660 0.500020 0.500000 0.933977
Cu2   Cu    Cu3+1 0.859340 0.499980 0.500000 0.934809
H1    H     H_    0.796356 0.624857 0.080032 0.108503
H2    H     H_    0.439478 0.467480 0.833963 0.098953
H3    H     H_    0.772248 0.111831 0.500668 0.128503
H4    H     H_    0.227732 0.888162 0.499379 0.128367
H5    H     H_    0.772350 0.888086 0.500506 0.129038
H6    H     H_    0.227630 0.111908 0.499541 0.129086
H7    H     H_    0.584053 0.370436 0.606277 0.104285
H8    H     H_    0.415942 0.629588 0.393735 0.103738
H9    H     H_    0.323146 0.370768 0.606328 0.105154
H10   H     H_    0.676855 0.629244 0.393677 0.104320
H11   H     H_    0.191930 0.440243 0.912852 0.108784
H12   H     H_    0.346295 0.535454 0.225979 0.117026
H13   H     H_    0.658948 0.453441 0.776287 0.112657
H14   H     H_    0.913129 0.453863 0.213381 0.129282
H15   H     H_    0.082578 0.574133 0.783496 0.128391
H16   H     H_    0.993887 0.616058 0.943746 0.112996
H17   H     H_    0.997109 0.434989 0.050764 0.114891
H18   H     H_    0.548023 0.600121 0.158700 0.096021
N1    N     N_R   0.352080 0.500030 0.499980 -0.223310
N2    N     N_R   0.647920 0.499970 0.500020 -0.223172
O1    O     O_R   0.118740 0.319660 0.500000 -0.505603
O2    O     O_R   0.881260 0.680340 0.500000 -0.505833
O3    O     O_R   0.881170 0.319630 0.500010 -0.507723
O4    O     O_R   0.118830 0.680370 0.499990 -0.508104
O5    O     O_R   0.055570 0.500030 0.629830 -0.505021
O6    O     O_R   0.944430 0.499970 0.370170 -0.504589
O7    O     O_R   0.818000 0.500000 0.629840 -0.506831
O8    O     O_R   0.182000 0.500000 0.370160 -0.507818

loop_
_geom_bond_atom_site_label_1
_geom_bond_atom_site_label_2
_ccdc_geom_bond_type
Cu1   O1    S    
Cu2   O3    S    
C2    C4    A    
C21   C26   A    
C31   H4    S    
C11   C18   A    
Cu2   O2    S    
Cu1   O4    S    
C7    H9    S    
C27   H2    S    
C25   C27   A    
C11   C16   A    
C10   O6    A    
C12   O2    A    
C17   H14   S    
C13   C17   A    
C3    C31   A    
C1    C4    S    
C12   O4    A    
C18   H13   S    
C14   C22   A    
Cu1   Cu2   S    
C1    O1    A    
C19   H12   S    
Cu1   O5    S    
C22   C28   A    
C23   C28   A    
Cu2   O6    S    
C9    C11   S    
C23   H18   S    
C10   O8    A    
C9    O7    A    
C6    C8    A    
C15   C24   A    
C19   C21   A    
C20   C22   A    
Cu2   N2    S    
C15   H17   S    
Cu1   N1    S    
C3    C32   A    
C14   C16   A    
C21   C24   A    
C27   C29   A    
C20   C25   A    
C14   H16   S    
C6    N1    A    
C30   C32   A    
C2    H6    S    
C5    N2    A    
C16   H15   S    
C30   H3    S    
C18   C20   A    
C5    C7    A    
C6    H8    S    
C23   C26   A    
C8    N2    A    
C15   C17   A    
C7    N1    A    
C24   C29   A    
C2    C31   A    
C13   C19   A    
C5    H7    S    
C3    C12   S    
C32   H5    S    
C25   C26   A    
Cu2   O7    S    
C4    C30   A    
C8    H10   S    
C28   H1    S    
C29   H11   S    
Cu1   O8    S    
C9    O5    A    
C10   C13   S    
C1    O3    A    
