data_mof_unit_1070.cif
_audit_creation_date              2012-12-11T21:12:07-0500
_audit_creation_method            fapswitch 2.2
_symmetry_space_group_name_H-M    P1
_symmetry_Int_Tables_number       1
_space_group_crystal_system       triclinic
_cell_length_a                    8.211474
_cell_length_b                    18.832292
_cell_length_c                    27.000943
_cell_angle_alpha                 99.569886
_cell_angle_beta                  92.465225
_cell_angle_gamma                 88.068467
_cell_volume                      4112.03695898

loop_
_atom_site_label
_atom_site_type_symbol
_atom_type_description
_atom_site_fract_x
_atom_site_fract_y
_atom_site_fract_z
_atom_type_partial_charge
Ba1   Ba    Ba6+2 0.160810 0.465630 0.521640 1.643650
Ba2   Ba    Ba6+2 0.649380 0.534380 0.478400 1.641366
Br1   Br    Br    0.556935 0.205089 0.707780 -0.579324
C1    C     C_3   0.416256 0.288713 0.703158 0.102695
C2    C     C_R   0.072229 0.096065 0.448250 0.046094
C3    C     C_R   0.125760 0.934298 0.427934 -0.105215
C4    C     C_3   0.958358 0.272147 0.629379 0.337206
C5    C     C_R   0.027325 0.970065 0.466276 0.022479
C6    C     C_R   0.196090 0.866632 0.430144 -0.115913
C7    C     C_R   0.145253 0.825717 0.464975 -0.026250
C8    C     C_R   0.014399 0.853060 0.495710 0.009032
C9    C     C_R   0.959788 0.926633 0.498114 0.026291
C10   C     C_R   0.209589 0.755584 0.466670 -0.015755
C11   C     C_R   0.122306 0.708759 0.489851 -0.286312
C12   C     C_3   0.426474 0.311317 0.651854 0.340634
C13   C     C_R   0.985730 0.732545 0.517548 0.040302
C14   C     C_R   0.937888 0.806752 0.523522 -0.038141
C15   C     C_R   0.855488 0.073313 0.503054 0.007504
C16   C     C_3   0.994763 0.200668 0.647406 -0.316935
C17   C     C_R   0.799814 0.146855 0.505619 -0.000072
C18   C     C_R   0.876953 0.193514 0.478398 -0.048903
C19   C     C_R   0.006627 0.165941 0.448664 -0.045602
C20   C     C_R   0.815416 0.835985 0.555871 -0.035101
C21   C     C_R   0.766250 0.908197 0.559887 -0.086315
C22   C     C_R   0.835029 0.955097 0.530910 0.015221
C23   C     C_3   0.474950 0.314339 0.397992 0.308390
C24   C     C_R   0.780755 0.028429 0.532823 0.016097
C25   C     C_R   0.654291 0.058982 0.564168 -0.085087
C26   C     C_R   0.664382 0.173551 0.534759 -0.044579
C27   C     C_R   0.597535 0.129359 0.564820 -0.098095
C28   C     C_3   0.839602 0.621997 0.631579 0.300209
C29   C     C_R   0.600855 0.244048 0.533233 -0.013109
C30   C     C_R   0.687860 0.290855 0.510030 -0.290413
C31   C     C_R   0.826316 0.267526 0.483327 0.050748
C32   C     C_R   0.310140 0.449880 0.175709 0.586910
C33   C     C_R   0.158214 0.560966 0.173965 0.580185
C34   C     C_3   0.503048 0.234269 0.379734 -0.395290
C35   C     C_2   0.025056 0.520674 0.268984 -0.070771
C36   C     C_3   0.989789 0.516314 0.323194 -0.050515
C37   C     C_1   0.278430 0.491086 0.336441 0.011083
C38   C     C_2   0.313782 0.495133 0.289737 -0.095943
C39   C     C_2   0.179620 0.509004 0.252540 0.199504
C40   C     C_3   0.839870 0.639733 0.688613 -0.355619
C41   C     C_R   0.298547 0.503225 0.099109 -0.079783
C42   C     C_R   0.356639 0.448589 0.125897 -0.030954
C43   C     C_R   0.460411 0.393511 0.102507 -0.059513
C44   C     C_R   0.196316 0.559180 0.123169 -0.030190
C45   C     C_3   0.854309 0.721165 0.375660 0.355322
C46   C     C_2   0.144541 0.522097 0.355769 -0.290187
C47   C     C_2   0.648042 0.471910 0.637204 -0.297331
C48   C     C_R   0.489125 0.442892 0.973873 0.020210
C49   C     C_R   0.326002 0.555426 0.970590 0.020584
C50   C     C_R   0.428800 0.498165 0.947040 0.049431
C51   C     C_R   0.589426 0.386807 0.948422 -0.100288
C52   C     C_3   0.981709 0.366799 0.365458 0.298106
C53   C     C_R   0.625672 0.384181 0.898451 -0.045884
C54   C     C_R   0.567017 0.438062 0.871605 -0.028225
C55   C     C_R   0.471561 0.495933 0.895966 -0.081817
C56   C     C_3   0.845467 0.794863 0.359586 -0.356491
C57   C     C_R   0.418363 0.551249 0.869168 -0.033578
C58   C     C_R   0.466076 0.549084 0.819089 0.597211
C59   C     C_R   0.601112 0.434251 0.820567 0.578759
C60   C     C_2   0.738069 0.455579 0.724492 -0.076039
C61   C     C_3   0.750200 0.428009 0.669188 -0.047548
C62   C     C_1   0.518338 0.508647 0.656144 0.035803
C63   C     C_2   0.475413 0.510268 0.703430 -0.111197
C64   C     C_3   0.015494 0.335866 0.310956 -0.366604
C65   C     C_2   0.594759 0.485826 0.741673 0.173832
C66   C     C_R   0.447101 0.445041 0.024811 0.021818
C67   C     C_3   0.346089 0.693928 0.347782 0.290242
C68   C     C_R   0.342327 0.501697 0.048203 0.048565
C69   C     C_R   0.280701 0.556704 0.021303 0.020609
C70   C     C_R   0.505664 0.391911 0.053394 -0.097962
C71   C     C_R   0.134914 0.612482 0.096111 -0.059989
C72   C     C_R   0.272637 0.609668 0.942275 -0.098641
C73   C     C_R   0.319033 0.607817 0.893023 -0.057437
C74   C     C_R   0.174965 0.611159 0.046362 -0.099364
C75   C     C_3   0.333085 0.685101 0.591202 0.312344
C76   C     C_3   0.338803 0.766538 0.606208 -0.374848
C77   C     C_3   0.247319 0.085595 0.430485 -0.190520
C78   C     C_3   0.380899 0.704656 0.294736 -0.349551
C79   C     C_3   0.365825 0.063458 0.470545 -0.379752
C80   C     C_R   0.986102 0.045612 0.471467 0.007559
H1    H     H_    0.362987 0.364586 0.652939 0.040331
H2    H     H_    0.205359 0.669645 0.582528 0.001594
H3    H     H_    0.406710 0.669144 0.557414 0.070543
H4    H     H_    0.289122 0.275889 0.710039 0.116967
H5    H     H_    0.260955 0.784561 0.638805 0.130996
H6    H     H_    0.293956 0.793348 0.574456 0.058239
H7    H     H_    0.466221 0.782775 0.616542 0.123576
H8    H     H_    0.556904 0.316047 0.644288 -0.045751
H9    H     H_    0.455207 0.333658 0.732681 0.081753
H10   H     H_    0.594287 0.337958 0.411133 0.025500
H11   H     H_    0.391669 0.321148 0.429856 0.058335
H12   H     H_    0.749663 0.683940 0.700418 0.135723
H13   H     H_    0.594090 0.226018 0.349908 0.138468
H14   H     H_    0.549540 0.207495 0.411396 0.052019
H15   H     H_    0.386869 0.209564 0.364206 0.114694
H16   H     H_    0.924710 0.157431 0.623470 0.088570
H17   H     H_    0.748328 0.717014 0.398999 0.117858
H18   H     H_    0.968022 0.716306 0.398431 -0.043435
H19   H     H_    0.835623 0.837479 0.393228 0.081371
H20   H     H_    0.957064 0.803106 0.339532 0.113350
H21   H     H_    0.736395 0.799218 0.334267 0.141153
H22   H     H_    0.216665 0.709806 0.355067 -0.016609
H23   H     H_    0.807534 0.591757 0.704491 0.066911
H24   H     H_    0.366663 0.636025 0.349995 0.063088
H25   H     H_    0.299277 0.670785 0.267375 0.122964
H26   H     H_    0.509579 0.688787 0.286278 0.149419
H27   H     H_    0.999839 0.267865 0.590278 0.070496
H28   H     H_    0.359368 0.762061 0.290880 0.115299
H29   H     H_    0.164889 0.653412 0.487910 0.068991
H30   H     H_    0.280477 0.844852 0.401679 0.108320
H31   H     H_    0.065152 0.200293 0.426991 0.097592
H32   H     H_    0.756639 0.803684 0.579058 0.094522
H33   H     H_    0.498260 0.147995 0.588873 0.143958
H34   H     H_    0.963087 0.656687 0.703690 0.137047
H35   H     H_    0.643079 0.345709 0.510844 0.071790
H36   H     H_    0.146763 0.956777 0.394995 0.078063
H37   H     H_    0.671907 0.924981 0.586069 0.067647
H38   H     H_    0.823957 0.281362 0.629484 -0.027699
H39   H     H_    0.592803 0.029683 0.588421 0.091144
H40   H     H_    0.439058 0.488096 0.278207 0.123939
H41   H     H_    0.508684 0.351141 0.122334 0.122820
H42   H     H_    0.834785 0.441166 0.749947 0.128378
H43   H     H_    0.701848 0.339474 0.880921 0.136784
H44   H     H_    0.641635 0.343058 0.965593 0.073560
H45   H     H_    0.096670 0.386479 0.384890 0.024031
H46   H     H_    0.587381 0.347727 0.039204 0.071229
H47   H     H_    0.923731 0.527045 0.242755 0.107134
H48   H     H_    0.054110 0.655737 0.113316 0.122024
H49   H     H_    0.195518 0.655145 0.957076 0.070819
H50   H     H_    0.126726 0.186210 0.645060 0.152899
H51   H     H_    0.274774 0.651004 0.873403 0.123661
H52   H     H_    0.352073 0.526639 0.714013 0.145229
H53   H     H_    0.119717 0.653972 0.028682 0.069831
H54   H     H_    0.144440 0.548427 0.394757 0.070624
H55   H     H_    0.661152 0.459432 0.596849 0.085748
H56   H     H_    0.890109 0.411609 0.366911 0.037280
H57   H     H_    0.958801 0.204357 0.687036 0.167845
H58   H     H_    0.715580 0.607198 0.617092 0.010965
H59   H     H_    0.925823 0.575929 0.620854 0.079802
H60   H     H_    0.339838 0.096969 0.507300 0.150455
H61   H     H_    0.357385 0.006168 0.474352 0.135221
H62   H     H_    0.492623 0.071873 0.460421 0.119823
H63   H     H_    0.259169 0.050905 0.393606 0.087586
H64   H     H_    0.293284 0.137515 0.423170 0.104376
H65   H     H_    0.096760 0.287182 0.309366 0.144706
H66   H     H_    0.076623 0.375496 0.292595 0.080338
H67   H     H_    0.899191 0.320821 0.289863 0.117889
N1    N     N_R   0.215147 0.506577 0.199818 -0.426457
N2    N     N_R   0.554761 0.490286 0.794616 -0.425037
O1    O     O_2   0.106080 0.324280 0.466820 -0.469530
O2    O     O_2   0.658790 0.562205 0.332505 -0.492220
O3    O     O_3   0.854133 0.667579 0.332796 -0.594572
O4    O     O_3   0.859130 0.413620 0.470620 -0.482982
O5    O     O_3   0.459240 0.537930 0.559910 -0.492758
O6    O     O_2   0.583120 0.462390 0.379940 -0.461999
O7    O     O_3   0.405355 0.346308 0.358355 -0.631868
O8    O     O_2   0.550639 0.758424 0.476676 -0.489257
O9    O     O_3   0.451182 0.736422 0.381998 -0.609596
O10   O     O_2   0.352941 0.399872 0.197465 -0.598893
O11   O     O_2   0.669871 0.379920 0.799038 -0.584194
O12   O     O_3   0.394446 0.652881 0.631461 -0.621128
O13   O     O_2   0.076169 0.611479 0.195302 -0.597100
O14   O     O_2   0.429966 0.600086 0.797646 -0.596108
O15   O     O_3   0.376230 0.370290 0.556910 -0.479056
O16   O     O_2   0.260888 0.242236 0.520258 -0.488812
O17   O     O_3   0.919358 0.312182 0.387412 -0.646533
O18   O     O_3   0.350682 0.260096 0.615206 -0.597702
O19   O     O_2   0.227190 0.537650 0.620070 -0.461768
O20   O     O_3   0.971110 0.406970 0.583250 -0.481289
O21   O     O_2   0.080902 0.467179 0.674760 -0.498288
O22   O     O_3   0.040655 0.327615 0.661273 -0.589824
O23   O     O_2   0.704230 0.675760 0.533200 -0.469135
O24   O     O_3   0.951180 0.586390 0.529420 -0.489901
O25   O     O_3   0.434080 0.629720 0.443130 -0.470622
O26   O     O_3   0.886289 0.682897 0.612936 -0.638984
O27   O     O_3   0.351080 0.462080 0.440130 -0.477200
O28   O     O_3   0.839200 0.593040 0.416790 -0.488503
P1    P     P_3+3 0.929380 0.335110 0.452880 0.974019
P2    P     P_3+3 0.398530 0.559060 0.613740 0.997026
P3    P     P_3+3 0.962006 0.410046 0.647862 0.953261
P4    P     P_3+3 0.880940 0.664900 0.547160 0.975464
P5    P     P_3+3 0.834005 0.583342 0.351101 0.974703
P6    P     P_3+3 0.397912 0.277677 0.556023 0.941562
P7    P     P_3+3 0.400399 0.439878 0.376980 0.961637
P8    P     P_3+3 0.410568 0.721930 0.442526 0.930806

loop_
_geom_bond_atom_site_label_1
_geom_bond_atom_site_label_2
_ccdc_geom_bond_type
C23   H11   S    
C63   C65   S    
Ba1   O24   S    
C75   O12   S    
C50   C55   A    
C46   H54   S    
C64   H66   S    
C5    C80   A    
C47   C61   S    
C38   C39   S    
C28   C40   S    
O19   P2    D    
C49   C72   A    
O6    P7    D    
C3    C6    A    
C34   H14   S    
C54   C59   A    
C1    H4    S    
C27   H33   S    
C42   C43   A    
C72   H49   S    
C11   H29   S    
C69   C74   A    
O25   P8    S    
Ba2   O28   S    
C33   C44   A    
C49   C69   A    
C56   H21   S    
C35   H47   S    
C58   O14   D    
C26   C29   A    
C67   H24   S    
C35   C36   S    
C2    C80   A    
C25   H39   S    
O27   P7    S    
Ba1   O15   S    
C55   C57   A    
C37   C46   D    
C4    O22   S    
C52   H56   S    
C53   C54   A    
C41   C68   A    
Ba1   Ba2   S    
O7    P7    S    
C66   C68   A    
C67   C78   S    
C76   H5    S    
C76   H7    S    
C10   C11   A    
Ba2   O24   S    
C61   P3    S    
C77   H64   S    
C2    C19   A    
C78   H28   S    
C16   H57   S    
C71   C74   A    
C40   H12   S    
C20   C21   A    
C66   C70   A    
C74   H53   S    
C53   H43   S    
C6    C7    A    
C41   C44   A    
Ba2   O6    S    
C17   C26   A    
C75   H3    S    
C23   H10   S    
C77   H63   S    
C78   H25   S    
C30   H35   S    
C10   P8    S    
C71   H48   S    
C64   H67   S    
C13   P4    S    
C43   H41   S    
C32   N1    Am   
C4    H38   S    
C34   H15   S    
C47   C62   D    
C15   C80   A    
C51   C53   A    
C62   P2    S    
C45   H17   S    
O2    P5    D    
C70   H46   S    
C21   H37   S    
C32   O10   D    
O16   P6    D    
C15   C24   A    
C28   O26   S    
O21   P3    D    
C21   C22   A    
C77   C79   S    
O3    P5    S    
C37   P7    S    
C73   H51   S    
C75   C76   S    
C13   C14   A    
C3    C5    A    
C18   C31   A    
O15   P6    S    
C20   H32   S    
Ba1   P1    S    
Ba1   O19   S    
C60   C61   S    
C12   O18   S    
C57   C58   A    
C48   C50   A    
C40   H23   S    
C28   H58   S    
Ba1   O4    S    
C72   C73   A    
C26   C27   A    
C65   N2    S    
Ba2   O23   S    
C59   O11   D    
C5    C9    A    
O18   P6    S    
C16   H16   S    
C30   C31   A    
C23   O7    S    
C23   C34   S    
C14   C20   A    
C52   H45   S    
C2    C77   S    
Ba1   O1    S    
C39   N1    S    
O17   P1    S    
C60   H42   S    
C59   N2    Am   
C40   H34   S    
C16   H50   S    
C75   H2    S    
C79   H61   S    
C37   C38   D    
Ba2   O25   S    
C45   O3    S    
O1    P1    D    
C4    C16   S    
C11   C13   A    
C22   C24   A    
Ba2   O27   S    
O8    P8    D    
Br1   C1    S    
C32   C42   A    
C67   O9    S    
C3    H36   S    
C64   H65   S    
C79   H62   S    
C49   C50   A    
C45   C56   S    
O24   P4    S    
C60   C65   D    
C8    C14   A    
Ba2   O4    S    
C36   C46   S    
C56   H19   S    
C41   C42   A    
C44   C71   A    
C78   H26   S    
C79   H60   S    
C7    C10   A    
O22   P3    S    
C52   C64   S    
Ba1   P2    S    
C47   H55   S    
C33   N1    Am   
C35   C39   D    
C12   H1    S    
O9    P8    S    
C51   H44   S    
Ba1   O20   S    
C67   H22   S    
C4    H27   S    
C29   P6    S    
C9    C22   A    
C48   C51   A    
C56   H20   S    
C29   C30   A    
C38   H40   S    
C28   H59   S    
Ba1   O5    S    
C6    H30   S    
C68   C69   A    
O4    P1    S    
C31   P1    S    
Ba1   O27   S    
O20   P3    S    
C54   C55   A    
C1    C12   S    
Ba2   O5    S    
C45   H18   S    
C25   C27   A    
C33   O13   D    
C57   C73   A    
Ba2   P4    S    
C15   C17   A    
C58   N2    Am   
C76   H6    S    
O12   P2    S    
C7    C8    A    
C12   H8    S    
C63   H52   S    
C36   P5    S    
C19   H31   S    
C17   C18   A    
C34   H13   S    
C62   C63   D    
O5    P2    S    
O28   P5    S    
C24   C25   A    
C48   C66   A    
C18   C19   A    
C52   O17   S    
C43   C70   A    
O26   P4    S    
C8    C9    A    
O23   P4    D    
C1    H9    S    
