data_mof_unit_2145.cif
_audit_creation_date              2012-12-11T16:06:29-0500
_audit_creation_method            fapswitch 2.2
_symmetry_space_group_name_H-M    P1
_symmetry_Int_Tables_number       1
_space_group_crystal_system       triclinic
_cell_length_a                    7.199139
_cell_length_b                    14.391733
_cell_length_c                    15.87461
_cell_angle_alpha                 90.000011
_cell_angle_beta                  90.000065
_cell_angle_gamma                 89.999985
_cell_volume                      1644.73796314

loop_
_atom_site_label
_atom_site_type_symbol
_atom_type_description
_atom_site_fract_x
_atom_site_fract_y
_atom_site_fract_z
_atom_type_partial_charge
O1    O     O_R   0.388780 0.834790 0.412340 -0.540489
O2    O     O_R   0.111220 0.165210 0.912340 -0.540488
O3    O     O_R   0.888780 0.665210 0.587660 -0.540489
O4    O     O_R   0.611220 0.334790 0.087660 -0.540489
O5    O     O_R   0.059040 0.845930 0.587040 -0.542498
O6    O     O_R   0.440960 0.154070 0.087040 -0.542498
O7    O     O_R   0.559040 0.654070 0.412960 -0.542498
O8    O     O_R   0.940960 0.345930 0.912960 -0.542498
C1    C     C_R   0.227945 0.868022 0.615251 0.660966
C2    C     C_R   0.272055 0.131978 0.115251 0.660966
C3    C     C_R   0.727945 0.631978 0.384749 0.660967
C4    C     C_R   0.772055 0.368022 0.884749 0.660967
O9    O     O_R   0.059070 0.845930 0.412970 -0.542603
O10   O     O_R   0.440930 0.154070 0.912970 -0.542603
O11   O     O_R   0.559070 0.654070 0.587030 -0.542602
O12   O     O_R   0.940930 0.345930 0.087030 -0.542602
O13   O     O_R   0.888760 0.665210 0.412340 -0.535971
O14   O     O_R   0.611240 0.334790 0.912340 -0.535971
O15   O     O_R   0.388760 0.834790 0.587660 -0.535970
O16   O     O_R   0.111240 0.165210 0.087660 -0.535970
C5    C     C_R   0.227708 0.868022 0.384783 0.699801
C6    C     C_R   0.272292 0.131978 0.884783 0.699801
C7    C     C_R   0.727708 0.631978 0.615216 0.699801
C8    C     C_R   0.772292 0.368022 0.115216 0.699800
O17   O     O_3   0.222280 0.690700 0.500000 -0.374957
O18   O     O_3   0.277720 0.309300 0.000000 -0.374957
O19   O     O_3   0.722280 0.809300 0.500000 -0.374957
O20   O     O_3   0.777720 0.190700 0.000000 -0.374957
V1    V     V_3+5 0.947430 0.761000 0.500000 1.381089
V2    V     V_3+5 0.552570 0.239000 0.000000 1.381088
V3    V     V_3+5 0.447430 0.739000 0.500000 1.381090
V4    V     V_3+5 0.052570 0.261000 0.000000 1.381091
C9    C     C_3   0.834016 0.607510 0.766502 0.105359
C10   C     C_3   0.665988 0.392490 0.266503 0.105359
C11   C     C_3   0.334020 0.892491 0.233498 0.105359
C12   C     C_3   0.165978 0.107509 0.733499 0.105359
H1    H     H_    0.976935 0.628431 0.747119 0.089919
H2    H     H_    0.523070 0.371566 0.247120 0.089918
H3    H     H_    0.476939 0.871570 0.252883 0.089919
H4    H     H_    0.023058 0.128428 0.752884 0.089919
C13   C     C_3   0.855299 0.533991 0.839410 0.058333
C14   C     C_3   0.644704 0.466009 0.339411 0.058333
C15   C     C_3   0.355303 0.966010 0.160590 0.058333
C16   C     C_3   0.144696 0.033990 0.660590 0.058333
H5    H     H_    0.007173 0.520165 0.845768 0.101650
H6    H     H_    0.492829 0.479833 0.345769 0.101650
H7    H     H_    0.507177 0.979836 0.154233 0.101651
H8    H     H_    0.992822 0.020163 0.654234 0.101651
H9    H     H_    0.998904 0.497558 0.644981 0.149283
H10   H     H_    0.501092 0.502440 0.144982 0.149283
H11   H     H_    0.498901 0.002444 0.355021 0.149282
H12   H     H_    0.001101 0.997555 0.855022 0.149282
H13   H     H_    0.011159 0.387901 0.749449 0.154598
H14   H     H_    0.488839 0.612097 0.249450 0.154598
H15   H     H_    0.511155 0.112100 0.250552 0.154595
H16   H     H_    0.988847 0.887899 0.750553 0.154596
C17   C     C_3   0.855146 0.476068 0.661856 -0.415272
C18   C     C_3   0.644850 0.523931 0.161857 -0.415271
C19   C     C_3   0.355142 0.023933 0.338144 -0.415271
C20   C     C_3   0.144859 0.976067 0.838144 -0.415272
C21   C     C_3   0.542494 0.526731 0.713148 -0.328792
C22   C     C_3   0.957505 0.473271 0.213146 -0.328793
C23   C     C_3   0.042494 0.973267 0.286851 -0.328793
C24   C     C_3   0.457506 0.026734 0.786850 -0.328792
C25   C     C_3   0.738470 0.562630 0.687761 0.079716
C26   C     C_3   0.761530 0.437370 0.187760 0.079717
C27   C     C_3   0.238470 0.937370 0.312239 0.079717
C28   C     C_3   0.261530 0.062630 0.812239 0.079717
H17   H     H_    0.476951 0.491281 0.658331 0.143976
H18   H     H_    0.023045 0.508722 0.158329 0.143976
H19   H     H_    0.976947 0.008717 0.341667 0.143976
H20   H     H_    0.523054 0.991285 0.841666 0.143976
H21   H     H_    0.449044 0.585208 0.730346 0.143449
H22   H     H_    0.050959 0.414795 0.230344 0.143450
H23   H     H_    0.949046 0.914790 0.269651 0.143449
H24   H     H_    0.550953 0.085212 0.769650 0.143448
C29   C     C_3   0.760716 0.439755 0.814079 0.054755
C30   C     C_3   0.739284 0.560245 0.314078 0.054755
C31   C     C_3   0.260716 0.060245 0.185921 0.054755
C32   C     C_3   0.239284 0.939755 0.685921 0.054755
C33   C     C_3   0.863374 0.403418 0.734395 -0.379236
C34   C     C_3   0.636623 0.596582 0.234395 -0.379236
C35   C     C_3   0.363370 0.096583 0.265606 -0.379235
C36   C     C_3   0.136632 0.903417 0.765606 -0.379235
C37   C     C_3   0.554833 0.457732 0.787278 -0.317135
C38   C     C_3   0.945166 0.542270 0.287277 -0.317135
C39   C     C_3   0.054833 0.042267 0.212720 -0.317134
C40   C     C_3   0.445167 0.957734 0.712720 -0.317135
H25   H     H_    0.470864 0.484167 0.840821 0.135508
H26   H     H_    0.029138 0.515835 0.340819 0.135509
H27   H     H_    0.970866 0.015831 0.159177 0.135508
H28   H     H_    0.529133 0.984170 0.659176 0.135508
H29   H     H_    0.489279 0.391057 0.767655 0.161805
H30   H     H_    0.010719 0.608945 0.267654 0.161805
H31   H     H_    0.989276 0.108941 0.232343 0.161806
H32   H     H_    0.510726 0.891060 0.732342 0.161806
H33   H     H_    0.793705 0.443061 0.605043 0.157759
H34   H     H_    0.706288 0.556938 0.105042 0.157758
H35   H     H_    0.293698 0.056939 0.394958 0.157758
H36   H     H_    0.206306 0.943061 0.894957 0.157758
H37   H     H_    0.799148 0.337140 0.712983 0.152362
H38   H     H_    0.700848 0.662860 0.212983 0.152362
H39   H     H_    0.299142 0.162860 0.287016 0.152362
H40   H     H_    0.200862 0.837140 0.787016 0.152362
N1    N     N_3   0.737588 0.692908 0.792428 -0.693827
H41   H     H_    0.610664 0.677261 0.820935 0.245206
H42   H     H_    0.819455 0.727679 0.836812 0.250189
N2    N     N_3   0.762422 0.307093 0.292428 -0.693827
H43   H     H_    0.889345 0.322742 0.320935 0.245207
H44   H     H_    0.680557 0.272321 0.336812 0.250189
N3    N     N_3   0.237595 0.807092 0.207572 -0.693828
H45   H     H_    0.110672 0.822738 0.179064 0.245207
H46   H     H_    0.319465 0.772321 0.163189 0.250189
N4    N     N_3   0.262400 0.192909 0.707572 -0.693828
H47   H     H_    0.389323 0.177264 0.679064 0.245206
H48   H     H_    0.180529 0.227679 0.663189 0.250189
N5    N     N_3   0.792697 0.569693 0.921427 -0.688890
H49   H     H_    0.850519 0.528782 0.969121 0.209046
H50   H     H_    0.648678 0.564946 0.927153 0.224899
N6    N     N_3   0.707307 0.430308 0.421427 -0.688890
H51   H     H_    0.649482 0.471217 0.469121 0.209046
H52   H     H_    0.851326 0.435057 0.427153 0.224899
N7    N     N_3   0.292705 0.930307 0.078573 -0.688890
H53   H     H_    0.350528 0.971218 0.030880 0.209047
H54   H     H_    0.148686 0.935053 0.072846 0.224899
N8    N     N_3   0.207292 0.069693 0.578573 -0.688890
H55   H     H_    0.149471 0.028782 0.530880 0.209047
H56   H     H_    0.351311 0.064948 0.572847 0.224899

loop_
_geom_bond_atom_site_label_1
_geom_bond_atom_site_label_2
_ccdc_geom_bond_type
O17   V3    S    
C40   H32   S    
O1    C5    A    
N8    H55   S    
C39   H27   S    
O19   V1    S    
C19   H35   S    
O3    C7    A    
N3    H45   S    
C10   C14   S    
C32   C36   S    
O15   V3    S    
C10   C26   S    
C31   C39   S    
N4    H47   S    
C9    C25   S    
N7    H53   S    
C33   H37   S    
O7    C3    A    
N1    H42   S    
C16   N8    S    
C35   H39   S    
C24   C28   S    
O2    V4    S    
C19   C35   S    
N5    H50   S    
C13   C29   S    
O4    C8    A    
N7    H54   S    
C15   C31   S    
O1    V3    S    
O13   V1    S    
N2    H43   S    
C22   H18   S    
H13   C33   S    
C14   H6    S    
O3    V1    S    
C38   H30   S    
C19   C27   S    
C37   H29   S    
C18   C26   S    
C40   H28   S    
C2    O16   A    
C39   H31   S    
O2    C6    A    
O14   V2    S    
C29   C33   S    
C11   C15   S    
C8    C26   S    
C30   C38   S    
O11   C7    A    
C12   N4    S    
O12   C8    A    
C5    C27   S    
O10   V2    S    
C1    O15   A    
H16   C36   S    
O5    V1    S    
C34   H38   S    
C23   C27   S    
O7    V3    S    
C22   C26   S    
H10   C18   S    
C12   H4    S    
C9    N1    S    
C9    C13   S    
C38   H26   S    
C37   H25   S    
O18   V4    S    
C21   H21   S    
C9    H1    S    
C1    C32   S    
O8    V4    S    
C11   H3    S    
O5    C1    A    
C3    C30   S    
C22   C38   S    
C30   C34   S    
C16   C32   S    
O8    C4    A    
C17   H33   S    
C4    C29   S    
C24   H24   S    
O9    C5    A    
N3    H46   S    
C6    C28   S    
C21   C37   S    
O6    V2    S    
C23   H19   S    
C14   C30   S    
C36   H40   S    
C17   C33   S    
C12   C16   S    
H11   C19   S    
H15   C35   S    
C15   N7    S    
H14   C34   S    
C11   N3    S    
N6    H51   S    
N6    H52   S    
O16   V4    S    
O9    V1    S    
C3    O13   A    
N8    H56   S    
C23   C39   S    
C10   H2    S    
C17   C25   S    
C20   H36   S    
O6    C2    A    
H9    C17   S    
N4    H48   S    
C2    C31   S    
C12   C28   S    
O11   V3    S    
C18   H34   S    
O12   V4    S    
N1    H41   S    
C21   H17   S    
C7    C25   S    
C18   C34   S    
C10   N2    S    
C32   C40   S    
N5    H49   S    
C31   C35   S    
C20   C36   S    
O10   C6    A    
C23   H23   S    
O20   V2    S    
N2    H44   S    
C24   H20   S    
C11   C27   S    
C29   C37   S    
C21   C25   S    
C20   C28   S    
H12   C20   S    
C4    O14   A    
C14   N6    S    
C13   H5    S    
C22   H22   S    
C13   N5    S    
C15   H7    S    
C24   C40   S    
O4    V2    S    
C16   H8    S    
