data_mof_unit_90.cif
_audit_creation_date              2012-12-10T17:03:43-0500
_audit_creation_method            fapswitch 2.2
_symmetry_space_group_name_H-M    P1
_symmetry_Int_Tables_number       1
_space_group_crystal_system       triclinic
_cell_length_a                    10.054783
_cell_length_b                    10.747348
_cell_length_c                    13.103916
_cell_angle_alpha                 90.026739
_cell_angle_beta                  68.976746
_cell_angle_gamma                 89.886244
_cell_volume                      1321.77626124

loop_
_atom_site_label
_atom_site_type_symbol
_atom_type_description
_atom_site_fract_x
_atom_site_fract_y
_atom_site_fract_z
_atom_type_partial_charge
C1    C     C_R   0.500901 0.737255 0.498244 0.928546
C2    C     C_R   0.435468 0.509709 0.985372 0.079962
C3    C     C_R   0.456657 0.550495 0.878678 0.090699
C4    C     C_R   0.544921 0.529645 0.027740 0.097986
C5    C     C_R   0.663327 0.605945 0.970904 0.167468
C6    C     C_R   0.673276 0.658961 0.871529 -0.249226
C7    C     C_R   0.570852 0.632543 0.826370 -0.173387
C8    C     C_R   0.538987 0.476346 0.126119 -0.232701
C9    C     C_R   0.748646 0.589216 0.121512 -0.180719
C10   C     C_R   0.364220 0.507589 0.826269 -0.220734
C11   C     C_2   0.611410 0.066677 0.502255 -0.148218
C12   C     C_R   0.419229 0.503706 0.705381 0.866150
C13   C     C_2   0.493261 0.131429 0.514643 -0.319134
C14   C     C_2   0.607527 0.932781 0.508852 -0.161814
C15   C     C_2   0.505135 0.868918 0.489622 -0.313406
C16   C     C_2   0.095143 0.415677 0.452439 -0.182598
C17   C     C_2   0.939710 0.405783 0.468166 -0.151482
C18   C     C_R   0.498787 0.262808 0.502896 0.937746
C19   C     C_R   0.580125 0.500272 0.295356 0.859885
C20   C     C_R   0.767088 0.631777 0.016700 -0.192730
C21   C     C_R   0.630778 0.515038 0.177420 -0.044384
C22   C     C_R   0.232231 0.450884 0.889414 -0.056498
C23   C     C_R   0.202053 0.428578 0.001299 0.031045
C24   C     C_R   0.304040 0.454189 0.047239 -0.271685
H1    H     H_    0.821120 0.619649 0.160803 0.156737
H2    H     H_    0.388949 0.089167 0.536435 0.161463
H3    H     H_    0.692033 0.886628 0.527926 0.174492
H4    H     H_    0.424392 0.911964 0.464333 0.156839
H5    H     H_    0.167244 0.349096 0.397689 0.161853
H6    H     H_    0.901086 0.318117 0.448738 0.172213
H7    H     H_    0.896165 0.585396 0.497517 0.170600
H8    H     H_    0.760391 0.720785 0.828499 0.166564
H9    H     H_    0.857442 0.690628 0.974318 0.147778
H10   H     H_    0.458040 0.409564 0.168517 0.143144
H11   H     H_    0.274759 0.435381 0.133454 0.141679
H12   H     H_    0.580761 0.678856 0.750684 0.165962
H13   H     H_    0.713197 0.111883 0.487522 0.170818
N1    N     N_2   0.148270 0.498670 0.498870 -0.121724
N2    N     N_2   0.852610 0.498640 0.498840 -0.197916
O1    O     O_R   0.386950 0.680940 0.500020 -0.559919
O2    O     O_R   0.613110 0.680900 0.499980 -0.632825
O3    O     O_R   0.330780 0.500000 0.653640 -0.605237
O4    O     O_R   0.556930 0.499960 0.653610 -0.596210
O5    O     O_R   0.386890 0.319100 0.500020 -0.621330
O6    O     O_R   0.613050 0.319060 0.499980 -0.610321
O7    O     O_R   0.443070 0.500040 0.346390 -0.614224
O8    O     O_R   0.669220 0.500000 0.346360 -0.602347
Zn1   Zn    Zn3+2 0.349000 0.500030 0.500020 0.993180
Zn2   Zn    Zn3+2 0.651000 0.499970 0.499980 0.946790
C25   C     C_2   0.057943 0.555409 0.598049 0.534420
H14   H     H_    0.957087 0.514075 0.648100 0.027421
O9    O     O_2   0.095916 0.650509 0.630348 -0.585700
C26   C     C_2   0.124871 0.416271 0.840807 0.414525
H15   H     H_    0.094380 0.482334 0.790888 0.098670
O10   O     O_2   0.068456 0.314022 0.857404 -0.558642
C27   C     C_1   0.066597 0.378622 0.071626 0.227020
N3    N     N_1   0.958397 0.338670 0.128044 -0.186542

loop_
_geom_bond_atom_site_label_1
_geom_bond_atom_site_label_2
_ccdc_geom_bond_type
C25   O9    D    
C23   C24   A    
C6    C7    A    
N1    C25   S    
C18   O5    A    
C14   H3    S    
C12   O4    A    
C7    H12   S    
C9    C20   A    
N1    Zn1   S    
O6    Zn2   S    
C4    C8    A    
C25   H14   S    
C19   O7    A    
C9    H1    S    
C23   C27   S    
O8    Zn2   S    
C3    C10   A    
C8    H10   S    
C26   H15   S    
C10   C22   A    
C17   H6    S    
C11   C13   D    
C9    C21   A    
C15   H4    S    
C16   C17   S    
C10   C12   S    
C13   C18   S    
C1    C15   S    
C20   H9    S    
O2    Zn2   S    
C19   C21   S    
H7    N2    S    
C2    C3    A    
C22   C26   S    
C3    C7    A    
C26   O10   D    
C2    C24   A    
C5    C6    A    
C11   C14   S    
O7    Zn1   S    
C13   H2    S    
C24   H11   S    
C12   O3    A    
C2    C4    A    
C18   O6    A    
C27   N3    T    
C11   H13   S    
C6    H8    S    
C17   N2    D    
C19   O8    A    
C1    O2    A    
C5    C20   A    
O1    Zn1   S    
C14   C15   D    
O4    Zn2   S    
O3    Zn1   S    
C1    O1    A    
N2    Zn2   S    
C16   H5    S    
C22   C23   A    
O5    Zn1   S    
C16   N1    D    
C4    C5    A    
C8    C21   A    
