data_mof_unit_4985.cif
_audit_creation_date              2012-12-10T19:12:17-0500
_audit_creation_method            fapswitch 2.2
_symmetry_space_group_name_H-M    P1
_symmetry_Int_Tables_number       1
_space_group_crystal_system       triclinic
_cell_length_a                    7.794243
_cell_length_b                    9.082325
_cell_length_c                    17.028011
_cell_angle_alpha                 89.568139
_cell_angle_beta                  94.187956
_cell_angle_gamma                 90.097165
_cell_volume                      1202.15674315

loop_
_atom_site_label
_atom_site_type_symbol
_atom_type_description
_atom_site_fract_x
_atom_site_fract_y
_atom_site_fract_z
_atom_type_partial_charge
C1    C     C_R   0.499886 0.220073 0.499939 0.828710
C2    C     C_R   0.500114 0.779927 0.500061 0.828720
C3    C     C_R   0.521583 0.497334 0.650994 0.883155
C4    C     C_R   0.478418 0.502664 0.349007 0.883168
C5    C     C_R   0.535327 0.490863 0.736857 -0.191130
C6    C     C_R   0.464679 0.509086 0.263144 -0.191172
C7    C     C_R   0.504288 0.618613 0.780278 -0.041265
C8    C     C_R   0.495977 0.381361 0.219747 -0.041256
C9    C     C_R   0.512082 0.609865 0.862677 0.579484
C10   C     C_R   0.488227 0.390076 0.137348 0.579424
C11   C     C_R   0.548162 0.474283 0.901471 0.068022
C12   C     C_R   0.451913 0.525595 0.098527 0.068100
C13   C     C_R   0.585365 0.350062 0.857969 0.597399
C14   C     C_R   0.414442 0.649774 0.142006 0.597395
C15   C     C_R   0.578173 0.356362 0.775568 -0.050571
C16   C     C_R   0.421600 0.643517 0.224406 -0.050606
C17   C     C_1   0.499875 0.065402 0.499977 -0.172863
C18   C     C_1   0.500125 0.934598 0.500023 -0.172854
Cu1   Cu    Cu3+1 0.669080 0.500010 0.500000 1.004649
Cu2   Cu    Cu3+1 0.330920 0.499990 0.500000 1.004651
N1    N     N_1   0.076820 0.499970 0.500010 -0.042568
N2    N     N_1   0.923180 0.500030 0.499990 -0.042568
N3    N     N_2   0.551164 0.458506 0.984424 -0.059122
N4    N     N_2   0.448925 0.541355 0.015572 -0.059222
O1    O     O_R   0.642760 0.288400 0.500000 -0.580775
O2    O     O_R   0.357240 0.711600 0.500000 -0.580771
O3    O     O_R   0.357190 0.288380 0.500000 -0.576472
O4    O     O_R   0.642810 0.711620 0.500000 -0.576472
O5    O     O_R   0.658410 0.498660 0.613920 -0.579087
O6    O     O_R   0.341590 0.501340 0.386080 -0.579101
O7    O     O_R   0.372840 0.498650 0.613930 -0.578837
O8    O     O_R   0.627160 0.501350 0.386070 -0.578854
C19   C     C_3   0.535481 0.236221 0.261240 -0.691507
H1    H     H_    0.428064 0.205505 0.297561 0.201343
H2    H     H_    0.553221 0.145028 0.219616 0.291332
H3    H     H_    0.655625 0.246198 0.300068 0.221759
C20   C     C_3   0.464989 0.763801 0.738806 -0.691631
H4    H     H_    0.572458 0.794421 0.702495 0.201426
H5    H     H_    0.344840 0.753946 0.699971 0.221706
H6    H     H_    0.447357 0.854989 0.780445 0.291368
F1    F     F_    0.512764 0.266561 0.094991 -0.561993
F2    F     F_    0.487819 0.733398 0.905061 -0.561946
F3    F     F_    0.623891 0.221578 0.896696 -0.559379
F4    F     F_    0.375680 0.778187 0.103254 -0.559433
C21   C     C_3   0.611980 0.219489 0.729158 -0.700864
H7    H     H_    0.640751 0.122050 0.767544 0.282357
H8    H     H_    0.497129 0.193011 0.689275 0.201297
H9    H     H_    0.723812 0.238058 0.693493 0.226952
C22   C     C_3   0.387515 0.780372 0.270785 -0.700680
H10   H     H_    0.358636 0.877768 0.232379 0.282397
H11   H     H_    0.275662 0.761694 0.306423 0.226992
H12   H     H_    0.502276 0.807004 0.310692 0.201195

loop_
_geom_bond_atom_site_label_1
_geom_bond_atom_site_label_2
_ccdc_geom_bond_type
C3    O7    A    
N3    N4    D    
C20   H4    S    
Cu2   O3    S    
C2    C18   S    
C11   C13   A    
C12   N4    S    
C1    C17   S    
Cu1   Cu2   S    
C22   H12   S    
C1    O3    A    
Cu1   N2    S    
C21   H8    S    
C19   H1    S    
C7    C20   S    
C2    O2    A    
Cu2   O6    S    
C21   H7    S    
Cu2   N1    S    
C10   F1    S    
C1    O1    A    
Cu1   O4    S    
C9    C11   A    
C9    F2    S    
C4    O8    A    
C10   C12   A    
Cu1   O8    S    
C14   F4    S    
C19   H2    S    
C12   C14   A    
C17   C18   T    
C20   H6    S    
C5    C7    A    
C8    C19   S    
C13   C15   A    
Cu1   O1    S    
C14   C16   A    
C5    C15   A    
C4    C6    S    
C2    O4    A    
C15   C21   S    
C6    C16   A    
Cu1   O5    S    
C7    C9    A    
C13   F3    S    
C19   H3    S    
C16   C22   S    
C20   H5    S    
C22   H10   S    
C21   H9    S    
C11   N3    S    
C3    O5    A    
C6    C8    A    
C3    C5    S    
N1    N2    T    
C8    C10   A    
C4    O6    A    
Cu2   O2    S    
C22   H11   S    
Cu2   O7    S    
