data_mof_unit_4764.cif
_audit_creation_date              2012-12-11T15:17:38-0500
_audit_creation_method            fapswitch 2.2
_symmetry_space_group_name_H-M    P1
_symmetry_Int_Tables_number       1
_space_group_crystal_system       triclinic
_cell_length_a                    7.061186
_cell_length_b                    19.931553
_cell_length_c                    22.432288
_cell_angle_alpha                 90.0
_cell_angle_beta                  90.000046
_cell_angle_gamma                 89.999953
_cell_volume                      3157.12925337

loop_
_atom_site_label
_atom_site_type_symbol
_atom_type_description
_atom_site_fract_x
_atom_site_fract_y
_atom_site_fract_z
_atom_type_partial_charge
O1    O     O_R   0.620180 0.810610 0.187990 -0.556095
O2    O     O_R   0.379820 0.189390 0.812010 -0.557409
O3    O     O_R   0.379820 0.189390 0.687990 -0.556096
O4    O     O_R   0.620180 0.810610 0.312010 -0.557409
O5    O     O_R   0.120180 0.689390 0.312010 -0.556095
O6    O     O_R   0.879820 0.310610 0.687990 -0.557409
O7    O     O_R   0.879820 0.310610 0.812010 -0.556094
O8    O     O_R   0.120180 0.689390 0.187990 -0.557409
O9    O     O_R   0.290420 0.818570 0.311590 -0.506703
O10   O     O_R   0.709580 0.181430 0.688410 -0.506575
O11   O     O_R   0.709580 0.181430 0.811590 -0.506704
O12   O     O_R   0.290420 0.818570 0.188410 -0.506575
O13   O     O_R   0.790420 0.681430 0.188410 -0.506703
O14   O     O_R   0.209580 0.318570 0.811590 -0.506577
O15   O     O_R   0.209580 0.318570 0.688410 -0.506703
O16   O     O_R   0.790420 0.681430 0.311590 -0.506576
C1    C     C_R   0.459148 0.834288 0.331984 0.717140
C2    C     C_R   0.540875 0.165792 0.667941 0.719611
C3    C     C_R   0.540852 0.165712 0.831984 0.717140
C4    C     C_R   0.459125 0.834208 0.167941 0.719614
C5    C     C_R   0.959148 0.665712 0.168016 0.717143
C6    C     C_R   0.040875 0.334208 0.832059 0.719618
C7    C     C_R   0.040852 0.334288 0.668016 0.717143
C8    C     C_R   0.959125 0.665792 0.332059 0.719613
H1    H     H_    0.795396 0.433902 0.655929 0.217464
H2    H     H_    0.203794 0.565913 0.344168 0.223016
H3    H     H_    0.204603 0.566098 0.155929 0.217464
H4    H     H_    0.796206 0.434086 0.844168 0.223020
H5    H     H_    0.295396 0.066098 0.844071 0.217464
H6    H     H_    0.703793 0.934087 0.155832 0.223015
H7    H     H_    0.704604 0.933902 0.344071 0.217464
H8    H     H_    0.296207 0.065913 0.655832 0.223011
H9    H     H_    0.603902 0.609835 0.522330 0.182699
H10   H     H_    0.397792 0.391126 0.478402 0.202951
H11   H     H_    0.396097 0.390165 0.022331 0.182703
H12   H     H_    0.602211 0.608875 0.978401 0.202950
H13   H     H_    0.103903 0.890165 0.977669 0.182699
H14   H     H_    0.897792 0.108873 0.021598 0.202951
H15   H     H_    0.896098 0.109834 0.477670 0.182697
H16   H     H_    0.102206 0.891128 0.521597 0.202952
O17   O     O_3   0.453640 0.707610 0.250000 -0.366082
O18   O     O_3   0.546360 0.292390 0.750000 -0.366082
O19   O     O_3   0.953640 0.792390 0.250000 -0.366082
O20   O     O_3   0.046360 0.207610 0.750000 -0.366082
V1    V     V_3+5 0.178800 0.757860 0.250000 1.582708
V2    V     V_3+5 0.821200 0.242140 0.750000 1.582709
V3    V     V_3+5 0.678800 0.742140 0.250000 1.582708
V4    V     V_3+5 0.321200 0.257860 0.750000 1.582707
C9    C     C_R   0.154487 0.377651 0.568427 0.474732
C10   C     C_R   0.845956 0.622815 0.431895 0.479411
C11   C     C_R   0.845513 0.622350 0.068426 0.474729
C12   C     C_R   0.154044 0.377185 0.931895 0.479413
C13   C     C_R   0.654487 0.122349 0.931573 0.474732
C14   C     C_R   0.345955 0.877185 0.068105 0.479414
C15   C     C_R   0.345513 0.877651 0.431573 0.474735
C16   C     C_R   0.654045 0.122815 0.568105 0.479412
C17   C     C_R   0.030356 0.382539 0.617736 -0.189474
C18   C     C_R   0.969690 0.617708 0.382482 -0.195976
C19   C     C_R   0.969643 0.617461 0.117736 -0.189473
C20   C     C_R   0.030310 0.382292 0.882482 -0.195985
C21   C     C_R   0.530357 0.117460 0.882264 -0.189474
C22   C     C_R   0.469690 0.882292 0.117518 -0.195974
C23   C     C_R   0.469643 0.882539 0.382264 -0.189475
C24   C     C_R   0.530310 0.117708 0.617518 -0.195968
C25   C     C_R   0.889052 0.431895 0.617912 -0.160788
C26   C     C_R   0.111138 0.568397 0.382407 -0.176968
C27   C     C_R   0.110947 0.568105 0.117912 -0.160791
C28   C     C_R   0.888862 0.431603 0.882407 -0.176978
C29   C     C_R   0.389053 0.068105 0.882088 -0.160793
C30   C     C_R   0.611138 0.931603 0.117593 -0.176968
C31   C     C_R   0.610947 0.931895 0.382088 -0.160791
C32   C     C_R   0.388862 0.068397 0.617593 -0.176958
C33   C     C_R   0.870630 0.478092 0.570662 0.012103
C34   C     C_R   0.130605 0.522676 0.429960 -0.030298
C35   C     C_R   0.129370 0.521908 0.070662 0.012102
C36   C     C_R   0.869396 0.477324 0.929960 -0.030315
C37   C     C_R   0.370631 0.021908 0.929338 0.012103
C38   C     C_R   0.630605 0.977324 0.070040 -0.030294
C39   C     C_R   0.629370 0.978092 0.429338 0.012103
C40   C     C_R   0.369394 0.022676 0.570040 -0.030278
C41   C     C_R   0.005308 0.476575 0.523752 0.001002
C42   C     C_R   0.995723 0.524147 0.476816 -0.025649
C43   C     C_R   0.994692 0.523425 0.023752 0.000996
C44   C     C_R   0.004277 0.475853 0.976816 -0.025711
C45   C     C_R   0.505309 0.023425 0.976248 0.001001
C46   C     C_R   0.495724 0.975853 0.023184 -0.025639
C47   C     C_R   0.494691 0.976575 0.476247 0.001005
C48   C     C_R   0.504276 0.024147 0.523184 -0.025588
C49   C     C_R   0.148953 0.427136 0.523405 0.011381
C50   C     C_R   0.851885 0.573515 0.477093 0.025413
C51   C     C_R   0.851048 0.572864 0.023405 0.011386
C52   C     C_R   0.148115 0.426485 0.977093 0.025381
C53   C     C_R   0.648953 0.072864 0.976594 0.011380
C54   C     C_R   0.351885 0.926485 0.022907 0.025415
C55   C     C_R   0.351046 0.927137 0.476594 0.011377
C56   C     C_R   0.648115 0.073515 0.522907 0.025441
C57   C     C_R   0.722794 0.526230 0.569152 0.403585
C58   C     C_R   0.279616 0.475014 0.431849 0.437175
C59   C     C_R   0.277205 0.473769 0.069153 0.403586
C60   C     C_R   0.720387 0.524987 0.931847 0.437167
C61   C     C_R   0.222795 0.973769 0.930847 0.403591
C62   C     C_R   0.779616 0.024986 0.068151 0.437177
C63   C     C_R   0.777206 0.026230 0.430848 0.403591
C64   C     C_R   0.220381 0.975015 0.568151 0.437184
C65   C     C_R   0.716672 0.573278 0.522866 -0.226598
C66   C     C_R   0.284836 0.427633 0.477853 -0.214090
C67   C     C_R   0.283327 0.426721 0.022867 -0.226601
C68   C     C_R   0.715166 0.572368 0.977852 -0.214098
C69   C     C_R   0.216672 0.926722 0.977133 -0.226599
C70   C     C_R   0.784837 0.072366 0.022147 -0.214090
C71   C     C_R   0.783328 0.073278 0.477134 -0.226598
C72   C     C_R   0.215162 0.927634 0.522146 -0.214084
S1    S     S_3+6 0.541646 0.529556 0.623923 0.032549
O21   O     O_2   0.457375 0.461033 0.632436 -0.317649
O22   O     O_2   0.625635 0.552336 0.682076 -0.277141
O23   O     O_3   0.367921 0.582699 0.603650 -0.494575
H17   H     H_    0.409955 0.627434 0.617606 0.351325
S2    S     S_3+6 0.464587 0.472879 0.378341 0.014365
O24   O     O_2   0.387905 0.445733 0.320714 -0.264252
O25   O     O_2   0.539429 0.542524 0.368169 -0.346511
O26   O     O_3   0.642669 0.423419 0.401944 -0.518885
H18   H     H_    0.751840 0.434997 0.376187 0.377819
S3    S     S_3+6 0.458352 0.470443 0.123924 0.032543
O27   O     O_2   0.542625 0.538967 0.132436 -0.317650
O28   O     O_2   0.374362 0.447664 0.182077 -0.277150
O29   O     O_3   0.632075 0.417300 0.103652 -0.494572
H19   H     H_    0.590039 0.372565 0.117607 0.351324
S4    S     S_3+6 0.535420 0.527123 0.878339 0.014392
O30   O     O_2   0.612110 0.554262 0.820710 -0.264205
O31   O     O_2   0.460567 0.457479 0.868171 -0.346543
O32   O     O_3   0.357349 0.576591 0.901936 -0.518863
H20   H     H_    0.248111 0.564956 0.876230 0.377794
S5    S     S_3+6 0.041648 0.970443 0.876076 0.032536
O33   O     O_2   0.957375 0.038967 0.867564 -0.317651
O34   O     O_2   0.125639 0.947664 0.817922 -0.277158
O35   O     O_3   0.867926 0.917300 0.896347 -0.494577
H21   H     H_    0.909963 0.872565 0.882392 0.351325
S6    S     S_3+6 0.964587 0.027121 0.121659 0.014360
O36   O     O_2   0.887906 0.054267 0.179286 -0.264260
O37   O     O_2   0.039428 0.957476 0.131832 -0.346506
O38   O     O_3   0.142670 0.076579 0.098056 -0.518890
H22   H     H_    0.251829 0.065012 0.123821 0.377824
S7    S     S_3+6 0.958353 0.029556 0.376076 0.032538
O39   O     O_2   0.042624 0.961033 0.367564 -0.317650
O40   O     O_2   0.874364 0.052336 0.317923 -0.277153
O41   O     O_3   0.132077 0.082699 0.396349 -0.494580
H23   H     H_    0.090043 0.127434 0.382394 0.351324
S8    S     S_3+6 0.035408 0.972881 0.621657 0.014339
O42   O     O_2   0.112086 0.945729 0.679283 -0.264297
O43   O     O_2   0.960574 0.042526 0.631834 -0.346480
O44   O     O_3   0.857319 0.923427 0.598051 -0.518914
H24   H     H_    0.748218 0.934947 0.623856 0.377850
O45   O     O_3   0.280296 0.324263 0.563437 -0.571033
C73   C     C_3   0.179513 0.264050 0.551258 0.044076
H25   H     H_    0.028491 0.267293 0.561509 0.135859
H26   H     H_    0.230394 0.223428 0.580905 0.153285
C74   C     C_3   0.202475 0.242530 0.486299 -0.711642
H27   H     H_    0.341940 0.219323 0.478332 0.223221
H28   H     H_    0.095552 0.203815 0.475367 0.214834
H29   H     H_    0.183204 0.285942 0.455929 0.232418
O46   O     O_3   0.720007 0.676179 0.436769 -0.568254
C75   C     C_3   0.820613 0.736435 0.448925 0.033011
H30   H     H_    0.769673 0.777011 0.419240 0.151053
H31   H     H_    0.971597 0.733215 0.438653 0.137197
C76   C     C_3   0.797485 0.758031 0.513880 -0.691010
H32   H     H_    0.816813 0.714659 0.544289 0.228500
H33   H     H_    0.904143 0.796835 0.524894 0.235749
H34   H     H_    0.657872 0.781154 0.521771 0.218006
O47   O     O_3   0.719704 0.675737 0.063436 -0.571034
C77   C     C_3   0.820487 0.735950 0.051258 0.044070
H35   H     H_    0.971509 0.732707 0.061509 0.135858
H36   H     H_    0.769605 0.776572 0.080906 0.153287
C78   C     C_3   0.797525 0.757470 0.986299 -0.711630
H37   H     H_    0.658060 0.780677 0.978332 0.223222
H38   H     H_    0.904447 0.796186 0.975368 0.214834
H39   H     H_    0.816796 0.714058 0.955928 0.232422
O48   O     O_3   0.279993 0.323821 0.936769 -0.568253
C79   C     C_3   0.179387 0.263565 0.948925 0.033007
H40   H     H_    0.230327 0.222989 0.919240 0.151051
H41   H     H_    0.028403 0.266786 0.938653 0.137198
C80   C     C_3   0.202515 0.241969 0.013880 -0.690992
H42   H     H_    0.183188 0.285341 0.044289 0.228502
H43   H     H_    0.095857 0.203164 0.024894 0.235751
H44   H     H_    0.342128 0.218845 0.021771 0.218004
O49   O     O_3   0.780296 0.175737 0.936563 -0.571034
C81   C     C_3   0.679513 0.235950 0.948742 0.044076
H45   H     H_    0.528491 0.232706 0.938491 0.135857
H46   H     H_    0.730394 0.276572 0.919095 0.153287
C82   C     C_3   0.702475 0.257470 0.013701 -0.711635
H47   H     H_    0.841940 0.280677 0.021668 0.223225
H48   H     H_    0.595553 0.296185 0.024633 0.214835
H49   H     H_    0.683205 0.214058 0.044071 0.232416
O50   O     O_3   0.220007 0.823821 0.063231 -0.568253
C83   C     C_3   0.320612 0.763565 0.051075 0.032983
H50   H     H_    0.269673 0.722989 0.080760 0.151053
H51   H     H_    0.471596 0.766786 0.061347 0.137199
C84   C     C_3   0.297485 0.741969 0.986120 -0.690969
H52   H     H_    0.316812 0.785342 0.955711 0.228501
H53   H     H_    0.404143 0.703165 0.975106 0.235756
H54   H     H_    0.157872 0.718846 0.978229 0.218004
O51   O     O_3   0.219704 0.824264 0.436563 -0.571033
C85   C     C_3   0.320487 0.764050 0.448742 0.044080
H55   H     H_    0.471509 0.767294 0.438491 0.135858
H56   H     H_    0.269606 0.723428 0.419094 0.153286
C86   C     C_3   0.297525 0.742530 0.513701 -0.711646
H57   H     H_    0.158060 0.719323 0.521668 0.223224
H58   H     H_    0.404448 0.703816 0.524633 0.214835
H59   H     H_    0.316795 0.785943 0.544071 0.232414
O52   O     O_3   0.779993 0.176179 0.563231 -0.568255
C87   C     C_3   0.679387 0.236435 0.551075 0.032991
H60   H     H_    0.730327 0.277011 0.580760 0.151055
H61   H     H_    0.528404 0.233214 0.561347 0.137198
C88   C     C_3   0.702515 0.258031 0.486120 -0.690992
H62   H     H_    0.683188 0.214658 0.455711 0.228499
H63   H     H_    0.595857 0.296835 0.475106 0.235753
H64   H     H_    0.842128 0.281154 0.478229 0.218006

loop_
_geom_bond_atom_site_label_1
_geom_bond_atom_site_label_2
_ccdc_geom_bond_type
S7    O41   S    
C83   H51   S    
C47   C48   A    
C48   C56   A    
O9    V1    S    
C74   H27   S    
C30   C38   A    
O47   C77   S    
C64   S8    S    
C37   C61   A    
S8    O44   S    
C2    C24   S    
S4    O30   D    
C36   C44   A    
S2    O25   D    
C31   C39   A    
C41   C42   A    
C25   C33   A    
S3    O27   D    
H8    C32   S    
C80   H42   S    
C33   C57   A    
C88   H64   S    
O11   C3    A    
C76   H32   S    
C85   H56   S    
C40   C64   A    
C9    O45   S    
H4    C28   S    
S8    O43   D    
O41   H23   S    
C55   C72   A    
C87   H60   S    
C6    C20   S    
S3    O28   D    
C83   C84   S    
C38   C62   A    
C77   H35   S    
C61   C69   A    
S7    O39   D    
C15   O51   S    
O3    V4    S    
C9    C17   A    
O23   H17   S    
C22   C30   A    
O3    C2    A    
S7    O40   D    
C62   S6    S    
C82   H48   S    
C13   O49   S    
O8    V1    S    
C46   C54   A    
C19   C27   A    
S2    O24   D    
C29   C37   A    
C18   C26   A    
C82   H49   S    
O20   V2    S    
C86   H59   S    
C85   C86   S    
C47   C55   A    
C49   C66   A    
O10   V2    S    
S5    O35   S    
O44   H24   S    
C16   C24   A    
C58   C66   A    
H14   C70   S    
C12   C20   A    
C73   H26   S    
C53   C70   A    
S1    O23   S    
C41   C49   A    
C38   C46   A    
O15   C7    A    
C83   H50   S    
C37   C45   A    
C76   H33   S    
C14   O50   S    
C39   C47   A    
C10   O46   S    
C11   C51   A    
C39   C63   A    
C84   H52   S    
C13   C21   A    
O15   V4    S    
C34   C42   A    
O16   V3    S    
C33   C41   A    
H6    C30   S    
C10   C50   A    
C58   S2    S    
C11   C19   A    
H5    C29   S    
H13   C69   S    
C78   H38   S    
O10   C2    A    
C56   C71   A    
C60   C68   A    
C85   H55   S    
C13   C53   A    
H2    C26   S    
O7    V2    S    
C79   H40   S    
C11   O47   S    
H9    C65   S    
S8    O42   D    
C73   C74   S    
C34   C58   A    
C80   H43   S    
C17   C25   A    
O13   V3    S    
O1    V3    S    
S3    O29   S    
O14   V4    S    
C14   C22   A    
O2    V4    S    
C78   H37   S    
O5    V1    S    
C32   C40   A    
C15   C23   A    
S2    O26   S    
C10   C18   A    
C74   H28   S    
C84   H54   S    
C4    C22   S    
O8    C5    A    
C75   C76   S    
C52   C67   A    
C43   C44   A    
C88   H62   S    
C61   S5    S    
O12   C4    A    
C35   C59   A    
O52   C87   S    
O17   V3    S    
O13   C5    A    
H3    C27   S    
O18   V4    S    
O19   V1    S    
C73   H25   S    
O26   H18   S    
S1    O21   D    
S6    O37   D    
O4    C1    A    
O9    C1    A    
C23   C31   A    
O48   C79   S    
C76   H34   S    
C87   H61   S    
O18   V2    S    
S5    O33   D    
C62   C70   A    
C28   C36   A    
C81   H46   S    
O32   H20   S    
O7    C6    A    
S4    O32   S    
C59   C67   A    
C64   C72   A    
C75   H30   S    
C80   H44   S    
C21   C29   A    
C7    C17   S    
C86   H57   S    
O1    C4    A    
O6    V2    S    
O2    C3    A    
C60   S4    S    
C63   S7    S    
C51   C68   A    
C50   C65   A    
C9    C49   A    
O12   V1    S    
S6    O38   S    
C45   C46   A    
C79   H41   S    
C5    C19   S    
C12   O48   S    
C63   C71   A    
S4    O31   D    
C59   S3    S    
C36   C60   A    
C87   C88   S    
C43   C51   A    
C54   C69   A    
C42   C50   A    
O51   C85   S    
O14   C6    A    
C81   C82   S    
C84   H53   S    
O45   C73   S    
C88   H63   S    
C57   C65   A    
C16   O52   S    
C40   C48   A    
C75   H31   S    
O46   C75   S    
O38   H22   S    
C1    C23   S    
C74   H29   S    
H16   C72   S    
C35   C43   A    
O49   C81   S    
O5    C8    A    
C77   H36   S    
C57   S1    S    
C3    C21   S    
O29   H19   S    
O6    C7    A    
H15   C71   S    
C15   C55   A    
C78   H39   S    
H10   C66   S    
C24   C32   A    
C16   C56   A    
C82   H47   S    
O16   C8    A    
C14   C54   A    
C79   C80   S    
H11   C67   S    
S6    O36   D    
C45   C53   A    
C27   C35   A    
H12   C68   S    
C20   C28   A    
C8    C18   S    
O50   C83   S    
S5    O34   D    
H1    C25   S    
O17   V1    S    
O35   H21   S    
O11   V2    S    
C44   C52   A    
C81   H45   S    
C86   H58   S    
O19   V3    S    
O4    V3    S    
C12   C52   A    
O20   V4    S    
H7    C31   S    
S1    O22   D    
C77   C78   S    
C26   C34   A    
