data_mof_unit_2555.cif
_audit_creation_date              2012-12-11T16:11:11-0500
_audit_creation_method            fapswitch 2.2
_symmetry_space_group_name_H-M    P1
_symmetry_Int_Tables_number       1
_space_group_crystal_system       triclinic
_cell_length_a                    12.82623
_cell_length_b                    13.302383
_cell_length_c                    26.977331
_cell_angle_alpha                 97.504984
_cell_angle_beta                  90.189235
_cell_angle_gamma                 118.73235
_cell_volume                      3989.97402656

loop_
_atom_site_label
_atom_site_type_symbol
_atom_type_description
_atom_site_fract_x
_atom_site_fract_y
_atom_site_fract_z
_atom_type_partial_charge
C1    C     C_R   0.627855 0.894661 0.424323 0.540856
C2    C     C_R   0.576488 0.315843 0.226155 -0.030653
C3    C     C_R   0.569909 0.309612 0.277821 -0.031237
C4    C     C_R   0.669826 0.325126 0.306724 -0.031486
C5    C     C_R   0.683886 0.340594 0.203887 -0.031408
C6    C     C_1   0.693480 0.361919 0.152604 -0.000027
C7    C     C_1   0.655886 0.303329 0.357907 0.001264
C8    C     C_1   0.702305 0.389871 0.111632 0.027941
C9    C     C_1   0.114177 0.806229 0.135123 -0.007877
C10   C     C_1   0.141081 0.825028 0.179425 -0.042515
C11   C     C_1   0.161682 0.837985 0.231729 0.009415
C12   C     C_R   0.601920 0.223743 0.443323 0.546774
C13   C     C_1   0.176107 0.844599 0.276354 0.010984
C14   C     C_1   0.195761 0.850962 0.328305 -0.037454
C15   C     C_1   0.221391 0.859234 0.372127 0.001451
C16   C     C_1   0.689773 0.798982 0.136284 0.000703
C17   C     C_1   0.673196 0.808400 0.180091 -0.036215
C18   C     C_1   0.661829 0.817354 0.232131 0.004061
C19   C     C_1   0.655923 0.826410 0.276841 0.004334
C20   C     C_1   0.650172 0.841626 0.329184 -0.035869
C21   C     C_1   0.642861 0.861234 0.373456 -0.000096
C22   C     C_1   0.692497 0.382030 0.875104 0.000095
C23   C     C_R   0.268512 0.875601 0.422397 0.545091
C24   C     C_1   0.682346 0.354280 0.830377 -0.026108
C25   C     C_1   0.673049 0.333359 0.777649 0.035355
C26   C     C_1   0.664756 0.318894 0.732577 0.045997
C27   C     C_1   0.651740 0.299200 0.679848 0.002784
C28   C     C_1   0.634280 0.273682 0.635023 0.018409
C29   C     C_1   0.214628 0.863845 0.608121 0.071137
C30   C     C_R   0.106051 0.732424 0.716078 0.029152
C31   C     C_R   0.094071 0.722003 0.767369 0.032086
C32   C     C_R   0.191851 0.934438 0.788834 0.040990
C33   C     C_R   0.204281 0.945106 0.737531 0.029465
C34   C     C_R   0.630781 0.898708 0.563742 0.547310
C35   C     C_R   0.162390 0.843861 0.701617 -0.066441
C36   C     C_R   0.138079 0.823220 0.803334 -0.058853
C37   C     C_1   0.127108 0.811874 0.855548 0.039072
C38   C     C_1   0.184412 0.854229 0.649922 0.036224
C39   C     C_1   0.105667 0.795337 0.897779 0.066614
C40   C     C_1   0.650056 0.865842 0.609435 0.035359
C41   C     C_R   0.743978 0.924475 0.737369 -0.042854
C42   C     C_R   0.740095 0.915567 0.788892 0.055653
C43   C     C_R   0.574931 0.715529 0.769431 -0.044428
C44   C     C_R   0.578545 0.724882 0.717811 0.060130
C45   C     C_R   0.602876 0.227042 0.583050 0.554340
C46   C     C_R   0.662693 0.829691 0.702269 -0.028620
C47   C     C_R   0.654519 0.811465 0.804640 -0.026139
C48   C     C_1   0.659465 0.798673 0.856581 -0.000123
C49   C     C_1   0.658701 0.845466 0.650729 0.001652
C50   C     C_1   0.675817 0.788342 0.898920 0.033880
C51   C     C_R   0.065465 0.771971 0.084193 0.539835
C52   C     C_R   0.715984 0.438507 0.066528 0.548348
C53   C     C_R   0.720376 0.782353 0.086133 0.546568
C54   C     C_R   0.060181 0.765075 0.944566 0.550317
C55   C     C_R   0.709238 0.431553 0.926717 0.552911
C56   C     C_R   0.267807 0.879573 0.561790 0.555297
C57   C     C_R   0.712223 0.775196 0.946299 0.551555
C58   C     C_1   0.636043 0.274204 0.398636 0.027477
C59   C     C_R   0.777514 0.348793 0.284542 0.038521
C60   C     C_R   0.785205 0.358581 0.232864 0.038843
Cr1   Cr    Cr6+3 0.416010 0.828400 0.490230 1.071934
Cr2   Cr    Cr6+3 0.676380 0.087280 0.505260 1.051640
Cr3   Cr    Cr6+3 0.407590 0.084280 0.504540 1.046408
Cr4   Cr    Cr6+3 0.914090 0.832340 0.018020 1.064482
Cr5   Cr    Cr6+3 0.923310 0.576840 0.003860 1.067292
Cr6   Cr    Cr6+3 0.654200 0.573160 0.004700 1.034061
O1    O     O_R   0.294740 0.800910 0.434410 -0.492287
O2    O     O_R   0.664100 0.185180 0.560770 -0.496868
O3    O     O_R   0.500290 0.202770 0.565360 -0.490107
O4    O     O_R   0.310570 0.979360 0.548520 -0.495316
O5    O     O_3   0.499990 0.999990 0.500010 -0.263983
O6    O     O_R   0.819910 0.858260 0.073860 -0.497210
O7    O     O_R   0.018180 0.827180 0.067430 -0.503459
O8    O     O_R   0.044260 0.672570 0.062730 -0.496502
O9    O     O_R   0.818270 0.481940 0.049130 -0.480976
O10   O     O_R   0.635480 0.460400 0.052590 -0.510991
O11   O     O_R   0.662650 0.681410 0.060750 -0.500278
O12   O     O_R   0.526010 0.837250 0.440870 -0.498708
O13   O     O_R   0.814500 0.852290 0.965490 -0.477494
O14   O     O_R   0.013160 0.821640 0.966980 -0.484801
O15   O     O_R   0.038850 0.666600 0.954370 -0.501576
O16   O     O_R   0.813260 0.476410 0.948680 -0.481918
O17   O     O_R   0.630060 0.454430 0.944230 -0.515349
O18   O     O_R   0.657630 0.675880 0.960300 -0.504072
O19   O     O_3   0.830530 0.660780 0.008860 -0.262767
O20   O     O_R   0.704290 0.994500 0.446090 -0.501017
O21   O     O_R   0.662870 0.181760 0.460430 -0.485494
O22   O     O_R   0.498970 0.199080 0.457120 -0.508351
O23   O     O_R   0.309350 0.975930 0.448180 -0.506345
O24   O     O_R   0.296060 0.804610 0.542650 -0.477195
O25   O     O_R   0.527240 0.840670 0.541200 -0.475504
O26   O     O_R   0.705610 0.998200 0.554330 -0.513788
C61   C     C_2   0.880234 0.358739 0.314932 0.615532
O27   O     O_2   0.909924 0.415898 0.356847 -0.502727
O28   O     O_R   0.942593 0.302222 0.295550 -0.670528
H1    H     H_    0.010555 0.315717 0.319593 0.335562
C62   C     C_2   0.828256 0.014082 0.826085 0.583206
O29   O     O_2   0.795193 0.045625 0.864603 -0.508078
O30   O     O_R   0.948961 0.070686 0.816851 -0.657185
H2    H     H_    0.999762 0.136450 0.844595 0.355575
C63   C     C_R   0.487727 0.605540 0.786677 0.046889
C64   C     C_R   0.364644 0.566531 0.780635 -0.057002
C65   C     C_R   0.283058 0.461429 0.795678 -0.082749
C66   C     C_R   0.323637 0.395479 0.817275 -0.065857
C67   C     C_R   0.445816 0.434190 0.823663 -0.075670
C68   C     C_R   0.527706 0.538240 0.808117 -0.063985
H3    H     H_    0.332171 0.617084 0.764016 0.151560
H4    H     H_    0.188339 0.430762 0.790637 0.172787
H5    H     H_    0.260428 0.314378 0.829038 0.166227
H6    H     H_    0.477111 0.383527 0.840609 0.131597
H7    H     H_    0.622130 0.566308 0.812696 0.128418
C69   C     C_2   0.495583 0.624814 0.680014 0.575724
O31   O     O_2   0.485063 0.528710 0.680980 -0.503471
O32   O     O_R   0.429204 0.640573 0.643571 -0.671511
H8    H     H_    0.375861 0.566160 0.620224 0.351943
C70   C     C_2   0.900611 0.393407 0.209646 0.615923
O33   O     O_2   0.903409 0.341978 0.169067 -0.501883
O34   O     O_R   0.005871 0.485692 0.234185 -0.671684
H9    H     H_    0.078253 0.501336 0.214688 0.341089
C71   C     C_R   0.470077 0.295997 0.195405 0.040650
C72   C     C_R   0.371742 0.184051 0.184463 -0.080239
C73   C     C_R   0.270713 0.165551 0.156309 -0.099854
C74   C     C_R   0.267291 0.258554 0.138968 -0.083302
C75   C     C_R   0.364843 0.370236 0.149803 -0.094924
C76   C     C_R   0.465967 0.389140 0.178016 -0.090445
H10   H     H_    0.373393 0.111458 0.197829 0.113502
H11   H     H_    0.195054 0.079170 0.147968 0.125439
H12   H     H_    0.189000 0.244101 0.117192 0.135240
H13   H     H_    0.361993 0.442202 0.136440 0.122243
H14   H     H_    0.540743 0.476122 0.186504 0.111159
C77   C     C_R   0.458600 0.289531 0.301761 0.040808
C78   C     C_R   0.383398 0.182310 0.317185 -0.089688
C79   C     C_R   0.277992 0.163811 0.338950 -0.091881
C80   C     C_R   0.246762 0.251665 0.345136 -0.089095
C81   C     C_R   0.321062 0.358402 0.329724 -0.098558
C82   C     C_R   0.426780 0.377496 0.308162 -0.076841
H15   H     H_    0.406288 0.113331 0.312198 0.108292
H16   H     H_    0.220262 0.081382 0.350959 0.121765
H17   H     H_    0.164963 0.237012 0.361849 0.121682
H18   H     H_    0.296715 0.426326 0.334474 0.127140
H19   H     H_    0.483699 0.460517 0.296309 0.113190
C83   C     C_2   0.056669 0.626436 0.677524 0.608892
O35   O     O_2   0.118642 0.615943 0.645100 -0.496217
O36   O     O_R   0.939399 0.538174 0.678889 -0.684318
H20   H     H_    0.916469 0.470082 0.651277 0.331643
C84   C     C_2   0.041912 0.605606 0.783764 0.599992
O37   O     O_2   0.073114 0.535859 0.765943 -0.553988
O38   O     O_R   0.958028 0.576177 0.819719 -0.695675
H21   H     H_    0.933356 0.496687 0.828909 0.337251
C85   C     C_2   0.241982 0.039506 0.827693 0.613014
O39   O     O_2   0.180254 0.049730 0.860297 -0.502787
O40   O     O_R   0.360469 0.125727 0.827244 -0.683732
H22   H     H_    0.385592 0.190039 0.856798 0.327082
C86   C     C_2   0.258509 0.061834 0.721361 0.601427
O41   O     O_2   0.226645 0.131688 0.738369 -0.499613
O42   O     O_R   0.346171 0.091964 0.686996 -0.694523
H23   H     H_    0.375339 0.173196 0.678946 0.349964
C87   C     C_R   0.830553 0.034646 0.720116 0.062705
C88   C     C_R   0.925655 0.039834 0.692814 -0.039694
C89   C     C_R   0.008139 0.143949 0.677362 -0.069222
C90   C     C_R   0.996311 0.243325 0.689089 -0.079818
C91   C     C_R   0.901664 0.238613 0.716094 -0.099148
C92   C     C_R   0.818825 0.134666 0.731548 -0.078711
H24   H     H_    0.936271 0.963615 0.683907 0.117231
H25   H     H_    0.081515 0.147699 0.656471 0.139614
H26   H     H_    0.060479 0.323988 0.677291 0.156513
H27   H     H_    0.892659 0.315585 0.725111 0.167747
H28   H     H_    0.745921 0.132028 0.752527 0.125073

loop_
_geom_bond_atom_site_label_1
_geom_bond_atom_site_label_2
_ccdc_geom_bond_type
C67   H6    S    
C1    C21   S    
C63   C64   A    
Cr3   O22   S    
C85   O39   D    
C41   C42   A    
C57   O13   A    
O28   H1    S    
C9    C51   S    
C51   O8    A    
C52   O9    A    
Cr6   O19   S    
C69   O32   S    
C90   C91   A    
Cr5   O16   S    
C81   C82   A    
C16   C53   S    
Cr2   O20   S    
C46   C49   S    
C26   C27   S    
C61   O27   D    
C30   C35   A    
C3    C77   S    
C32   C36   A    
C36   C37   S    
C84   O37   D    
C31   C36   A    
C5    C6    S    
C39   C54   S    
C40   C49   T    
C1    O20   A    
C70   O33   D    
C18   C19   T    
C23   O1    A    
C73   H11   S    
C34   O25   A    
C69   O31   D    
Cr6   O17   S    
O34   H9    S    
C31   C84   S    
C76   H14   S    
Cr3   O3    S    
C78   C79   A    
Cr2   O26   S    
C29   C38   T    
Cr2   O5    S    
Cr4   O7    S    
C23   O23   A    
C65   H4    S    
C9    C10   T    
C8    C52   S    
C7    C58   T    
C86   O42   S    
C90   H26   S    
C5    C60   A    
C12   C58   S    
Cr1   O5    S    
C15   C23   S    
C79   H16   S    
C61   O28   S    
C13   C14   S    
C1    O12   A    
Cr4   O14   S    
C4    C7    S    
C66   C67   A    
C62   O30   S    
C44   C46   A    
C62   O29   D    
C84   O38   S    
C68   H7    S    
C81   H18   S    
C28   C45   S    
C12   O22   A    
C45   O3    A    
C47   C48   S    
C74   C75   A    
C35   C38   S    
C24   C25   S    
C77   C82   A    
C42   C62   S    
C80   H17   S    
C2    C71   S    
C33   C86   S    
C16   C17   T    
C6    C8    T    
C78   H15   S    
Cr5   O8    S    
C91   H27   S    
C53   O11   A    
C43   C44   A    
C43   C63   S    
C82   H19   S    
C79   C80   A    
Cr1   O1    S    
Cr5   O15   S    
C88   C89   A    
C14   C15   T    
Cr3   O4    S    
Cr1   O24   S    
Cr1   O12   S    
C41   C46   A    
Cr6   O10   S    
Cr3   O23   S    
C45   O2    A    
C17   C18   S    
C86   O41   D    
C57   O18   A    
C64   H3    S    
C56   O24   A    
C89   H25   S    
O38   H21   S    
C55   O16   A    
Cr5   O19   S    
C72   C73   A    
C22   C55   S    
C87   C92   A    
C44   C69   S    
Cr3   O5    S    
C56   O4    A    
C54   O14   A    
C87   C88   A    
Cr4   O13   S    
C22   C24   T    
C60   C70   S    
C2    C5    A    
C55   O17   A    
C3    C4    A    
Cr4   O19   S    
C65   C66   A    
C83   O36   S    
C71   C72   A    
C91   C92   A    
C67   C68   A    
C63   C68   A    
Cr6   O11   S    
O42   H23   S    
C12   O21   A    
C20   C21   T    
C71   C76   A    
C50   C57   S    
C51   O7    A    
O36   H20   S    
C52   O10   A    
Cr5   O9    S    
O32   H8    S    
C80   C81   A    
C29   C56   S    
Cr2   O21   S    
C30   C83   S    
O30   H2    S    
Cr2   O2    S    
C32   C33   A    
C19   C20   S    
C2    C3    A    
C25   C26   T    
C72   H10   S    
C37   C39   T    
C77   C78   A    
C89   C90   A    
C11   C13   T    
C30   C31   A    
C74   H12   S    
C66   H5    S    
C4    C59   A    
C48   C50   T    
C33   C35   A    
C70   O34   S    
C75   H13   S    
C92   H28   S    
C85   O40   S    
C42   C47   A    
Cr4   O6    S    
C64   C65   A    
C34   O26   A    
C10   C11   S    
Cr6   O18   S    
C41   C87   S    
C59   C60   A    
C32   C85   S    
O40   H22   S    
C27   C28   T    
C83   O35   D    
C88   H24   S    
C34   C40   S    
C59   C61   S    
C73   C74   A    
C53   O6    A    
C43   C47   A    
C54   O15   A    
Cr1   O25   S    
C75   C76   A    
