data_mof_unit_2753.cif
_audit_creation_date              2012-12-11T14:04:22-0500
_audit_creation_method            fapswitch 2.2
_symmetry_space_group_name_H-M    P1
_symmetry_Int_Tables_number       1
_space_group_crystal_system       triclinic
_cell_length_a                    19.055239
_cell_length_b                    10.946725
_cell_length_c                    18.817101
_cell_angle_alpha                 90.237976
_cell_angle_beta                  89.921132
_cell_angle_gamma                 89.775106
_cell_volume                      3925.0375092

loop_
_atom_site_label
_atom_site_type_symbol
_atom_type_description
_atom_site_fract_x
_atom_site_fract_y
_atom_site_fract_z
_atom_type_partial_charge
Br1   Br    Br    0.933466 0.425676 0.045866 -0.390285
Br2   Br    Br    0.069682 0.389701 0.940949 -0.359266
Br3   Br    Br    0.429065 0.888831 0.059445 -0.361015
Br4   Br    Br    0.552752 0.904108 0.943381 -0.326821
C1    C     C_R   0.240228 0.466136 0.647245 0.568427
C2    C     C_R   0.996126 0.658313 0.573539 -0.038970
C3    C     C_R   0.507520 0.169390 0.424042 -0.041599
C4    C     C_R   0.496063 0.158314 0.573576 -0.037518
C5    C     C_R   0.996148 0.895078 0.432298 -0.073069
C6    C     C_R   0.967115 0.876650 0.577138 -0.077775
C7    C     C_R   0.496077 0.395074 0.432339 -0.073235
C8    C     C_R   0.467053 0.376637 0.577181 -0.077757
C9    C     C_R   0.976889 0.998496 0.471261 -0.100806
C10   C     C_R   0.960266 0.988529 0.543027 -0.106843
C11   C     C_R   0.476815 0.498488 0.471305 -0.100792
C12   C     C_R   0.760500 0.466962 0.353384 0.569687
C13   C     C_R   0.460197 0.488516 0.543073 -0.106862
C14   C     C_R   0.987841 0.771370 0.538998 0.007181
C15   C     C_R   0.997331 0.778530 0.464302 0.007347
C16   C     C_R   0.487776 0.271364 0.539035 0.008275
C17   C     C_R   0.497263 0.278521 0.464338 0.006101
C18   C     C_R   0.001130 0.550397 0.531584 0.018440
C19   C     C_R   0.021238 0.559713 0.460155 0.013851
C20   C     C_R   0.501035 0.050396 0.531627 0.019475
C21   C     C_R   0.521153 0.059691 0.460200 0.012608
C22   C     C_R   0.988866 0.432423 0.559180 -0.033315
C23   C     C_R   0.740227 0.966138 0.647243 0.567458
C24   C     C_R   0.047818 0.455158 0.424749 -0.055614
C25   C     C_R   0.488757 0.932437 0.559236 -0.033340
C26   C     C_R   0.547732 0.955116 0.424812 -0.055515
C27   C     C_R   0.009763 0.328774 0.521481 -0.020574
C28   C     C_R   0.042402 0.340369 0.455709 -0.041634
C29   C     C_R   0.509651 0.828771 0.521553 -0.020684
C30   C     C_R   0.542302 0.840338 0.455784 -0.041558
C31   C     C_2   0.213554 0.814668 0.936016 0.212341
C32   C     C_2   0.759522 0.903333 0.073704 0.277948
C33   C     C_2   0.712856 0.313410 0.935903 0.225439
C34   C     C_R   0.260497 0.966957 0.353381 0.571203
C35   C     C_2   0.259741 0.404747 0.074065 0.289711
C36   C     C_2   0.246505 0.905427 0.082146 -0.028637
C37   C     C_2   0.751983 0.891842 0.912890 -0.044897
C38   C     C_2   0.746577 0.401450 0.083390 -0.040104
C39   C     C_2   0.253244 0.390909 0.912369 -0.054013
C40   C     C_R   0.227142 0.873917 0.647451 0.576917
C41   C     C_R   0.773168 0.872978 0.353010 0.565631
C42   C     C_R   0.727142 0.373918 0.647451 0.577134
C43   C     C_R   0.273168 0.372978 0.353010 0.566193
C44   C     C_2   0.181385 0.892965 0.056049 -0.101037
C45   C     C_2   0.284275 0.830937 0.535545 -0.148673
C46   C     C_2   0.808674 0.911859 0.952160 -0.095556
C47   C     C_2   0.681778 0.396151 0.055475 -0.097530
C48   C     C_2   0.308584 0.414741 0.952856 -0.099525
C49   C     C_2   0.169468 0.876235 0.979219 -0.138936
C50   C     C_2   0.810427 0.875287 0.026182 -0.109803
C51   C     C_2   0.670223 0.378559 0.978715 -0.119044
C52   C     C_2   0.309814 0.374756 0.026179 -0.109663
C53   C     C_2   0.042535 0.652946 0.931548 -0.102083
C54   C     C_2   0.007930 0.651612 0.082618 -0.094229
C55   C     C_2   0.492962 0.150708 0.918033 -0.114392
C56   C     C_2   0.723767 0.819646 0.466947 -0.145377
C57   C     C_2   0.459550 0.150258 0.068585 -0.115447
C58   C     C_2   0.001140 0.556544 0.037022 0.185043
C59   C     C_2   0.039862 0.551833 0.971410 0.228687
C60   C     C_2   0.459846 0.048831 0.028066 0.154189
C61   C     C_2   0.495832 0.050604 0.960537 0.209172
C62   C     C_R   0.027249 0.654227 0.645941 0.533896
C63   C     C_R   0.973333 0.656350 0.353441 0.529112
C64   C     C_R   0.527235 0.154228 0.645953 0.523790
C65   C     C_R   0.473322 0.156348 0.353451 0.538951
C66   C     C_R   0.239560 0.462660 0.849174 0.576001
C67   C     C_2   0.784288 0.330960 0.535551 -0.148456
C68   C     C_R   0.760308 0.463475 0.150201 0.545156
C69   C     C_R   0.739400 0.962672 0.849197 0.582205
C70   C     C_R   0.260219 0.963750 0.150079 0.536256
C71   C     C_R   0.206369 0.819656 0.858734 0.568376
C72   C     C_R   0.773525 0.872005 0.146503 0.585926
C73   C     C_R   0.706162 0.319208 0.858590 0.592830
C74   C     C_R   0.273564 0.372149 0.146603 0.579510
C75   C     C_R   0.062326 0.647317 0.858009 0.557901
C76   C     C_R   0.969460 0.650747 0.148512 0.558914
C77   C     C_R   0.530778 0.150799 0.851697 0.561471
C78   C     C_2   0.223789 0.319621 0.466953 -0.145399
C79   C     C_R   0.438260 0.146970 0.141798 0.561777
C80   C     C_2   0.248572 0.911186 0.576635 -0.137391
C81   C     C_2   0.752739 0.906240 0.425004 -0.141442
C82   C     C_2   0.748573 0.411197 0.576638 -0.136103
C83   C     C_2   0.252742 0.406229 0.425006 -0.142270
C84   C     C_2   0.245747 0.909317 0.421302 -0.075354
C85   C     C_2   0.757354 0.909684 0.579489 -0.067300
C86   C     C_2   0.745754 0.409320 0.421306 -0.074124
C87   C     C_2   0.257359 0.409691 0.579490 -0.068596
C88   C     C_2   0.294139 0.848226 0.459113 0.201084
C89   C     C_R   0.007578 0.669403 0.424006 -0.040450
C90   C     C_2   0.714661 0.835000 0.543950 0.197654
C91   C     C_2   0.794156 0.348256 0.459122 0.201455
C92   C     C_2   0.214680 0.334976 0.543956 0.197278
Cl1   Cl    Cl    0.367741 0.776568 0.419900 -0.639450
Cl2   Cl    Cl    0.654706 0.739882 0.588580 -0.641388
Cl3   Cl    Cl    0.867784 0.276652 0.419924 -0.640909
Cl4   Cl    Cl    0.154752 0.239822 0.588597 -0.640944
Cl5   Cl    Cl    0.277285 0.710837 0.968599 -0.531580
Cl6   Cl    Cl    0.682533 0.986343 0.055019 -0.506409
Cl7   Cl    Cl    0.773486 0.204615 0.968747 -0.536033
Cl8   Cl    Cl    0.187164 0.499091 0.056977 -0.552061
Cr1   Cr    Cr6+3 0.113970 0.508630 0.747920 1.108469
Cr2   Cr    Cr6+3 0.887700 0.820070 0.250200 1.048721
Cr3   Cr    Cr6+3 0.612300 0.320070 0.749800 1.050711
Cr4   Cr    Cr6+3 0.387700 0.320070 0.250200 1.051737
Cr5   Cr    Cr6+3 0.886030 0.508630 0.252080 1.128625
Cr6   Cr    Cr6+3 0.613970 0.008630 0.747920 1.110599
Cr7   Cr    Cr6+3 0.386030 0.008630 0.252080 1.129461
Cr8   Cr    Cr6+3 0.269200 0.666740 0.749850 1.054203
Cr9   Cr    Cr6+3 0.730800 0.666740 0.250150 1.053262
Cr10  Cr    Cr6+3 0.769200 0.166740 0.749850 1.065100
Cr11  Cr    Cr6+3 0.230800 0.166740 0.250150 1.039047
Cr12  Cr    Cr6+3 0.112300 0.820070 0.749800 1.050523
H1    H     H_    0.124655 0.924194 0.956939 0.129270
H2    H     H_    0.023263 0.740114 0.951694 0.053746
H3    H     H_    0.480519 0.236019 0.049094 0.078429
H4    H     H_    0.462662 0.231438 0.932211 0.044617
H5    H     H_    0.306005 0.747640 0.557968 0.172364
H6    H     H_    0.707551 0.732464 0.444684 0.172193
H7    H     H_    0.806024 0.247668 0.557974 0.172223
H8    H     H_    0.207589 0.232428 0.444692 0.172377
H9    H     H_    0.196054 0.934460 0.445866 0.074581
H10   H     H_    0.803662 0.945869 0.553353 0.077136
H11   H     H_    0.696056 0.434439 0.445866 0.074781
H12   H     H_    0.858860 0.832106 0.043836 0.106823
H13   H     H_    0.303658 0.445901 0.553350 0.077197
H14   H     H_    0.227289 0.995406 0.555202 0.149325
H15   H     H_    0.769169 0.994275 0.445680 0.125209
H16   H     H_    0.727285 0.495412 0.555205 0.149282
H17   H     H_    0.269156 0.494275 0.445678 0.125231
H18   H     H_    0.974197 0.086250 0.445331 0.163605
H19   H     H_    0.942308 0.067435 0.572733 0.123612
H20   H     H_    0.474122 0.586243 0.445379 0.164052
H21   H     H_    0.442237 0.567418 0.572782 0.123151
H22   H     H_    0.011084 0.907767 0.377377 0.138418
H23   H     H_    0.626905 0.429931 0.955968 0.131239
H24   H     H_    0.953387 0.872001 0.632904 0.132388
H25   H     H_    0.511017 0.407777 0.377421 0.140635
H26   H     H_    0.453334 0.371981 0.632949 0.129317
H27   H     H_    0.070391 0.461889 0.372035 0.128274
H28   H     H_    0.963481 0.419725 0.610108 0.138739
H29   H     H_    0.570325 0.961823 0.372106 0.131653
H30   H     H_    0.463379 0.919773 0.610171 0.136639
H31   H     H_    0.002875 0.239781 0.544596 0.141482
H32   H     H_    0.061186 0.260181 0.427613 0.122155
H33   H     H_    0.502761 0.739790 0.544681 0.141156
H34   H     H_    0.356974 0.327254 0.043067 0.079624
H35   H     H_    0.561090 0.760139 0.427704 0.122788
H36   H     H_    0.136259 0.915657 0.088965 0.145574
H37   H     H_    0.853125 0.962718 0.931696 0.188227
H38   H     H_    0.637014 0.427055 0.086635 0.157222
H39   H     H_    0.351606 0.471048 0.934227 0.194955
H40   H     H_    0.290890 0.896229 0.047594 0.197607
H41   H     H_    0.709833 0.835018 0.933110 0.174591
H42   H     H_    0.792164 0.380745 0.052006 0.210120
H43   H     H_    0.213185 0.328751 0.931244 0.172263
H44   H     H_    0.042759 0.727600 0.071721 0.074649
O1    O     O_R   0.043230 0.549300 0.667990 -0.504142
O2    O     O_R   0.832470 0.905110 0.169660 -0.513958
O3    O     O_R   0.667530 0.405110 0.830340 -0.525719
O4    O     O_R   0.332470 0.405110 0.169660 -0.514726
O5    O     O_R   0.054010 0.748440 0.822860 -0.526025
O6    O     O_R   0.945990 0.748440 0.177140 -0.516770
O7    O     O_R   0.554010 0.248440 0.822860 -0.529490
O8    O     O_R   0.445990 0.248440 0.177140 -0.505876
O9    O     O_3   0.165160 0.665150 0.749190 -0.320807
O10   O     O_3   0.834840 0.665150 0.250810 -0.280319
O11   O     O_3   0.665160 0.165150 0.749190 -0.302613
O12   O     O_R   0.956770 0.549300 0.332010 -0.485007
O13   O     O_3   0.334840 0.165150 0.250810 -0.302378
O14   O     O_R   0.178620 0.457600 0.674100 -0.431501
O15   O     O_R   0.821380 0.457600 0.325900 -0.424647
O16   O     O_R   0.678620 0.957600 0.674100 -0.432799
O17   O     O_R   0.321380 0.957600 0.325900 -0.422583
O18   O     O_R   0.284680 0.542100 0.669460 -0.548230
O19   O     O_R   0.715320 0.542100 0.330540 -0.541058
O20   O     O_R   0.784680 0.042100 0.669460 -0.549004
O21   O     O_R   0.215320 0.042100 0.330540 -0.540309
O22   O     O_R   0.262860 0.790390 0.676650 -0.506657
O23   O     O_R   0.543230 0.049300 0.667990 -0.508876
O24   O     O_R   0.737140 0.790390 0.323350 -0.507129
O25   O     O_R   0.762860 0.290390 0.676650 -0.507758
O26   O     O_R   0.237140 0.290390 0.323350 -0.505637
O27   O     O_R   0.167460 0.907030 0.670940 -0.465060
O28   O     O_R   0.832540 0.907030 0.329060 -0.479751
O29   O     O_R   0.667460 0.407030 0.670940 -0.466060
O30   O     O_R   0.332540 0.407030 0.329060 -0.478571
O31   O     O_R   0.053950 0.750220 0.675100 -0.496823
O32   O     O_R   0.946050 0.750220 0.324900 -0.513011
O33   O     O_R   0.553950 0.250220 0.675100 -0.501755
O34   O     O_R   0.456770 0.049300 0.332010 -0.480875
O35   O     O_R   0.446050 0.250220 0.324900 -0.508399
O36   O     O_R   0.043300 0.547370 0.827390 -0.446501
O37   O     O_R   0.956700 0.547370 0.172610 -0.452937
O38   O     O_R   0.543300 0.047370 0.827390 -0.457162
O39   O     O_R   0.456700 0.047370 0.172610 -0.435098
O40   O     O_R   0.178690 0.455820 0.821860 -0.482939
O41   O     O_R   0.821310 0.455820 0.178140 -0.463033
O42   O     O_R   0.678690 0.955820 0.821860 -0.470656
O43   O     O_R   0.321310 0.955820 0.178140 -0.475573
O44   O     O_R   0.284750 0.540170 0.828860 -0.492002
O45   O     O_R   0.262920 0.788600 0.824420 -0.441811
O46   O     O_R   0.715250 0.540170 0.171140 -0.513489
O47   O     O_R   0.784750 0.040170 0.828860 -0.489802
O48   O     O_R   0.215250 0.040170 0.171140 -0.516154
O49   O     O_R   0.737080 0.788600 0.175580 -0.480341
O50   O     O_R   0.762920 0.288600 0.824420 -0.442958
O51   O     O_R   0.237080 0.288600 0.175580 -0.487896
O52   O     O_R   0.167530 0.905110 0.830340 -0.525249

loop_
_geom_bond_atom_site_label_1
_geom_bond_atom_site_label_2
_ccdc_geom_bond_type
C72   O49   A    
C73   O3    A    
Cr1   O36   S    
C47   H38   S    
C54   C58   D    
C55   H4    S    
Cr6   O38   S    
C9    H18   S    
C83   H17   S    
C72   O2    A    
Cr2   O32   S    
Br1   C58   S    
C37   C69   S    
C81   H15   S    
C86   C91   D    
C64   O23   A    
Cr3   O11   S    
Br3   C60   S    
Cr5   O10   S    
C48   H39   S    
C74   O4    A    
Cr4   O4    S    
C31   C71   S    
C46   C50   S    
Cr10  O25   S    
Cr1   O9    S    
C12   C86   S    
Cr2   O6    S    
C45   C80   D    
C67   H7    S    
C13   H21   S    
Cr8   O45   S    
C39   H43   S    
Br4   C61   S    
C49   H1    S    
C39   C48   D    
Cr9   O24   S    
C31   C49   D    
C70   O43   A    
C90   Cl2   S    
C46   H37   S    
C78   C83   D    
C2    C18   A    
C25   C29   A    
C65   O35   A    
C51   H23   S    
Cr10  O47   S    
C32   Cl6   S    
C14   C15   A    
C1    O14   A    
C78   H8    S    
C85   C90   D    
C53   C75   S    
C20   C25   A    
C5    C9    A    
C32   C72   S    
Cr7   O39   S    
C87   C92   D    
C7    C11   A    
C5    C15   A    
Cr1   O40   S    
C84   C88   D    
C8    H26   S    
C23   O20   A    
C8    C13   A    
C68   O46   A    
C86   H11   S    
C64   O33   A    
Cr7   O17   S    
C47   C51   S    
C15   C89   A    
C12   O19   A    
C54   C76   S    
C38   C47   D    
C27   H31   S    
Cr6   O11   S    
C69   O47   A    
C22   C27   A    
C34   O17   A    
Cr11  O48   S    
Cr4   O13   S    
Cr2   O10   S    
Cr4   O30   S    
C44   C49   S    
C6    H24   S    
C22   H28   S    
C76   O6    A    
C57   H3    S    
Cr11  O21   S    
C88   Cl1   S    
C53   C59   D    
C85   H10   S    
C66   O44   A    
Cr10  O11   S    
C2    C14   A    
Cr12  O27   S    
Cr3   O7    S    
C71   O52   A    
C78   C92   S    
C26   C30   A    
Cr3   O29   S    
C35   C74   S    
C35   Cl8   S    
C20   C21   A    
C6    C10   A    
Cr7   O43   S    
C25   H30   S    
C33   Cl7   S    
Cr11  O26   S    
C63   O32   A    
C70   O48   A    
C11   H20   S    
C40   O27   A    
C40   C80   S    
C3    C17   A    
C50   H12   S    
C7    C17   A    
C75   O36   A    
C19   C89   A    
C62   O1    A    
C34   C84   S    
Cr4   O35   S    
C43   C83   S    
C57   C60   D    
C41   C81   S    
C58   C59   S    
C67   C82   D    
C7    H25   S    
C5    H22   S    
Cr8   O9    S    
C24   C28   A    
C56   C81   D    
C45   H5    S    
C62   O31   A    
C8    C16   A    
C38   C68   S    
C29   C30   A    
C77   O7    A    
C24   H27   S    
C35   C52   D    
C4    C16   A    
C19   C24   A    
C75   O5    A    
C43   O26   A    
C56   H6    S    
C34   O21   A    
C1    C87   S    
C18   C22   A    
C73   O50   A    
C37   H41   S    
C12   O15   A    
Cr9   O19   S    
Cr12  O31   S    
Cr3   O3    S    
Cr6   O23   S    
C4    C64   S    
C39   C66   S    
Cr10  O20   S    
Cr1   O14   S    
C44   H36   S    
C57   C79   S    
Cr1   O1    S    
Cr12  O5    S    
Cr8   O44   S    
C45   C88   S    
C79   O39   A    
C40   O22   A    
C37   C46   D    
C77   O38   A    
Br2   C59   S    
C26   H29   S    
Cr8   O18   S    
C87   H13   S    
C69   O42   A    
C21   C26   A    
C36   C44   D    
C38   H42   S    
C66   O40   A    
Cr3   O33   S    
Cr7   O13   S    
C27   C28   A    
C55   C77   S    
C31   Cl5   S    
C23   O16   A    
C3    C65   S    
Cr8   O22   S    
C30   H35   S    
Cr5   O15   S    
C41   O28   A    
C11   C13   A    
Cr9   O10   S    
C28   H32   S    
Cr6   O16   S    
C63   O12   A    
C79   O8    A    
Cr5   O37   S    
C3    C21   A    
Cr11  O51   S    
Cr6   O42   S    
Cr9   O46   S    
Cr10  O50   S    
C43   O30   A    
Cr5   O41   S    
Cr2   O28   S    
Cr11  O13   S    
C54   H44   S    
C60   C61   S    
C71   O45   A    
C82   H16   S    
C33   C73   S    
C6    C14   A    
C76   O37   A    
C92   Cl4   S    
C80   H14   S    
C65   O34   A    
C4    C20   A    
C36   C70   S    
Cr12  O9    S    
C23   C85   S    
C91   Cl3   S    
Cr2   O2    S    
C42   O25   A    
Cr4   O8    S    
C1    O18   A    
C84   H9    S    
C32   C50   D    
Cr7   O34   S    
Cr9   O49   S    
C33   C51   D    
C2    C62   S    
C67   C91   S    
C16   C17   A    
C53   H2    S    
Cr5   O12   S    
Cr12  O52   S    
C10   H19   S    
C63   C89   S    
C18   C19   A    
C36   H40   S    
C29   H33   S    
C42   O29   A    
C9    C10   A    
C52   H34   S    
C74   O51   A    
C55   C61   D    
C48   C52   S    
C41   O24   A    
C68   O41   A    
C42   C82   S    
C56   C90   S    
