data_mof_unit_615.cif
_audit_creation_date              2013-03-05T16:12:15-0500
_audit_creation_method            fapswitch 2.2
_symmetry_space_group_name_H-M    P1
_symmetry_Int_Tables_number       1
_space_group_crystal_system       triclinic
_cell_length_a                    10.755444
_cell_length_b                    9.473046
_cell_length_c                    27.785574
_cell_angle_alpha                 90.367178
_cell_angle_beta                  90.317873
_cell_angle_gamma                 90.37158
_cell_volume                      2830.82176927

loop_
_atom_site_label
_atom_site_type_symbol
_atom_site_description
_atom_site_fract_x
_atom_site_fract_y
_atom_site_fract_z
_atom_type_partial_charge
O1    O     O_R   0.317570 0.620260 0.500030 -0.602274
O2    O     O_R   0.317570 0.379740 0.500030 -0.579558
C1    C     C_R   0.260260 0.499288 0.502292 0.851770
O3    O     O_R   0.499900 0.620250 0.430280 -0.600246
O4    O     O_R   0.499900 0.379750 0.430280 -0.601329
C2    C     C_R   0.500198 0.499627 0.407532 0.778267
Cu1   Cu    Cu3+1 0.499860 0.642410 0.500020 0.973875
Cu2   Cu    Cu3+1 0.499860 0.357590 0.500020 0.971798
O5    O     O_R   0.682190 0.620260 0.500010 -0.563557
O6    O     O_R   0.682190 0.379740 0.500010 -0.582129
O7    O     O_R   0.499860 0.620280 0.569750 -0.541376
O8    O     O_R   0.499860 0.379720 0.569750 -0.555784
C3    C     C_R   0.739965 0.500239 0.500588 0.808600
C4    C     C_R   0.501977 0.500080 0.592285 0.886613
C5    C     C_R   0.406660 0.546562 0.177150 0.533242
O9    O     O_2   0.305610 0.591029 0.201373 -0.539452
N1    N     N_R   0.507940 0.498243 0.201895 -0.467835
C6    C     C_R   0.611127 0.450915 0.178349 0.533555
C7    C     C_R   0.505439 0.626368 0.278980 -0.103857
C8    C     C_R   0.503236 0.626865 0.329133 -0.226636
C9    C     C_R   0.502442 0.370691 0.328793 -0.228456
C10   C     C_R   0.504651 0.370525 0.278605 -0.103034
C11   C     C_R   0.506151 0.498312 0.253528 0.358148
C12   C     C_R   0.512109 0.501023 0.101577 -0.044150
C13   C     C_R   0.407027 0.549289 0.126642 -0.020102
C14   C     C_R   0.304363 0.598210 0.100916 -0.146277
C15   C     C_R   0.614973 0.451042 0.127831 -0.020174
C16   C     C_R   0.501733 0.498969 0.354530 -0.033188
H1    H     H_    0.501294 0.270528 0.347364 0.147247
H2    H     H_    0.504759 0.271128 0.259140 0.141019
H3    H     H_    0.221680 0.634032 0.119316 0.188071
C17   C     C_R   0.508178 0.499162 0.644863 -0.034647
C18   C     C_R   0.415093 0.563690 0.973523 0.041207
C19   C     C_R   0.619525 0.446100 0.974485 0.041184
C20   C     C_R   0.518083 0.505188 0.948733 0.070496
C21   C     C_R   0.319769 0.627755 0.946119 -0.203211
C22   C     C_R   0.322866 0.628740 0.896185 -0.133934
C23   C     C_R   0.421209 0.566663 0.871468 -0.027437
C24   C     C_R   0.519445 0.505461 0.897541 -0.041978
C25   C     C_R   0.618821 0.444177 0.872280 -0.026002
C26   C     C_R   0.617339 0.443644 0.821717 0.550153
N2    N     N_R   0.520465 0.503040 0.797195 -0.469268
C27   C     C_R   0.423762 0.564822 0.820974 0.551682
C28   C     C_R   0.428794 0.417510 0.721255 -0.071784
C29   C     C_R   0.424141 0.416841 0.671130 -0.096296
C30   C     C_R   0.601229 0.576046 0.669109 -0.126898
C31   C     C_R   0.606067 0.576760 0.719301 -0.053243
C32   C     C_R   0.518823 0.498783 0.745569 0.309366
O10   O     O_2   0.330533 0.624754 0.795784 -0.500783
C33   C     C_R   0.410886 0.557087 0.024585 0.042781
C34   C     C_R   0.514286 0.502718 0.050397 0.068401
C35   C     C_R   0.619769 0.449939 0.025673 0.042445
C36   C     C_R   0.305867 0.601853 0.050983 -0.205271
H4    H     H_    0.354248 0.353383 0.653014 0.211468
H5    H     H_    0.362193 0.355363 0.741285 0.164043
H6    H     H_    0.247143 0.678553 0.876981 0.193553
H7    H     H_    0.241722 0.680603 0.962055 0.142152
H8    H     H_    0.221585 0.638155 0.034230 0.140665
O11   O     O_2   0.710072 0.405021 0.203764 -0.540112
C37   C     C_R   0.719709 0.403604 0.103265 -0.145282
H9    H     H_    0.502913 0.727349 0.347945 0.147495
H10   H     H_    0.506931 0.725540 0.259816 0.140531
H11   H     H_    0.800739 0.366418 0.122621 0.188414
C38   C     C_R   0.717063 0.383890 0.947867 -0.203295
C39   C     C_R   0.716530 0.383268 0.897872 -0.134246
O12   O     O_2   0.711168 0.382915 0.797252 -0.503670
C40   C     C_R   0.722422 0.403185 0.053293 -0.204955
H12   H     H_    0.794786 0.331867 0.964448 0.141895
H13   H     H_    0.671447 0.632937 0.649203 0.202518
H14   H     H_    0.793422 0.334035 0.879312 0.193196
H15   H     H_    0.677141 0.638134 0.737791 0.169227
H16   H     H_    0.807897 0.367450 0.037540 0.140623
C41   C     C_3   0.071393 0.609069 0.540953 0.180898
C42   C     C_3   0.068335 0.344969 0.514583 0.191597
H17   H     H_    0.105159 0.715058 0.529378 0.116850
H18   H     H_    0.090144 0.277720 0.482675 0.084547
C43   C     C_3   0.927356 0.613041 0.538063 -0.367244
C44   C     C_3   0.926026 0.353329 0.518148 -0.332419
H19   H     H_    0.882969 0.598359 0.573718 0.221918
H20   H     H_    0.895335 0.334258 0.555779 0.252425
H21   H     H_    0.899839 0.719476 0.525328 0.205886
H22   H     H_    0.885761 0.267813 0.495130 0.173125
H23   H     H_    0.105596 0.648346 0.444592 0.190445
H24   H     H_    0.112161 0.467974 0.425436 0.180864
H25   H     H_    0.893769 0.635975 0.438513 0.182257
H26   H     H_    0.899756 0.450340 0.425421 0.177522
C45   C     C_3   0.073800 0.539564 0.453538 -0.516953
C46   C     C_3   0.122423 0.496947 0.504370 -0.064880
C47   C     C_3   0.878099 0.500057 0.501984 -0.021262
C48   C     C_3   0.930300 0.533307 0.451543 -0.407450
C49   C     C_3   0.595323 0.083234 0.467971 -0.199796
C50   C     C_3   0.602021 0.917447 0.471164 -0.199245
H27   H     H_    0.688158 0.130562 0.474107 0.189914
H28   H     H_    0.694710 0.887172 0.484817 0.205065
H29   H     H_    0.572765 0.112473 0.430186 0.136433
H30   H     H_    0.596861 0.872319 0.434166 0.138311
C51   C     C_3   0.519555 0.086100 0.550496 0.272384
C52   C     C_3   0.508735 0.919722 0.551085 0.283601
C53   C     C_3   0.379858 0.082597 0.483329 -0.310897
C54   C     C_3   0.383053 0.915355 0.480227 -0.301470
N3    N     N_3   0.500250 0.143650 0.501060 -0.193970
N4    N     N_3   0.500250 0.856350 0.501060 -0.183000
H31   H     H_    0.303040 0.114371 0.507594 0.198708
H32   H     H_    0.300731 0.873811 0.499631 0.178592
H33   H     H_    0.356464 0.126524 0.447382 0.172737
H34   H     H_    0.371973 0.880526 0.442102 0.171275
H35   H     H_    0.442217 0.125361 0.573457 0.106700
H36   H     H_    0.419390 0.894060 0.569480 0.093324
N5    N     N_R   0.116682 0.587931 0.590356 0.162590
O13   O     O_R   0.216224 0.654550 0.604989 -0.339748
O14   O     O_R   0.052918 0.515099 0.621360 -0.286615
N6    N     N_R   0.118597 0.270595 0.556805 0.145820
O15   O     O_R   0.079861 0.142843 0.565441 -0.327186
O16   O     O_R   0.209907 0.321009 0.582590 -0.345496
N7    N     N_R   0.636410 0.137459 0.572966 0.175202
O17   O     O_R   0.744157 0.106305 0.554926 -0.344074
O18   O     O_R   0.633616 0.188095 0.616607 -0.308850
N8    N     N_R   0.605518 0.859837 0.582224 0.164193
O19   O     O_R   0.712662 0.821193 0.565717 -0.354496
O20   O     O_R   0.593269 0.874193 0.628566 -0.332109

loop_
_geom_bond_atom_site_label_1
_geom_bond_atom_site_label_2
_geom_bond_distance
_ccdc_geom_bond_type
H23   C45   1.113695 S    
C45   C46   1.559856 S    
C36   H8    1.076135 S    
C26   N2    1.367853 A    
C53   H31   1.111125 S    
C7    C8    1.393838 A    
C12   C15   1.408053 A    
C54   H32   1.110410 S    
N6    O16   1.299059 A    
C51   C52   1.579847 S    
Cu1   Cu2   2.698112 S    
Cu1   O7    1.950132 S    
C43   C47   1.550536 S    
N1    C11   1.434879 S    
C42   H18   1.115317 S    
C37   H11   1.083547 S    
C38   H12   1.076056 S    
C21   C22   1.388116 A    
C40   H16   1.076082 S    
C15   C37   1.395696 A    
N5    O14   1.302482 A    
C42   N6    1.474254 S    
C23   C24   1.407879 A    
O7    C4    1.303248 A    
C44   H20   1.113711 S    
C5    C13   1.403832 A    
C7    H10   1.082913 S    
C5    O9    1.349847 S    
C50   H30   1.111783 S    
C18   C21   1.415838 A    
C52   H36   1.117027 S    
N1    C6    1.368020 A    
C19   C20   1.421309 A    
C17   C29   1.401153 A    
C8    H9    1.083056 S    
O5    C3    1.299377 A    
N8    O19   1.296740 A    
C30   H13   1.081626 S    
C19   C35   1.422502 A    
C22   H6    1.083554 S    
C2    C16   1.472857 S    
C53   C54   1.586693 S    
C37   C40   1.388953 A    
N7    O18   1.301733 A    
Cu1   N4    2.026661 S    
H24   C45   1.113680 S    
C51   N7    1.478376 S    
Cu2   N3    2.027086 S    
C50   N4    1.493720 S    
C12   C34   1.422574 A    
C14   H3    1.083557 S    
C9    C10   1.394816 A    
C41   H17   1.115406 S    
C49   N3    1.493220 S    
O3    Cu1   1.947768 S    
C50   H28   1.104948 S    
N6    O15   1.301545 A    
C52   N8    1.468989 S    
C43   H19   1.111246 S    
C44   C47   1.553749 S    
C53   H33   1.112639 S    
C33   C36   1.416008 A    
C34   C35   1.421493 A    
C12   C13   1.408120 A    
O3    C2    1.302312 A    
C21   H7    1.076147 S    
H26   C48   1.113164 S    
C49   C50   1.575673 S    
C7    C11   1.400338 A    
C27   O10   1.349945 S    
C8    C16   1.406045 A    
C18   C33   1.421520 A    
C52   N4    1.512588 S    
C9    H1    1.083017 S    
O1    C1    1.299743 A    
C39   H14   1.083544 S    
C20   C24   1.422569 A    
C41   C46   1.569254 S    
C22   C23   1.395411 A    
C49   H27   1.103796 S    
C44   H22   1.112913 S    
C31   C32   1.401563 A    
C43   H21   1.112065 S    
Cu2   O8    1.947460 S    
C19   C38   1.416282 A    
C33   C34   1.421172 A    
N2    C32   1.434782 S    
C31   H15   1.082766 S    
C35   C40   1.416122 A    
C25   C26   1.404909 A    
C53   N3    1.494476 S    
C9    C16   1.406116 A    
O8    C4    1.297282 A    
C29   H4    1.079766 S    
C25   C39   1.395634 A    
N2    C27   1.368002 A    
C14   C36   1.388254 A    
C24   C25   1.408272 A    
C28   C29   1.393354 A    
C54   N4    1.497194 S    
C5    N1    1.367854 A    
C30   C31   1.395253 A    
C10   H2    1.082867 S    
C3    C47   1.485998 S    
C1    C46   1.483973 S    
O1    Cu1   1.970455 S    
C17   C30   1.400965 A    
O2    Cu2   1.973161 S    
C6    C15   1.404527 A    
C4    C17   1.462146 S    
O6    C3    1.296088 A    
O4    Cu2   1.950443 S    
H25   C48   1.113216 S    
C41   N5    1.469358 S    
C26   O12   1.349667 S    
C54   H34   1.113017 S    
C38   C39   1.389106 A    
O2    C1    1.294215 A    
C13   C14   1.395384 A    
C23   C27   1.403422 A    
C28   C32   1.401139 A    
N5    O13   1.301132 A    
C28   H5    1.082871 S    
O4    C2    1.303183 A    
C18   C20   1.421322 A    
N8    O20   1.301432 A    
C49   H29   1.113385 S    
C51   H35   1.115403 S    
Cu1   O5    1.973588 S    
C6    O11   1.349738 S    
Cu2   O6    1.970882 S    
C42   C44   1.536872 S    
C45   C48   1.544839 S    
C41   C43   1.551530 S    
C10   C11   1.400662 A    
C42   C46   1.577301 S    
C47   C48   1.546242 S    
C51   N3    1.494998 S    
N7    O17   1.300120 A    
