data_mof_unit_1449.cif
_audit_creation_date              2012-12-10T17:20:35-0500
_audit_creation_method            fapswitch 2.2
_symmetry_space_group_name_H-M    P1
_symmetry_Int_Tables_number       1
_space_group_crystal_system       triclinic
_cell_length_a                    10.270247
_cell_length_b                    10.512957
_cell_length_c                    13.623011
_cell_angle_alpha                 93.209536
_cell_angle_beta                  75.976513
_cell_angle_gamma                 94.752897
_cell_volume                      1421.15962708

loop_
_atom_site_label
_atom_site_type_symbol
_atom_type_description
_atom_site_fract_x
_atom_site_fract_y
_atom_site_fract_z
_atom_type_partial_charge
C1    C     C_R   0.554327 0.734038 0.498069 0.932401
C2    C     C_2   0.078823 0.499126 0.479938 0.186550
C3    C     C_1   0.453348 0.519063 0.880993 -0.073376
C4    C     C_1   0.554507 0.522908 0.120563 -0.045588
C5    C     C_2   0.578267 0.870777 0.509807 -0.427716
C6    C     C_2   0.418769 0.131924 0.535320 -0.428717
C7    C     C_2   0.493188 0.936650 0.581915 -0.002971
C8    C     C_2   0.502486 0.074411 0.579043 -0.005295
C9    C     C_R   0.314233 0.546826 0.056073 0.161495
C10   C     C_R   0.289952 0.653057 0.123710 -0.162818
C11   C     C_R   0.162057 0.666074 0.187077 -0.160692
C12   C     C_R   0.444814 0.266331 0.512027 0.922075
C13   C     C_R   0.057507 0.573281 0.183619 -0.107783
C14   C     C_R   0.080674 0.467440 0.116653 -0.151290
C15   C     C_R   0.208138 0.454565 0.052492 -0.157327
C16   C     C_R   0.702369 0.541642 0.947292 0.146092
C17   C     C_R   0.799872 0.464569 0.964710 -0.171843
C18   C     C_R   0.931485 0.474425 0.905074 -0.155256
C19   C     C_R   0.967342 0.560457 0.827129 -0.119571
C20   C     C_R   0.871791 0.637448 0.808974 -0.158380
C21   C     C_R   0.740486 0.629425 0.869315 -0.125559
C22   C     C_R   0.603394 0.143019 0.628244 0.200909
C23   C     C_R   0.477500 0.502300 0.687711 0.901921
C24   C     C_R   0.562842 0.195895 0.726744 -0.178623
C25   C     C_R   0.658900 0.252601 0.775910 -0.118818
C26   C     C_R   0.795431 0.257395 0.726757 -0.086315
C27   C     C_R   0.836374 0.205149 0.628668 -0.181049
C28   C     C_R   0.740892 0.147217 0.579681 -0.119086
C29   C     C_R   0.405128 0.879411 0.673825 0.187157
C30   C     C_R   0.462268 0.843309 0.750869 -0.188316
C31   C     C_R   0.379793 0.809076 0.844589 -0.138258
C32   C     C_R   0.240050 0.807820 0.861211 -0.093740
C33   C     C_R   0.182687 0.843596 0.784715 -0.181593
C34   C     C_R   0.522405 0.497738 0.312385 0.898695
C35   C     C_R   0.264741 0.879703 0.691351 -0.130085
C36   C     C_3   0.142016 0.422404 0.385791 -0.795211
C37   C     C_3   0.897091 0.661232 0.529669 -0.818325
C38   C     C_1   0.540381 0.509750 0.208333 -0.196203
C39   C     C_1   0.463203 0.508800 0.792492 -0.171987
C40   C     C_2   0.564629 0.537016 0.016209 -0.034142
C41   C     C_2   0.448891 0.535756 0.985483 -0.043111
C42   C     C_2   0.934195 0.528394 0.492259 0.207195
H1    H     H_    0.104467 0.598417 0.605188 0.142305
H2    H     H_    0.774199 0.396677 0.024518 0.128241
H3    H     H_    0.005480 0.414394 0.918606 0.133428
H4    H     H_    0.069478 0.567756 0.781418 0.147479
H5    H     H_    0.899941 0.705065 0.749211 0.117811
H6    H     H_    0.669721 0.693604 0.856362 0.116994
H7    H     H_    0.457374 0.191493 0.765757 0.123235
H8    H     H_    0.627491 0.292013 0.852293 0.141190
H9    H     H_    0.869877 0.300394 0.764695 0.141826
H10   H     H_    0.942176 0.208958 0.590782 0.129654
H11   H     H_    0.774105 0.106568 0.503827 0.109371
H12   H     H_    0.873213 0.355948 0.442416 0.146895
H13   H     H_    0.570574 0.846485 0.739612 0.121344
H14   H     H_    0.424336 0.785281 0.904835 0.134113
H15   H     H_    0.176394 0.780989 0.933793 0.145030
H16   H     H_    0.074789 0.846235 0.798570 0.133848
H17   H     H_    0.219113 0.910253 0.633659 0.116948
H18   H     H_    0.068591 0.370195 0.348200 0.174772
H19   H     H_    0.200060 0.488209 0.327888 0.268875
H20   H     H_    0.204135 0.349686 0.402846 0.258325
H21   H     H_    0.978104 0.719676 0.555265 0.173896
H22   H     H_    0.881451 0.714081 0.465838 0.245281
H23   H     H_    0.337869 0.076977 0.509970 0.139325
H24   H     H_    0.807450 0.657069 0.594293 0.260182
H25   H     H_    0.655233 0.919386 0.452190 0.134987
H26   H     H_    0.369648 0.726408 0.126460 0.127801
H27   H     H_    0.144043 0.747994 0.239021 0.134100
H28   H     H_    0.958749 0.583115 0.233104 0.146343
H29   H     H_    0.999632 0.395562 0.114189 0.126948
H30   H     H_    0.224320 0.372497 0.000431 0.122644
N1    N     N_2   0.847200 0.448220 0.460120 -0.192612
N2    N     N_2   0.152800 0.551780 0.539880 -0.194019
O1    O     O_R   0.430150 0.692610 0.508030 -0.585458
O2    O     O_R   0.569850 0.307390 0.491970 -0.593465
O3    O     O_R   0.653100 0.659360 0.482430 -0.615958
O4    O     O_R   0.346900 0.340640 0.517570 -0.617544
O5    O     O_R   0.372470 0.518990 0.654990 -0.607903
O6    O     O_R   0.627530 0.481010 0.345010 -0.607640
O7    O     O_R   0.595430 0.485740 0.629390 -0.593782
O8    O     O_R   0.404570 0.514260 0.370610 -0.607004
Zn1   Zn    Zn3+2 0.351130 0.522200 0.517090 0.926778
Zn2   Zn    Zn3+2 0.648870 0.477800 0.482910 0.929967

loop_
_geom_bond_atom_site_label_1
_geom_bond_atom_site_label_2
_ccdc_geom_bond_type
C16   C21   A    
C7    C29   S    
O7    Zn2   S    
C1    O3    A    
C14   H29   S    
C19   C20   A    
N2    Zn1   S    
C5    H25   S    
O2    Zn2   S    
C19   H4    S    
C7    C8    S    
C15   H30   S    
C26   C27   A    
C33   H16   S    
C1    C5    S    
C6    C12   S    
C30   C31   A    
C13   H28   S    
C35   H17   S    
C18   C19   A    
C37   C42   S    
C25   H8    S    
C34   O6    A    
O4    Zn1   S    
C6    H23   S    
C4    C40   S    
C16   C17   A    
C12   O4    A    
C8    C22   S    
C31   H14   S    
C9    C10   A    
N1    Zn2   S    
C2    N2    D    
O6    Zn2   S    
C21   H6    S    
H1    N2    S    
C3    C39   T    
C22   C28   A    
C13   C14   A    
C32   H15   S    
C36   H20   S    
C37   H21   S    
C1    O1    A    
C24   C25   A    
C5    C7    D    
C6    C8    D    
O3    Zn2   S    
C25   C26   A    
C29   C30   A    
H12   N1    S    
C31   C32   A    
C37   H24   S    
C17   C18   A    
C16   C40   S    
C40   C41   D    
C4    C38   T    
C12   O2    A    
C22   C24   A    
C36   H19   S    
C18   H3    S    
C37   H22   S    
C27   H10   S    
C2    C36   S    
C24   H7    S    
C3    C41   S    
C42   N1    D    
C23   O7    A    
C34   C38   S    
C36   H18   S    
C28   H11   S    
C11   H27   S    
C10   H26   S    
C30   H13   S    
C29   C35   A    
C9    C41   S    
C32   C33   A    
C9    C15   A    
C17   H2    S    
C26   H9    S    
O5    Zn1   S    
C11   C13   A    
O1    Zn1   S    
C2    C42   S    
C23   C39   S    
C33   C35   A    
C20   H5    S    
C10   C11   A    
C20   C21   A    
O8    Zn1   S    
C27   C28   A    
C14   C15   A    
C34   O8    A    
C23   O5    A    
