data_mof_unit_3791.cif
_audit_creation_date              2012-12-10T21:07:46-0500
_audit_creation_method            fapswitch 2.2
_symmetry_space_group_name_H-M    P1
_symmetry_Int_Tables_number       1
_space_group_crystal_system       triclinic
_cell_length_a                    8.553109
_cell_length_b                    17.408093
_cell_length_c                    16.756588
_cell_angle_alpha                 89.893402
_cell_angle_beta                  97.940074
_cell_angle_gamma                 91.118095
_cell_volume                      2470.5537987

loop_
_atom_site_label
_atom_site_type_symbol
_atom_type_description
_atom_site_fract_x
_atom_site_fract_y
_atom_site_fract_z
_atom_type_partial_charge
C1    C     C_R   0.502846 0.352971 0.500233 1.010151
C2    C     C_R   0.380844 0.463237 0.244044 -0.262682
C3    C     C_R   0.626744 0.536792 0.840982 0.477847
C4    C     C_R   0.373563 0.464149 0.158716 0.478821
C5    C     C_R   0.504543 0.500146 0.875754 -0.017993
C6    C     C_R   0.497573 0.499618 0.124297 -0.022307
C7    C     C_1   0.502776 0.500026 0.963609 0.064294
C8    C     C_1   0.500146 0.499669 0.036527 0.065600
C9    C     C_R   0.201131 0.494209 0.479677 0.916968
C10   C     C_R   0.798950 0.505433 0.520296 0.924702
C11   C     C_2   0.035850 0.481255 0.472616 0.243147
C12   C     C_R   0.499661 0.647216 0.499586 1.003623
C13   C     C_2   0.964173 0.518227 0.527212 0.235119
C14   C     C_R   0.657912 0.844746 0.554056 -0.310214
C15   C     C_R   0.485499 0.148201 0.433771 -0.356317
C16   C     C_R   0.620345 0.767218 0.561161 0.479006
C17   C     C_R   0.455355 0.226319 0.435298 0.462650
C18   C     C_R   0.519934 0.730433 0.498388 -0.323793
C19   C     C_R   0.527704 0.270597 0.500791 -0.303731
C20   C     C_R   0.451718 0.772355 0.430370 0.330562
C21   C     C_R   0.635370 0.237706 0.562518 0.307584
C22   C     C_R   0.489193 0.850804 0.424357 0.412507
C23   C     C_1   0.607209 0.967081 0.490629 0.035630
C24   C     C_R   0.675923 0.160085 0.555420 0.406085
C25   C     C_R   0.590758 0.886172 0.487534 -0.132788
C26   C     C_R   0.594397 0.115902 0.492965 -0.092664
C27   C     C_3   0.002936 0.409916 0.354021 -0.248341
C28   C     C_3   0.001896 0.588417 0.646297 -0.234136
C29   C     C_3   0.619837 0.744204 0.694656 -0.290684
C30   C     C_3   0.390353 0.255290 0.301822 -0.270438
C31   C     C_3   0.385113 0.718381 0.303875 0.178167
C32   C     C_3   0.267431 0.744312 0.232419 -0.353571
C33   C     C_3   0.319196 0.720471 0.152597 -0.989658
C34   C     C_1   0.608822 0.035285 0.492421 0.064658
C35   C     C_3   0.683733 0.259832 0.701581 0.122643
C36   C     C_3   0.507981 0.248399 0.710639 -0.382881
C37   C     C_3   0.486380 0.235802 0.798625 -0.962045
C38   C     C_3   0.510212 0.917307 0.307877 0.059458
C39   C     C_3   0.422766 0.971561 0.245992 -0.311217
C40   C     C_3   0.528983 0.000106 0.185670 -0.972725
C41   C     C_3   0.940631 0.148203 0.599611 0.079392
C42   C     C_3   0.007359 0.090431 0.545006 -0.356007
C43   C     C_3   0.181246 0.107498 0.540019 -0.920620
C44   C     C_3   0.151319 0.382635 0.721310 -0.403607
C45   C     C_R   0.383755 0.462009 0.825050 -0.500339
C46   C     C_3   0.807765 0.638480 0.279236 -0.386496
C47   C     C_3   0.895694 0.561197 0.869811 -0.343846
C48   C     C_3   0.103890 0.446276 0.127376 -0.339170
C49   C     C_R   0.618998 0.536814 0.175441 -0.491328
C50   C     C_R   0.382603 0.461260 0.739623 0.687190
C51   C     C_R   0.616801 0.539099 0.260413 0.663979
C52   C     C_R   0.618872 0.537279 0.755610 -0.252234
H1    H     H_    0.736269 0.873211 0.601845 0.186531
H2    H     H_    0.002401 0.531637 0.676752 0.156313
H3    H     H_    0.887568 0.616838 0.647045 0.212360
H4    H     H_    0.094411 0.624951 0.681433 0.180490
H5    H     H_    0.491290 0.729568 0.684723 0.177308
H6    H     H_    0.639133 0.805676 0.711895 0.159428
H7    H     H_    0.674616 0.709522 0.746281 0.191455
H8    H     H_    0.387596 0.195482 0.278554 0.155593
H9    H     H_    0.509886 0.281974 0.302105 0.172731
H10   H     H_    0.306624 0.288541 0.259270 0.185308
H11   H     H_    0.388884 0.654841 0.301044 0.174863
H12   H     H_    0.420241 0.112112 0.387654 0.182743
H13   H     H_    0.505674 0.740799 0.297477 0.089525
H14   H     H_    0.149430 0.718078 0.236958 0.218393
H15   H     H_    0.256645 0.807645 0.233725 0.247621
H16   H     H_    0.436048 0.746952 0.146202 0.266124
H17   H     H_    0.231587 0.740059 0.101895 0.274827
H18   H     H_    0.327027 0.656936 0.149380 0.267057
H19   H     H_    0.733783 0.305391 0.744573 0.150810
H20   H     H_    0.750550 0.207477 0.720496 0.175415
H21   H     H_    0.441449 0.299565 0.687387 0.271751
H22   H     H_    0.458186 0.197494 0.675353 0.209223
H23   H     H_    0.292636 0.433258 0.853361 0.183890
H24   H     H_    0.556686 0.186260 0.823955 0.270278
H25   H     H_    0.360076 0.223293 0.802942 0.260516
H26   H     H_    0.524148 0.288111 0.834642 0.269437
H27   H     H_    0.548359 0.866787 0.275654 0.128454
H28   H     H_    0.617511 0.948031 0.337964 0.141405
H29   H     H_    0.317909 0.941356 0.212894 0.220908
H30   H     H_    0.381109 0.021711 0.277462 0.218006
H31   H     H_    0.632760 0.032322 0.217246 0.264842
H32   H     H_    0.461812 0.039086 0.141558 0.266866
H33   H     H_    0.570247 0.950909 0.152527 0.267499
H34   H     H_    0.714206 0.563595 0.148496 0.184819
H35   H     H_    0.015239 0.148479 0.659414 0.160396
H36   H     H_    0.949070 0.207538 0.574943 0.159766
H37   H     H_    0.994621 0.031366 0.568931 0.238969
H38   H     H_    0.940058 0.093061 0.483434 0.218874
H39   H     H_    0.196519 0.166481 0.516581 0.278255
H40   H     H_    0.225011 0.065699 0.498715 0.280392
H41   H     H_    0.252304 0.102265 0.600402 0.255367
H42   H     H_    0.081236 0.422005 0.753858 0.156056
H43   H     H_    0.204003 0.336386 0.761453 0.175421
H44   H     H_    0.068299 0.354659 0.672776 0.220446
H45   H     H_    0.707355 0.567784 0.727455 0.164762
H46   H     H_    0.721742 0.675239 0.241478 0.150202
H47   H     H_    0.899833 0.617479 0.244357 0.167979
H48   H     H_    0.868403 0.675101 0.328622 0.215369
H49   H     H_    0.921109 0.600124 0.820434 0.157784
H50   H     H_    0.909313 0.499968 0.853123 0.148384
H51   H     H_    0.985693 0.573875 0.922643 0.205704
H52   H     H_    0.096298 0.508586 0.141367 0.154630
H53   H     H_    0.072313 0.410440 0.177872 0.154159
H54   H     H_    0.014494 0.433781 0.074243 0.204545
H55   H     H_    0.291399 0.432948 0.271738 0.160490
H56   H     H_    0.117912 0.381088 0.355770 0.196296
H57   H     H_    0.003149 0.466317 0.322450 0.169061
H58   H     H_    0.912351 0.372722 0.318368 0.180020
N1    N     N_R   0.500040 0.500030 0.707230 -0.137628
N2    N     N_R   0.499960 0.499970 0.292770 -0.147221
O1    O     O_R   0.500000 0.389130 0.566570 -0.578931
O2    O     O_3   0.035701 0.583273 0.566611 -0.626609
O3    O     O_3   0.691856 0.726057 0.626409 -0.611438
O4    O     O_3   0.341134 0.258177 0.378751 -0.609380
O5    O     O_3   0.330607 0.739550 0.376725 -0.612876
O6    O     O_3   0.710414 0.284765 0.623742 -0.642094
O7    O     O_3   0.407547 0.894066 0.363222 -0.618540
O8    O     O_3   0.785924 0.125408 0.611823 -0.657505
O9    O     O_3   0.267986 0.423204 0.685548 -0.584163
O10   O     O_3   0.733238 0.576208 0.313843 -0.576630
O11   O     O_3   0.745055 0.575695 0.891335 -0.603718
O12   O     O_R   0.500000 0.610870 0.433430 -0.614526
O13   O     O_3   0.253768 0.426496 0.108275 -0.604783
O14   O     O_R   0.499990 0.389100 0.433480 -0.599307
O15   O     O_R   0.500010 0.610900 0.566520 -0.587072
O16   O     O_R   0.271750 0.500010 0.550980 -0.544199
O17   O     O_R   0.728250 0.499990 0.449020 -0.540577
O18   O     O_R   0.271740 0.499980 0.417890 -0.663056
O19   O     O_R   0.728260 0.500020 0.582110 -0.653416
O20   O     O_3   0.963767 0.416573 0.432615 -0.633358
Zn1   Zn    Zn3+2 0.500010 0.500020 0.588860 1.016790
Zn2   Zn    Zn3+2 0.499990 0.499980 0.411140 0.996172

loop_
_geom_bond_atom_site_label_1
_geom_bond_atom_site_label_2
_ccdc_geom_bond_type
C46   H47   S    
C51   N2    A    
C47   H49   S    
C41   C42   S    
C40   H32   S    
C35   C36   S    
C11   O20   S    
C28   H4    S    
C7    C8    T    
C12   O15   A    
C30   O4    S    
C9    O18   A    
C2    N2    A    
C38   H28   S    
C4    O13   S    
C45   C50   A    
C36   C37   S    
C19   C21   A    
C24   C26   A    
C38   C39   S    
C38   H27   S    
C48   H52   S    
C52   H45   S    
C15   C17   A    
C10   O19   A    
C31   O5    S    
C17   C19   A    
C48   O13   S    
C26   C34   S    
C48   H54   S    
C29   H7    S    
C27   H58   S    
C49   C51   A    
C22   C25   A    
C30   H8    S    
C15   H12   S    
C13   O2    S    
C33   H17   S    
C46   H46   S    
C35   H19   S    
C41   O8    S    
C47   H50   S    
O1    Zn1   S    
C27   O20   S    
C40   H31   S    
O18   Zn2   S    
C50   O9    S    
C1    O1    A    
C20   O5    S    
C28   H3    S    
C3    O11   S    
C22   O7    S    
C41   H35   S    
C1    C19   S    
C9    O16   A    
C24   O8    S    
C17   O4    S    
C31   H11   S    
C47   H51   S    
C1    O14   A    
C39   H29   S    
C4    C6    A    
N2    Zn2   S    
C39   C40   S    
C5    C7    S    
C28   H2    S    
N1    Zn1   S    
C15   C26   A    
C6    C8    S    
C52   N1    A    
O19   Zn1   S    
C5    C45   A    
C43   H39   S    
C42   H38   S    
C40   H33   S    
C2    C4    A    
C21   O6    S    
C44   H44   S    
C47   O11   S    
C48   H53   S    
C12   O12   A    
C23   C34   T    
C9    C11   S    
O14   Zn2   S    
C28   O2    S    
C33   H18   S    
C32   H15   S    
C38   O7    S    
C37   H24   S    
C29   H5    S    
C35   H20   S    
C30   H10   S    
C2    H55   S    
C14   C16   A    
C21   C24   A    
C42   C43   S    
C16   O3    S    
C44   O9    S    
C32   H14   S    
C31   H13   S    
C41   H36   S    
C46   H48   S    
C36   H22   S    
C49   H34   S    
C31   C32   S    
O15   Zn1   S    
C39   H30   S    
C20   C22   A    
C3    C5    A    
C10   C13   S    
C3    C52   A    
C37   H26   S    
C43   H40   S    
O12   Zn2   S    
C45   H23   S    
C42   H37   S    
C32   C33   S    
C10   O17   A    
C44   H43   S    
O16   Zn1   S    
C11   C13   D    
C37   H25   S    
C27   H56   S    
C50   N1    A    
C43   H41   S    
C18   C20   A    
C23   C25   S    
C14   C25   A    
C29   O3    S    
C44   H42   S    
C36   H21   S    
O17   Zn2   S    
C14   H1    S    
C29   H6    S    
C27   H57   S    
C16   C18   A    
C30   H9    S    
C12   C18   S    
C51   O10   S    
C46   O10   S    
C35   O6    S    
C6    C49   A    
C33   H16   S    
