data_mof_unit_476.cif
_audit_creation_date              2012-12-10T18:22:13-0500
_audit_creation_method            fapswitch 2.2
_symmetry_space_group_name_H-M    P1
_symmetry_Int_Tables_number       1
_space_group_crystal_system       triclinic
_cell_length_a                    14.995679
_cell_length_b                    14.012235
_cell_length_c                    15.751235
_cell_angle_alpha                 89.805896
_cell_angle_beta                  90.39455
_cell_angle_gamma                 89.992791
_cell_volume                      3309.59890653

loop_
_atom_site_label
_atom_site_type_symbol
_atom_type_description
_atom_site_fract_x
_atom_site_fract_y
_atom_site_fract_z
_atom_type_partial_charge
C1    C     C_R   0.326641 0.500166 0.496016 0.968975
C2    C     C_R   0.908184 0.423772 0.535325 0.109952
C3    C     C_R   0.953402 0.503212 0.500805 0.094012
C4    C     C_R   0.500546 0.500152 0.338156 0.929991
C5    C     C_R   0.905534 0.582241 0.468896 0.120445
C6    C     C_R   0.956003 0.346711 0.569253 -0.211459
C7    C     C_R   0.048634 0.347983 0.568502 -0.120836
C8    C     C_R   0.093718 0.425256 0.531941 0.105036
C9    C     C_R   0.046320 0.503094 0.497224 0.008168
C10   C     C_R   0.091410 0.579992 0.457788 -0.020129
C11   C     C_R   0.042450 0.660401 0.430776 -0.096633
C12   C     C_3   0.578411 0.452622 0.953423 -0.392392
C13   C     C_R   0.950237 0.661236 0.435976 -0.224808
C14   C     C_R   0.185662 0.426629 0.530955 -0.241228
C15   C     C_R   0.230711 0.500591 0.489971 -0.196409
C16   C     C_R   0.673397 0.500064 0.500721 0.874622
C17   C     C_R   0.183960 0.574094 0.446702 0.313630
C18   C     C_R   0.568944 0.798906 0.464544 -0.039089
C19   C     C_R   0.569360 0.201314 0.465246 -0.056061
C20   C     C_R   0.430691 0.797094 0.536555 0.134833
C21   C     C_R   0.429113 0.202566 0.533710 0.079313
C22   C     C_R   0.427630 0.898349 0.539127 -0.175384
C23   C     C_3   0.579014 0.458849 0.051276 -0.582298
C24   C     C_R   0.424399 0.101349 0.532986 -0.165353
C25   C     C_R   0.497802 0.949414 0.500731 0.031712
C26   C     C_R   0.497579 0.050506 0.500229 0.035435
C27   C     C_R   0.569677 0.899287 0.464226 0.068649
C28   C     C_R   0.570050 0.100899 0.464824 0.065444
C29   C     C_R   0.356412 0.949441 0.577313 0.321407
C30   C     C_R   0.349649 0.050115 0.564443 0.304253
C31   C     C_R   0.641242 0.050168 0.429247 -0.185688
C32   C     C_R   0.640850 0.950246 0.428577 -0.179467
C33   C     C_R   0.499891 0.499863 0.661832 0.903776
C34   C     C_1   0.496156 0.500280 0.825806 -0.032305
C35   C     C_3   0.488541 0.608468 0.046508 0.303435
C36   C     C_3   0.413679 0.438248 0.046464 0.337049
C37   C     C_3   0.409133 0.449649 0.948767 -0.431568
C38   C     C_3   0.490705 0.606155 0.948218 -0.414761
C39   C     C_1   0.498111 0.499702 0.750605 -0.142687
C40   C     C_3   0.490064 0.503616 0.082716 0.047018
C41   C     C_3   0.493803 0.501769 0.917092 0.166844
C42   C     C_1   0.493456 0.502230 0.174157 0.040258
C43   C     C_1   0.497235 0.500823 0.249370 -0.063080
C44   C     C_R   0.813431 0.580891 0.470247 -0.246889
C45   C     C_R   0.769017 0.500905 0.501783 -0.063877
C46   C     C_R   0.815740 0.422765 0.534751 -0.252299
H1    H     H_    0.431544 0.642721 0.920059 0.240027
H2    H     H_    0.377516 0.244650 0.562865 0.189151
H3    H     H_    0.697145 0.087825 0.401631 0.147336
H4    H     H_    0.696494 0.912759 0.400517 0.143096
H5    H     H_    0.435097 0.363215 0.058364 0.121628
H6    H     H_    0.551197 0.643808 0.068189 0.093395
H7    H     H_    0.403356 0.377940 0.918941 0.176498
H8    H     H_    0.550493 0.645551 0.925432 0.166541
H9    H     H_    0.637095 0.502389 0.072582 0.205742
H10   H     H_    0.588850 0.386105 0.078544 0.208992
H11   H     H_    0.639497 0.487370 0.928055 0.197768
H12   H     H_    0.349631 0.491485 0.928755 0.246127
H13   H     H_    0.579769 0.376394 0.933766 0.199034
H14   H     H_    0.776269 0.641207 0.444977 0.151728
H15   H     H_    0.780196 0.361846 0.560439 0.160868
H16   H     H_    0.921833 0.285821 0.596443 0.165948
H17   H     H_    0.154319 0.609550 0.263551 0.373637
H18   H     H_    0.191524 0.926046 0.748616 0.394149
H19   H     H_    0.160344 0.009389 0.508857 0.369853
H20   H     H_    0.258757 0.699631 0.066539 0.409756
H21   H     H_    0.224893 0.338115 0.163117 0.390802
H22   H     H_    0.084983 0.288148 0.595478 0.215445
H23   H     H_    0.222486 0.369866 0.562489 0.210882
H24   H     H_    0.074598 0.723978 0.406961 0.229412
H25   H     H_    0.913845 0.723346 0.413540 0.156724
H26   H     H_    0.623216 0.759484 0.436305 0.125990
H27   H     H_    0.624185 0.240916 0.437967 0.137305
H28   H     H_    0.376939 0.754488 0.561373 0.204498
N1    N     N_R   0.500070 0.750030 0.500040 -0.125133
N2    N     N_R   0.500070 0.249970 0.500040 -0.124638
O1    O     O_R   0.367860 0.580280 0.500020 -0.579832
O2    O     O_2   0.319385 0.602141 0.335558 -0.240100
O3    O     O_3   0.168856 0.672752 0.288004 -0.512436
O4    O     O_2   0.212965 0.837479 0.598703 -0.278629
O5    O     O_2   0.335530 0.817728 0.700792 -0.314402
O6    O     O_3   0.234984 0.965234 0.716746 -0.434067
O7    O     O_2   0.242363 0.160103 0.658738 -0.250175
O8    O     O_2   0.234386 0.183008 0.505048 -0.349450
O9    O     O_3   0.158452 0.034177 0.567645 -0.446777
O10   O     O_2   0.395344 0.684371 0.177981 -0.197665
O11   O     O_2   0.424041 0.786655 0.055541 -0.273954
O12   O     O_R   0.367860 0.419720 0.500020 -0.627743
O13   O     O_3   0.302693 0.656988 0.039280 -0.483086
O14   O     O_2   0.302408 0.511439 0.168865 -0.215102
O15   O     O_2   0.233072 0.467447 0.033536 -0.254786
O16   O     O_3   0.283625 0.332462 0.135160 -0.543344
O17   O     O_R   0.500020 0.580310 0.377140 -0.569857
O18   O     O_R   0.500020 0.419690 0.377140 -0.618262
O19   O     O_R   0.632160 0.580270 0.499980 -0.640722
O20   O     O_R   0.632160 0.419730 0.499980 -0.637930
O21   O     O_R   0.500010 0.580240 0.622850 -0.610303
O22   O     O_R   0.500010 0.419760 0.622850 -0.621878
O23   O     O_2   0.263517 0.741441 0.411863 -0.252372
S1    S     S_3+6 0.237581 0.649080 0.370317 0.074301
S2    S     S_3+6 0.283507 0.889086 0.648917 0.068036
S3    S     S_3+6 0.245064 0.110020 0.574591 0.053339
S4    S     S_3+6 0.401389 0.686726 0.082842 0.080455
S5    S     S_3+6 0.305063 0.442069 0.096566 0.063159
Zn1   Zn    Zn3+2 0.500020 0.607200 0.499990 1.025583
Zn2   Zn    Zn3+2 0.500020 0.392800 0.499990 0.975873

loop_
_geom_bond_atom_site_label_1
_geom_bond_atom_site_label_2
_ccdc_geom_bond_type
C18   N1    A    
O7    S3    D    
C1    O1    A    
O15   S5    D    
C11   H24   S    
C7    C8    A    
H17   O3    S    
C45   C46   A    
C2    C46   A    
C21   N2    A    
C12   C41   S    
C19   N2    A    
C22   C29   A    
C24   C26   A    
C35   S4    S    
C10   C17   A    
C23   C40   S    
O8    S3    D    
C33   O22   A    
C23   H10   S    
O19   Zn1   S    
O17   Zn1   S    
C7    H22   S    
C12   H13   S    
O18   Zn2   S    
O23   S1    D    
C8    C9    A    
C22   C25   A    
C38   H8    S    
N2    Zn2   S    
C1    C15   S    
C9    C10   A    
C5    C13   A    
C37   H12   S    
C21   H2    S    
O21   Zn1   S    
C1    O12   A    
C40   C42   S    
O13   S4    S    
C2    C6    A    
C34   C41   S    
C31   H3    S    
O10   S4    D    
H20   O13   S    
C18   H26   S    
C16   O20   A    
C46   H15   S    
C29   S2    S    
C34   C39   T    
O3    S1    S    
C19   H27   S    
C35   C38   S    
C38   C41   S    
O5    S2    D    
C13   H25   S    
C25   C26   A    
C20   N1    A    
C29   C30   A    
C3    C9    A    
O12   Zn2   S    
C31   C32   A    
C12   C23   S    
C36   C40   S    
O14   S5    D    
C30   S3    S    
C20   H28   S    
C33   C39   S    
C23   H9    S    
C19   C28   A    
H18   O6    S    
C38   H1    S    
C36   H5    S    
O11   S4    D    
C12   H11   S    
C5    C44   A    
C20   C22   A    
N1    Zn1   S    
O2    S1    D    
C14   H23   S    
C4    O18   A    
C42   C43   T    
C44   C45   A    
C15   C17   A    
O20   Zn2   S    
C36   C37   S    
C16   O19   A    
C8    C14   A    
C27   C32   A    
C28   C31   A    
C32   H4    S    
C18   C27   A    
C3    C5    A    
C16   C45   S    
H19   O9    S    
C6    C7    A    
C4    C43   S    
C25   C27   A    
C26   C28   A    
O22   Zn2   S    
O4    S2    D    
C36   S5    S    
C6    H16   S    
O1    Zn1   S    
C35   C40   S    
C37   H7    S    
C11   C13   A    
C44   H14   S    
H21   O16   S    
O6    S2    S    
C2    C3    A    
C33   O21   A    
C37   C41   S    
C17   S1    S    
C24   C30   A    
C10   C11   A    
O16   S5    S    
C4    O17   A    
C21   C24   A    
C35   H6    S    
C14   C15   A    
O9    S3    S    
