data_mof_unit_364.cif
_audit_creation_date              2012-12-10T16:36:43-0500
_audit_creation_method            fapswitch 2.2
_symmetry_space_group_name_H-M    P1
_symmetry_Int_Tables_number       1
_space_group_crystal_system       triclinic
_cell_length_a                    14.200572
_cell_length_b                    16.436008
_cell_length_c                    15.149179
_cell_angle_alpha                 89.645629
_cell_angle_beta                  92.082919
_cell_angle_gamma                 90.081036
_cell_volume                      3533.42290708

loop_
_atom_site_label
_atom_site_type_symbol
_atom_type_description
_atom_site_fract_x
_atom_site_fract_y
_atom_site_fract_z
_atom_type_partial_charge
C1    C     C_R   0.679241 0.844517 0.519793 0.809860
C2    C     C_R   0.958820 0.471201 0.109751 0.363035
C3    C     C_R   0.596396 0.059414 0.129546 0.264137
C4    C     C_R   0.096234 0.559590 0.129567 0.264120
C5    C     C_R   0.596637 0.072953 0.037574 0.462738
C6    C     C_R   0.096422 0.573165 0.037597 0.462805
C7    C     C_2   0.248411 0.220082 0.474138 0.220879
C8    C     C_2   0.248992 0.779475 0.474018 0.211053
C9    C     C_2   0.748409 0.720080 0.474140 0.220841
C10   C     C_2   0.749040 0.279436 0.473979 0.211018
C11   C     C_2   0.751620 0.783299 0.531013 0.284961
C12   C     C_R   0.679658 0.154876 0.519863 0.816009
C13   C     C_2   0.753775 0.214666 0.529412 0.283928
C14   C     C_2   0.251620 0.283298 0.531015 0.284963
C15   C     C_2   0.253784 0.714663 0.529385 0.283740
C16   C     C_R   0.319764 0.155993 0.481052 0.810079
C17   C     C_R   0.320601 0.843275 0.480333 0.814144
C18   C     C_R   0.819764 0.655993 0.481052 0.810078
C19   C     C_R   0.820606 0.343272 0.480331 0.814076
C20   C     C_R   0.520369 0.000868 0.260822 0.947631
C21   C     C_R   0.020368 0.500867 0.260825 0.947782
C22   C     C_R   0.478158 0.999483 0.738489 0.940330
C23   C     C_R   0.179241 0.344517 0.519794 0.809848
C24   C     C_R   0.978156 0.499482 0.738492 0.940074
C25   C     C_R   0.526945 0.009146 0.164883 -0.222363
C26   C     C_R   0.026936 0.509159 0.164893 -0.222227
C27   C     C_R   0.469844 0.996770 0.833754 -0.313054
C28   C     C_R   0.969839 0.496757 0.833764 -0.313089
C29   C     C_R   0.390108 0.945537 0.961365 0.504145
C30   C     C_R   0.890266 0.445310 0.961379 0.504126
C31   C     C_R   0.398431 0.949428 0.869601 0.305488
C32   C     C_R   0.898571 0.449243 0.869613 0.305496
C33   C     C_R   0.537688 0.035797 0.888053 0.458467
C34   C     C_R   0.179661 0.654875 0.519862 0.816084
C35   C     C_R   0.037560 0.535934 0.888069 0.458450
C36   C     C_3   0.235467 0.954496 0.993420 -0.292305
C37   C     C_3   0.735600 0.453888 0.993449 -0.292554
C38   C     C_3   0.622210 0.205167 0.001739 -0.228087
C39   C     C_3   0.121590 0.705444 0.001791 -0.228113
C40   C     C_3   0.347740 0.827909 0.813206 -0.180354
C41   C     C_3   0.848223 0.327614 0.813234 -0.179912
C42   C     C_3   0.685933 0.022295 0.838383 -0.242640
C43   C     C_3   0.185846 0.522807 0.838379 -0.242212
C44   C     C_3   0.608461 0.666785 0.424929 -0.282721
C45   C     C_R   0.531697 0.030945 0.980850 -0.252074
C46   C     C_3   0.697968 0.266539 0.330698 -0.261253
C47   C     C_3   0.108469 0.166788 0.424912 -0.282876
C48   C     C_3   0.197634 0.766696 0.330807 -0.261312
C49   C     C_3   0.329300 0.360957 0.640198 -0.286446
C50   C     C_3   0.317284 0.644758 0.652906 -0.352065
C51   C     C_3   0.829325 0.860969 0.640171 -0.286448
C52   C     C_3   0.817207 0.144583 0.652886 -0.352581
C53   C     C_R   0.031595 0.531035 0.980867 -0.252169
C54   C     C_R   0.459734 0.982229 0.017603 -0.226295
C55   C     C_R   0.959787 0.482143 0.017616 -0.226238
C56   C     C_R   0.458721 0.971321 0.109740 0.363043
H1    H     H_    0.340811 0.952540 0.161501 0.351671
H2    H     H_    0.677869 0.421906 0.026880 0.179975
H3    H     H_    0.607280 0.226575 0.069368 0.141240
H4    H     H_    0.556958 0.207648 0.958797 0.171752
H5    H     H_    0.673849 0.247913 0.973581 0.208941
H6    H     H_    0.106575 0.726793 0.069424 0.141208
H7    H     H_    0.056338 0.707791 0.958838 0.171806
H8    H     H_    0.173105 0.748320 0.973657 0.208875
H9    H     H_    0.325347 0.798793 0.875367 0.189334
H10   H     H_    0.422693 0.812776 0.801537 0.158893
H11   H     H_    0.304407 0.801252 0.758294 0.192980
H12   H     H_    0.840975 0.452144 0.161525 0.351644
H13   H     H_    0.825846 0.298448 0.875372 0.189173
H14   H     H_    0.923232 0.312632 0.801630 0.158796
H15   H     H_    0.805015 0.300873 0.758287 0.193396
H16   H     H_    0.666921 0.975282 0.788360 0.108806
H17   H     H_    0.708890 0.992640 0.901846 0.176504
H18   H     H_    0.747122 0.056703 0.814173 0.166736
H19   H     H_    0.167039 0.475876 0.788205 0.108565
H20   H     H_    0.208788 0.493050 0.901791 0.176233
H21   H     H_    0.246982 0.557401 0.814353 0.166832
H22   H     H_    0.574165 0.686197 0.486274 0.173640
H23   H     H_    0.710637 0.123948 0.153167 0.368937
H24   H     H_    0.632580 0.602628 0.431542 0.183598
H25   H     H_    0.554220 0.669210 0.370407 0.200600
H26   H     H_    0.724931 0.202976 0.330041 0.188917
H27   H     H_    0.751089 0.308940 0.303957 0.189431
H28   H     H_    0.634580 0.269069 0.285757 0.202399
H29   H     H_    0.074189 0.186171 0.486276 0.173538
H30   H     H_    0.132584 0.102627 0.431484 0.183661
H31   H     H_    0.054215 0.169240 0.370403 0.200570
H32   H     H_    0.224564 0.703125 0.330062 0.188947
H33   H     H_    0.250716 0.809094 0.303995 0.189546
H34   H     H_    0.210246 0.624420 0.153203 0.368940
H35   H     H_    0.134158 0.769269 0.285980 0.202378
H36   H     H_    0.265994 0.384328 0.672853 0.132255
H37   H     H_    0.352260 0.404022 0.588184 0.159153
H38   H     H_    0.387137 0.357027 0.691256 0.198045
H39   H     H_    0.308711 0.581970 0.626884 0.152243
H40   H     H_    0.255132 0.662838 0.690914 0.173697
H41   H     H_    0.379471 0.644673 0.699384 0.191545
H42   H     H_    0.766027 0.884355 0.672827 0.132220
H43   H     H_    0.852285 0.904019 0.588144 0.159116
H44   H     H_    0.887167 0.857041 0.691224 0.198057
H45   H     H_    0.210338 0.967744 0.924479 0.195905
H46   H     H_    0.808920 0.081876 0.626569 0.152415
H47   H     H_    0.754915 0.162343 0.690867 0.174113
H48   H     H_    0.879306 0.144492 0.699469 0.191533
H49   H     H_    0.249805 0.012319 0.029476 0.143421
H50   H     H_    0.177642 0.922677 0.026885 0.180040
H51   H     H_    0.710444 0.467120 0.924511 0.195908
H52   H     H_    0.749744 0.511722 0.029546 0.143507
O1    O     O_3   0.500000 0.000000 0.500000 -0.517923
O2    O     O_R   0.885830 0.337110 0.539910 -0.596950
O3    O     O_R   0.692160 0.095230 0.468550 -0.653964
O4    O     O_R   0.692160 0.904770 0.468550 -0.643165
O5    O     O_R   0.192160 0.595230 0.468550 -0.653824
O6    O     O_R   0.192160 0.404770 0.468550 -0.643143
O7    O     O_R   0.316720 0.904790 0.427870 -0.631036
O8    O     O_R   0.316720 0.095210 0.427870 -0.633266
O9    O     O_R   0.816720 0.404790 0.427870 -0.631033
O10   O     O_R   0.816720 0.595210 0.427870 -0.633246
O11   O     O_R   0.594900 0.000000 0.310900 -0.581948
O12   O     O_3   0.000000 0.500000 0.500000 -0.517948
O13   O     O_R   0.094900 0.500000 0.310900 -0.582036
O14   O     O_R   0.483090 0.932320 0.697550 -0.649051
O15   O     O_R   0.483090 0.067680 0.697550 -0.612154
O16   O     O_R   0.983090 0.432320 0.697550 -0.648876
O17   O     O_R   0.983090 0.567680 0.697550 -0.612069
O18   O     O_R   0.438930 0.000000 0.294000 -0.656099
O19   O     O_R   0.938930 0.500000 0.294000 -0.656224
O20   O     O_3   0.395546 0.918577 0.146380 -0.695761
O21   O     O_3   0.895809 0.418307 0.146393 -0.695897
O22   O     O_3   0.660945 0.096791 0.186794 -0.764134
O23   O     O_R   0.605310 0.837110 0.563680 -0.655297
O24   O     O_3   0.160677 0.597086 0.186825 -0.764269
O25   O     O_3   0.315162 0.903242 0.995451 -0.563419
O26   O     O_3   0.815460 0.402828 0.995465 -0.563465
O27   O     O_3   0.661720 0.126410 0.003657 -0.582239
O28   O     O_3   0.161342 0.626778 0.003691 -0.582219
O29   O     O_3   0.331748 0.912663 0.813834 -0.606528
O30   O     O_3   0.831996 0.412335 0.813848 -0.606495
O31   O     O_3   0.610846 0.077147 0.849431 -0.552588
O32   O     O_3   0.110584 0.577473 0.849455 -0.552465
O33   O     O_3   0.683124 0.719239 0.403669 -0.622485
O34   O     O_R   0.605310 0.162890 0.563680 -0.633735
O35   O     O_3   0.671935 0.289716 0.415948 -0.629545
O36   O     O_3   0.183131 0.219247 0.403663 -0.622452
O37   O     O_3   0.171789 0.789841 0.416123 -0.629541
O38   O     O_3   0.312586 0.282391 0.605736 -0.595479
O39   O     O_3   0.333906 0.700576 0.583966 -0.605161
O40   O     O_3   0.812593 0.782398 0.605730 -0.595464
O41   O     O_3   0.833758 0.200721 0.584232 -0.605189
O42   O     O_R   0.105310 0.337110 0.563680 -0.655322
O43   O     O_R   0.105310 0.662890 0.563680 -0.633754
O44   O     O_R   0.385830 0.162890 0.539910 -0.589352
O45   O     O_R   0.385830 0.837110 0.539910 -0.597029
O46   O     O_R   0.885830 0.662890 0.539910 -0.589338
Zn1   Zn    Zn3+2 0.493670 0.096680 0.574000 1.026098
Zn2   Zn    Zn3+2 0.493670 0.903320 0.574000 0.986993
Zn3   Zn    Zn3+2 0.993670 0.596680 0.574000 1.026086
Zn4   Zn    Zn3+2 0.993670 0.403320 0.574000 0.987032
Zn5   Zn    Zn3+2 0.617760 0.000000 0.438070 1.007875
Zn6   Zn    Zn3+2 0.117760 0.500000 0.438070 1.007915
Zn7   Zn    Zn3+2 0.394920 0.000000 0.413930 0.992479
Zn8   Zn    Zn3+2 0.894920 0.500000 0.413930 0.992428

loop_
_geom_bond_atom_site_label_1
_geom_bond_atom_site_label_2
_ccdc_geom_bond_type
C50   O39   S    
C29   O25   S    
C21   C26   S    
C52   H47   S    
O4    Zn5   S    
C35   C53   A    
C3    O22   S    
C33   C45   A    
C8    O37   S    
C1    C11   S    
C25   C56   A    
C17   O45   A    
C36   O25   S    
H1    O20   S    
C22   O15   A    
C4    O24   S    
O15   Zn1   S    
C27   C33   A    
C34   O5    A    
C20   O18   A    
C39   H8    S    
C52   H46   S    
O43   Zn3   S    
O23   Zn2   S    
C37   H51   S    
C2    C55   A    
C1    O4    A    
O17   Zn3   S    
C50   H39   S    
C29   C54   A    
C24   O16   A    
C2    O21   S    
O1    Zn2   S    
O3    Zn5   S    
C6    O28   S    
C46   H26   S    
C7    C14   D    
O10   Zn8   S    
C28   C35   A    
C52   O41   S    
C30   O26   S    
C40   H11   S    
O16   Zn4   S    
C48   H32   S    
C49   H38   S    
C21   O19   A    
O18   Zn7   S    
C18   O10   A    
C15   C34   S    
C37   H2    S    
O2    Zn4   S    
O12   Zn8   S    
C41   H15   S    
C38   H5    S    
H34   O24   S    
O19   Zn8   S    
C51   H42   S    
C36   H49   S    
C40   H10   S    
C40   O29   S    
O12   Zn4   S    
O1    Zn1   S    
C16   O8    A    
C7    O36   S    
C22   O14   A    
C39   O28   S    
C53   C55   A    
C43   H19   S    
C54   C56   A    
C42   H18   S    
C27   C31   A    
C30   C32   A    
C47   H30   S    
O8    Zn7   S    
C44   H24   S    
C37   H52   S    
C16   O44   A    
C44   H25   S    
C9    O33   S    
C44   O33   S    
C1    O23   A    
H23   O22   S    
C36   H50   S    
C47   O36   S    
O13   Zn6   S    
C46   H27   S    
C36   H45   S    
C47   H31   S    
C14   C23   S    
O7    Zn7   S    
C32   O30   S    
C20   O11   A    
C35   O32   S    
C48   H35   S    
C51   H43   S    
O44   Zn1   S    
C28   C32   A    
C10   C19   S    
C48   O37   S    
C42   H16   S    
C43   O32   S    
C2    C26   A    
C38   O27   S    
O45   Zn2   S    
C9    C11   D    
O6    Zn6   S    
C41   O30   S    
O46   Zn3   S    
C46   H28   S    
C4    C6    A    
C7    C16   S    
C23   O42   A    
C45   C54   A    
C8    C15   D    
C22   C27   S    
C24   O17   A    
O34   Zn1   S    
C38   H4    S    
C31   O29   S    
C49   H36   S    
O1    Zn5   S    
C47   H29   S    
C17   O7    A    
C41   H13   S    
C19   O2    A    
C51   H44   S    
C5    O27   S    
C39   H6    S    
C52   H48   S    
C50   H41   S    
O42   Zn4   S    
C42   O31   S    
O14   Zn2   S    
C24   C28   S    
C3    C5    A    
C10   C13   D    
C18   O46   A    
C4    C26   A    
C34   O43   A    
C46   O35   S    
O9    Zn8   S    
C43   H21   S    
C39   H7    S    
C30   C55   A    
C14   O38   S    
C8    C17   S    
C40   H9    S    
C44   H22   S    
C13   O41   S    
C29   C31   A    
O1    Zn7   S    
C23   O6    A    
C15   O39   S    
C50   H40   S    
O12   Zn3   S    
C5    C45   A    
C51   O40   S    
C33   O31   S    
C42   H17   S    
C12   O34   A    
C49   O38   S    
C10   O35   S    
C56   O20   S    
O5    Zn6   S    
C21   O13   A    
H12   O21   S    
C11   O40   S    
C38   H3    S    
C9    C18   S    
C3    C25   A    
C12   C13   S    
C19   O9    A    
O11   Zn5   S    
C20   C25   S    
O12   Zn6   S    
C37   O26   S    
C43   H20   S    
C6    C53   A    
C49   H37   S    
C12   O3    A    
C48   H33   S    
C41   H14   S    
