data_mof_unit_635.cif
_audit_creation_date              2013-03-05T15:52:55-0500
_audit_creation_method            fapswitch 2.2
_symmetry_space_group_name_H-M    P1
_symmetry_Int_Tables_number       1
_space_group_crystal_system       triclinic
_cell_length_a                    10.692717
_cell_length_b                    10.855995
_cell_length_c                    17.046408
_cell_angle_alpha                 100.213841
_cell_angle_beta                  100.238898
_cell_angle_gamma                 60.086348
_cell_volume                      1678.6761542

loop_
_atom_site_label
_atom_site_type_symbol
_atom_site_description
_atom_site_fract_x
_atom_site_fract_y
_atom_site_fract_z
_atom_type_partial_charge
O1    O     O_R   0.749810 0.499790 0.438040 -0.520777
O2    O     O_R   0.477660 0.726260 0.439290 -0.502454
C1    C     C_R   0.355562 0.770001 0.398499 0.555287
O3    O     O_R   0.260150 0.743000 0.412270 -0.491857
O4    O     O_R   0.297740 0.466550 0.394720 -0.436896
C2    C     C_R   0.361943 0.339714 0.360439 0.606726
O5    O     O_R   0.488080 0.253500 0.386430 -0.522473
O6    O     O_R   0.722670 0.303800 0.421940 -0.487965
C3    C     C_R   0.772832 0.378738 0.401836 0.556946
O7    O     O_R   0.751130 0.502220 0.613520 -0.457604
O8    O     O_R   0.478890 0.728510 0.601960 -0.475054
C4    C     C_R   0.382519 0.713720 0.631352 0.535125
O9    O     O_R   0.261470 0.745430 0.587750 -0.525280
O10   O     O_R   0.298970 0.468800 0.557390 -0.515317
C5    C     C_R   0.407182 0.374584 0.600427 0.523063
O11   O     O_R   0.489400 0.255930 0.561910 -0.525397
O12   O     O_R   0.723890 0.306050 0.584610 -0.551883
C6    C     C_R   0.773101 0.381350 0.629771 0.538339
Cr1   Cr    Cr6+3 0.608100 0.610860 0.522250 1.057304
Cr2   Cr    Cr6+3 0.288890 0.599990 0.488420 1.055538
Cr3   Cr    Cr6+3 0.603040 0.289190 0.489390 0.995201
O13   O     O_3   0.500010 0.500010 0.500020 -0.283263
C7    C     C_1   0.318599 0.308419 0.278486 0.054780
C8    C     C_1   0.300020 0.284931 0.206976 0.024844
H1    H     H_    0.745520 0.578160 0.317735 0.163263
C9    C     C_R   0.814989 0.337030 0.156228 0.041926
C10   C     C_R   0.826124 0.219747 0.189302 0.000997
C11   C     C_R   0.848342 0.221223 0.273361 -0.017187
C12   C     C_R   0.777001 0.474291 0.284110 -0.116437
C13   C     C_R   0.780391 0.466036 0.203311 -0.125565
C14   C     C_R   0.822939 0.098872 0.141635 0.224375
C15   C     C_R   0.889757 0.967596 0.176134 0.189080
C16   C     C_R   0.935360 0.965905 0.258465 -0.179531
C17   C     C_R   0.907498 0.092081 0.307213 -0.175458
C18   C     C_R   0.812850 0.352430 0.320664 0.025952
H2    H     H_    0.764351 0.558832 0.178543 0.180175
H3    H     H_    0.984645 0.867366 0.285958 0.194156
H4    H     H_    0.938125 0.086774 0.371052 0.141940
C19   C     C_R   0.352218 0.832205 0.161149 -0.047111
C20   C     C_R   0.436348 0.874664 0.222728 -0.012889
C21   C     C_R   0.422466 0.872354 0.303331 -0.027380
C22   C     C_R   0.297770 0.733249 0.254782 0.193373
C23   C     C_R   0.291899 0.755059 0.177673 -0.089505
C24   C     C_R   0.535898 0.915147 0.207442 -0.086609
C25   C     C_R   0.612438 0.958585 0.270152 -0.095823
C26   C     C_R   0.594302 0.961186 0.348955 -0.096048
C27   C     C_R   0.494292 0.926227 0.365653 -0.102350
C28   C     C_R   0.346657 0.805354 0.318922 -0.023197
H5    H     H_    0.564379 0.905766 0.148347 0.193644
H6    H     H_    0.246404 0.704532 0.129506 0.211013
H7    H     H_    0.684437 0.992543 0.257463 0.152469
H8    H     H_    0.656165 0.993009 0.397423 0.139249
H9    H     H_    0.477441 0.938498 0.427831 0.137344
H10   H     H_    0.171379 0.545281 0.681928 0.164177
C29   C     C_R   0.297528 0.276488 0.798841 -0.016434
C30   C     C_R   0.424297 0.175627 0.761696 -0.004751
C31   C     C_R   0.477324 0.223693 0.711770 0.031691
C32   C     C_R   0.246009 0.445184 0.706671 -0.134511
C33   C     C_R   0.207966 0.409940 0.769740 -0.117507
C34   C     C_R   0.503403 0.030031 0.776080 -0.066761
C35   C     C_R   0.644197 0.941011 0.753943 0.240081
C36   C     C_R   0.706502 0.999265 0.717151 -0.105005
C37   C     C_R   0.624399 0.138580 0.696493 -0.134493
C38   C     C_R   0.379715 0.352318 0.676464 -0.000311
H11   H     H_    0.455781 0.985710 0.804670 0.162716
H12   H     H_    0.109341 0.487320 0.796162 0.202267
H13   H     H_    0.817410 0.936311 0.702492 0.150358
H14   H     H_    0.677003 0.178027 0.667798 0.156752
C39   C     C_1   0.818208 0.343038 0.709102 -0.023136
C40   C     C_1   0.845084 0.313832 0.776630 -0.029165
C41   C     C_1   0.360007 0.762853 0.713792 -0.019769
C42   C     C_1   0.326982 0.809909 0.780834 -0.023344
O14   O     O_R   0.171100 0.914680 0.053100 -0.474599
O15   O     O_R   0.941680 0.184840 0.050710 -0.482704
C43   C     C_R   0.888010 0.311280 0.085660 0.547971
O16   O     O_R   0.922080 0.403420 0.072610 -0.498092
O17   O     O_R   0.196880 0.369150 0.083850 -0.419003
C44   C     C_R   0.289199 0.259301 0.121595 0.557088
O18   O     O_R   0.411730 0.181020 0.091530 -0.456476
O19   O     O_R   0.365010 0.944360 0.063320 -0.539729
C45   C     C_R   0.297517 0.891982 0.085497 0.531535
O20   O     O_R   0.159380 0.906670 0.876210 -0.485412
O21   O     O_R   0.930820 0.177420 0.886730 -0.487188
C46   C     C_R   0.886183 0.297339 0.859113 0.548491
O22   O     O_R   0.910360 0.395420 0.895720 -0.475355
O23   O     O_R   0.186010 0.361730 0.919870 -0.469683
C47   C     C_R   0.278067 0.252749 0.876705 0.521517
O24   O     O_R   0.400000 0.173010 0.914630 -0.447535
O25   O     O_R   0.354140 0.936940 0.899340 -0.511993
C48   C     C_R   0.281663 0.880183 0.857915 0.541212
Cr4   Cr    Cr6+3 0.053960 0.052250 0.967380 1.115292
Cr5   Cr    Cr6+3 0.059890 0.373160 0.992710 1.152989
Cr6   Cr    Cr6+3 0.373370 0.061690 0.991710 1.107868
O26   O     O_3   0.162410 0.162370 0.983930 -0.346440
N1    N     N_R   0.724570 0.794059 0.770800 0.098014
O27   O     O_R   0.672177 0.743141 0.811828 -0.324307
O28   O     O_R   0.850845 0.709481 0.744863 -0.361455
N2    N     N_R   0.735686 0.116985 0.064501 0.098985
O29   O     O_R   0.734060 0.008941 0.017951 -0.263500
O30   O     O_R   0.639568 0.244577 0.045895 -0.306829
N3    N     N_R   0.909930 0.836250 0.129650 0.102984
O31   O     O_R   0.978348 0.792062 0.065934 -0.275938
O32   O     O_R   0.883685 0.748956 0.158280 -0.339195
N4    N     N_R   0.295468 0.607981 0.264669 0.085106
O33   O     O_R   0.175281 0.602113 0.244345 -0.323279
O34   O     O_R   0.419278 0.490834 0.263179 -0.353994

loop_
_geom_bond_atom_site_label_1
_geom_bond_atom_site_label_2
_geom_bond_distance
_ccdc_geom_bond_type
C24   H5    1.076858 S    
C29   C30   1.419912 A    
O17   Cr5   1.926805 S    
Cr6   O26   1.945908 S    
C29   C33   1.401526 A    
N1    O27   1.301456 A    
C15   N3    1.435578 S    
C47   O24   1.280744 A    
N4    O34   1.300720 A    
O4    Cr2   1.937806 S    
O17   C44   1.297209 A    
O8    Cr1   1.917886 S    
C9    C10   1.425701 A    
C12   C13   1.370090 A    
C36   H13   1.082724 S    
O18   Cr6   2.059581 S    
C33   H12   1.082470 S    
O4    C2    1.274039 A    
C25   H7    1.070484 S    
C5    O11   1.280232 A    
C26   H8    1.082550 S    
C1    C28   1.448712 S    
C30   C31   1.393636 A    
C14   N2    1.452770 S    
O24   Cr6   2.075407 S    
C14   C15   1.421135 A    
C11   C18   1.409029 A    
O6    C3    1.290882 A    
C5    C38   1.463545 S    
C40   C46   1.411829 S    
C27   H9    1.080510 S    
C6    C39   1.414883 S    
C11   C17   1.404020 A    
N3    O32   1.301136 A    
C17   H4    1.082372 S    
Cr3   O13   1.973223 S    
C32   C38   1.401973 A    
C35   C36   1.395179 A    
O14   C45   1.282017 A    
N4    O33   1.300451 A    
O22   Cr5   2.040803 S    
C31   C37   1.416233 A    
H1    C12   1.083575 S    
O1    Cr1   2.036578 S    
O15   C43   1.270535 A    
C10   C14   1.428256 A    
N3    O31   1.301031 A    
O10   Cr2   1.953939 S    
Cr1   O13   1.999336 S    
O1    C3    1.269707 A    
C46   O22   1.253597 A    
C19   C45   1.440950 S    
C19   C20   1.424729 A    
C44   O18   1.294283 A    
C19   C23   1.372480 A    
C32   C33   1.387195 A    
O5    Cr3   2.051437 S    
C16   H3    1.081404 S    
O20   Cr4   2.039251 S    
C30   C34   1.415663 A    
C22   N4    1.412271 S    
C34   C35   1.401545 A    
O15   Cr4   1.920564 S    
C43   O16   1.286052 A    
C36   C37   1.391682 A    
C42   C48   1.430188 S    
O21   C46   1.289170 A    
O7    Cr1   2.038721 S    
C7    C8    1.201933 T    
C35   N1    1.439972 S    
O12   C6    1.264755 A    
C21   C27   1.413542 A    
C23   H6    1.084485 S    
C22   C28   1.408128 A    
O14   Cr4   2.047433 S    
O16   Cr5   2.050949 S    
C29   C47   1.464397 S    
C8    C44   1.427487 S    
C20   C21   1.413844 A    
C4    C41   1.429585 S    
Cr2   O13   1.945983 S    
C34   H11   1.069612 S    
C9    C13   1.390170 A    
N2    O30   1.302133 A    
C22   C23   1.361597 A    
C1    O3    1.260825 A    
C24   C25   1.389254 A    
C31   C38   1.422144 A    
H10   C32   1.083289 S    
C12   C18   1.409613 A    
C26   C27   1.385614 A    
O9    Cr2   2.052444 S    
O2    Cr1   1.923283 S    
O23   C47   1.302798 A    
O19   C45   1.252831 A    
O6    Cr3   1.942503 S    
O8    C4    1.309872 A    
N1    O28   1.301308 A    
O11   Cr3   2.065191 S    
C2    O5    1.251785 A    
O21   Cr4   1.924756 S    
C37   H14   1.073020 S    
O20   C48   1.275842 A    
C13   H2    1.084093 S    
C15   C16   1.401671 A    
O2    C1    1.260752 A    
O19   Cr6   1.955570 S    
C41   C42   1.203409 T    
O23   Cr5   1.936360 S    
Cr4   O26   2.000051 S    
Cr5   O26   1.973694 S    
O7    C6    1.285305 A    
C2    C7    1.428419 S    
C21   C28   1.410649 A    
C16   C17   1.390269 A    
O25   Cr6   1.939601 S    
C39   C40   1.195453 T    
O12   Cr3   1.929466 S    
O3    Cr2   2.070459 S    
C25   C26   1.384405 A    
C20   C24   1.414188 A    
C4    O9    1.284754 A    
C9    C43   1.460052 S    
N2    O29   1.300417 A    
C10   C11   1.408756 A    
C3    C18   1.458679 S    
O10   C5    1.306570 A    
O25   C48   1.267392 A    
