data_mof_unit_3042.cif
_audit_creation_date              2012-12-11T16:06:51-0500
_audit_creation_method            fapswitch 2.2
_symmetry_space_group_name_H-M    P1
_symmetry_Int_Tables_number       1
_space_group_crystal_system       triclinic
_cell_length_a                    8.432736
_cell_length_b                    12.739706
_cell_length_c                    17.491475
_cell_angle_alpha                 93.834818
_cell_angle_beta                  97.14259
_cell_angle_gamma                 98.283731
_cell_volume                      1838.19067747

loop_
_atom_site_label
_atom_site_type_symbol
_atom_type_description
_atom_site_fract_x
_atom_site_fract_y
_atom_site_fract_z
_atom_type_partial_charge
Ba1   Ba    Ba6+2 0.158660 0.552610 0.463110 1.601151
Ba2   Ba    Ba6+2 0.651510 0.447380 0.536830 1.629259
C1    C     C_3   0.342858 0.942873 0.221832 -0.293588
C2    C     C_R   0.710032 0.837817 0.526711 -0.286592
C3    C     C_R   0.686748 0.003814 0.472533 -0.031550
C4    C     C_3   0.986472 0.781168 0.199579 0.333984
C5    C     C_R   0.612351 0.902617 0.488779 0.026844
C6    C     C_R   0.878391 0.860300 0.533751 0.052158
C7    C     C_R   0.947953 0.969686 0.533045 -0.047497
C8    C     C_R   0.849452 0.043825 0.501456 -0.081414
C9    C     C_R   0.917129 0.154264 0.499856 0.075774
C10   C     C_R   0.170306 0.116547 0.568345 -0.030722
C11   C     C_R   0.108840 0.008004 0.565142 -0.098374
C12   C     C_3   0.400658 0.859817 0.273197 0.776195
C13   C     C_R   0.623694 0.468289 0.270964 -0.297043
C14   C     C_R   0.456269 0.453225 0.250314 0.045885
C15   C     C_R   0.393357 0.449022 0.171792 -0.135480
C16   C     C_3   0.069786 0.751921 0.129719 -0.340143
C17   C     C_R   0.499347 0.468330 0.116145 -0.004510
C18   C     C_R   0.667018 0.497578 0.140790 -0.099844
C19   C     C_R   0.729362 0.501573 0.219817 0.029693
C20   C     C_R   0.424821 0.489738 0.831402 -0.109562
C21   C     C_R   0.366378 0.485018 0.752214 0.069873
C22   C     C_R   0.104871 0.398379 0.777076 0.002863
C23   C     C_3   0.521782 0.775679 0.672833 0.279325
C24   C     C_R   0.162922 0.402208 0.856318 -0.090351
C25   C     C_R   0.324179 0.447315 0.883823 0.005840
C26   C     C_1   0.384120 0.455914 0.966031 -0.016634
C27   C     C_1   0.435981 0.462276 0.034464 -0.018570
C28   C     C_3   0.800297 0.278422 0.290865 0.267465
C29   C     C_R   0.209088 0.435545 0.725302 -0.274695
C30   C     C_3   0.878276 0.239567 0.222593 -0.385035
C31   C     C_3   0.058822 0.665398 0.690666 0.306962
C32   C     C_3   0.101650 0.686580 0.778029 -0.395181
C33   C     C_3   0.238937 0.235427 0.382520 0.288833
C34   C     C_3   0.476061 0.882807 0.697005 -0.382873
C35   C     C_3   0.202900 0.114900 0.366867 -0.381420
C36   C     C_3   0.555219 0.724776 0.265963 0.250413
C37   C     C_3   0.681862 0.738868 0.339317 -0.176367
C38   C     C_3   0.656762 0.646055 0.392335 -0.304119
C39   C     C_3   0.383355 0.189344 0.956520 0.265957
C40   C     C_3   0.428497 0.092374 0.996593 -0.197981
C41   C     C_3   0.497768 0.123730 0.081191 -0.500286
C42   C     C_3   0.876705 0.152303 0.712098 0.382095
C43   C     C_3   0.886315 0.049933 0.751090 -0.394482
C44   C     C_3   0.345856 0.150430 0.745559 0.313470
C45   C     C_3   0.427736 0.157972 0.828727 0.277275
C46   C     C_R   0.073675 0.188604 0.538054 -0.277350
H1    H     H_    0.300855 0.794770 0.275002 -0.043225
H2    H     H_    0.128507 0.266332 0.395255 0.008947
H3    H     H_    0.335850 0.255707 0.432579 0.090406
H4    H     H_    0.332718 0.914343 0.159951 0.077486
H5    H     H_    0.109840 0.092207 0.315478 0.112311
H6    H     H_    0.157628 0.076883 0.416300 0.091438
H7    H     H_    0.315530 0.084297 0.356409 0.156934
H8    H     H_    0.431853 0.017436 0.231418 0.131282
H9    H     H_    0.654527 0.785638 0.672011 0.024497
H10   H     H_    0.453004 0.749263 0.614800 0.055303
H11   H     H_    0.528716 0.908739 0.757779 0.120824
H12   H     H_    0.812553 0.160800 0.196944 0.125332
H13   H     H_    0.521543 0.942638 0.658448 0.103566
H14   H     H_    0.342639 0.876695 0.692707 0.129577
H15   H     H_    0.224862 0.962193 0.235224 0.019580
H16   H     H_    0.988632 0.690880 0.088849 0.133162
H17   H     H_    0.790825 0.134690 0.657669 0.078009
H18   H     H_    0.999634 0.181126 0.697856 -0.086643
H19   H     H_    0.913902 0.987375 0.709610 0.074601
H20   H     H_    0.983068 0.064150 0.801502 0.147495
H21   H     H_    0.769871 0.022197 0.771734 0.123094
H22   H     H_    0.247633 0.080739 0.735637 -0.010495
H23   H     H_    0.874635 0.297377 0.177853 0.061703
H24   H     H_    0.293896 0.225026 0.737180 -0.023304
H25   H     H_    0.519401 0.231602 0.837769 0.055724
H26   H     H_    0.062694 0.801961 0.255504 0.011912
H27   H     H_    0.489575 0.087304 0.836750 0.032614
H28   H     H_    0.615787 0.050538 0.437130 0.151260
H29   H     H_    0.186553 0.955057 0.589631 0.089083
H30   H     H_    0.125810 0.271472 0.539005 0.062157
H31   H     H_    0.656000 0.763889 0.544570 0.011513
H32   H     H_    0.545221 0.531294 0.852605 0.085690
H33   H     H_    0.746756 0.523991 0.099556 0.079655
H34   H     H_    0.005837 0.231810 0.241301 0.143137
H35   H     H_    0.082068 0.373014 0.896327 0.071588
H36   H     H_    0.264130 0.429106 0.154158 0.084033
H37   H     H_    0.672467 0.457576 0.329243 0.029470
H38   H     H_    0.932631 0.853950 0.187573 0.049882
H39   H     H_    0.162982 0.435304 0.664695 0.052447
H40   H     H_    0.098276 0.822782 0.097456 0.055837
H41   H     H_    0.183111 0.720393 0.148050 0.109298
H42   H     H_    0.674339 0.284525 0.267833 0.038939
H43   H     H_    0.870999 0.355661 0.316314 0.046066
H44   H     H_    0.593778 0.680194 0.217803 0.103460
H45   H     H_    0.158107 0.633266 0.665862 0.016669
H46   H     H_    0.441006 0.672429 0.271848 0.013355
H47   H     H_    0.803098 0.763318 0.325527 0.137246
H48   H     H_    0.681305 0.813997 0.371546 0.079300
H49   H     H_    0.551779 0.592628 0.366479 0.112497
H50   H     H_    0.627747 0.668869 0.448086 0.111283
H51   H     H_    0.743005 0.593634 0.409050 0.159127
H52   H     H_    0.293658 0.223592 0.988105 0.080458
H53   H     H_    0.490990 0.252590 0.961066 0.028437
H54   H     H_    0.319529 0.030861 0.993418 0.130035
H55   H     H_    0.520772 0.057620 0.967271 0.107994
H56   H     H_    0.946623 0.606464 0.678406 0.085964
H57   H     H_    0.602342 0.188749 0.085637 0.133448
H58   H     H_    0.539916 0.054033 0.107495 0.154177
H59   H     H_    0.404015 0.150886 0.113795 0.138467
H60   H     H_    0.215827 0.743619 0.792494 0.143724
H61   H     H_    0.116869 0.612011 0.804957 0.058511
H62   H     H_    0.003268 0.720904 0.802697 0.121740
O1    O     O_2   0.163080 0.763400 0.536930 -0.465795
O2    O     O_2   0.779581 0.426036 0.774220 -0.487236
O3    O     O_3   0.820109 0.225815 0.761784 -0.580535
O4    O     O_3   0.893330 0.628980 0.538660 -0.506918
O5    O     O_3   0.422000 0.445190 0.409310 -0.495998
O6    O     O_2   0.648720 0.552000 0.685060 -0.460647
O7    O     O_3   0.482884 0.704906 0.727556 -0.645245
O8    O     O_2   0.492153 0.117100 0.550035 -0.495811
O9    O     O_3   0.461137 0.136805 0.695816 -0.612114
O10   O     O_3   0.379830 0.697590 0.399610 -0.508110
O11   O     O_2   0.267130 0.883056 0.446704 -0.487006
O12   O     O_3   0.288305 0.276323 0.315798 -0.634276
O13   O     O_3   0.035989 0.761991 0.660758 -0.640273
O14   O     O_3   0.454211 0.912778 0.346066 -0.647013
O15   O     O_2   0.161570 0.447940 0.314920 -0.474803
O16   O     O_3   0.953630 0.643360 0.361440 -0.498052
O17   O     O_2   0.070462 0.575145 0.226927 -0.504732
O18   O     O_3   0.531589 0.824775 0.241508 -0.669632
O19   O     O_3   0.309672 0.160363 0.879319 -0.681709
O20   O     O_3   0.859409 0.701948 0.206790 -0.632537
O21   O     O_2   0.647210 0.236530 0.463040 -0.465892
O22   O     O_3   0.916960 0.371010 0.461280 -0.510681
O23   O     O_3   0.430470 0.302400 0.600330 -0.461093
O24   O     O_3   0.790519 0.200935 0.343095 -0.632682
O25   O     O_3   0.388290 0.554800 0.590630 -0.487417
O26   O     O_3   0.856660 0.356630 0.638500 -0.479134
P1    P     P_3+3 0.990420 0.746550 0.559720 0.972897
P2    P     P_3+3 0.330880 0.415450 0.326700 0.973674
P3    P     P_3+3 0.914462 0.596517 0.259547 0.929797
P4    P     P_3+3 0.819870 0.253440 0.440220 0.967155
P5    P     P_3+3 0.890127 0.354328 0.739039 0.971799
P6    P     P_3+3 0.420174 0.839867 0.426368 0.941714
P7    P     P_3+3 0.470555 0.573072 0.688900 0.954310
P8    P     P_3+3 0.385093 0.165583 0.603405 0.946269

loop_
_geom_bond_atom_site_label_1
_geom_bond_atom_site_label_2
_ccdc_geom_bond_type
C39   O19   S    
C24   H35   S    
C31   H56   S    
C39   C40   S    
C42   H18   S    
C17   C18   A    
C4    O20   S    
C34   H11   S    
C21   P7    S    
C40   H55   S    
C38   H51   S    
C42   H17   S    
C24   C25   A    
O17   P3    D    
C45   O19   S    
C26   C27   T    
O7    P7    S    
Ba1   O15   S    
O8    P8    D    
O24   P4    S    
C36   C37   S    
C12   H1    S    
C13   C14   A    
C36   H44   S    
C12   O18   S    
Ba1   Ba2   S    
Ba2   O5    S    
O4    P1    S    
C46   H30   S    
C7    C11   A    
O21   P4    D    
Ba2   O6    S    
C40   C41   S    
O3    P5    S    
C14   C15   A    
C28   O24   S    
C43   H19   S    
Ba2   O22   S    
C7    C8    A    
C45   H25   S    
C44   H24   S    
C2    C6    A    
C13   H37   S    
C35   H5    S    
Ba1   O22   S    
O25   P7    S    
C18   H33   S    
O9    P8    S    
O14   P6    S    
C9    C46   A    
C23   H9    S    
C43   H20   S    
C2    C5    A    
C34   H14   S    
O20   P3    S    
C40   H54   S    
C4    H26   S    
C30   H23   S    
C4    C16   S    
C11   H29   S    
O16   P3    S    
Ba2   O23   S    
C29   H39   S    
C43   H21   S    
Ba2   O21   S    
O10   P6    S    
Ba1   O16   S    
O12   P2    S    
C2    H31   S    
C37   C38   S    
C3    C5    A    
C6    C7    A    
Ba2   O26   S    
C10   P8    S    
C31   H45   S    
C6    P1    S    
C41   H58   S    
C21   C29   A    
O2    P5    D    
C9    P4    S    
O26   P5    S    
O6    P7    D    
C1    H8    S    
C28   H42   S    
O5    P2    S    
C41   H57   S    
C22   P5    S    
C38   H50   S    
C36   H46   S    
C33   H2    S    
C31   C32   S    
C39   H52   S    
C41   H59   S    
C10   C11   A    
C37   H47   S    
C1    C12   S    
C35   H6    S    
C42   O3    S    
C20   C25   A    
C33   H3    S    
C32   H62   S    
Ba1   O4    S    
C30   H12   S    
C34   H13   S    
C17   C27   S    
C38   H49   S    
Ba1   P1    S    
C42   C43   S    
O1    P1    D    
C44   C45   S    
O23   P8    S    
C33   C35   S    
C16   H41   S    
O11   P6    D    
C33   O12   S    
C14   P2    S    
C22   C24   A    
C28   H43   S    
C45   H27   S    
C23   O7    S    
C12   O14   S    
C36   O18   S    
C1    H4    S    
C1    H15   S    
O15   P2    D    
O22   P4    S    
C30   H34   S    
O13   P1    S    
Ba2   O25   S    
C4    H38   S    
C15   H36   S    
C32   H60   S    
C3    H28   S    
C22   C29   A    
Ba2   P4    S    
C3    C8    A    
Ba1   O1    S    
C28   C30   S    
Ba2   O4    S    
C16   H16   S    
C15   C17   A    
C10   C46   A    
C39   H53   S    
C44   O9    S    
C16   H40   S    
C37   H48   S    
C44   H22   S    
C8    C9    A    
C23   C34   S    
C20   H32   S    
C35   H7    S    
C13   C19   A    
C18   C19   A    
C23   H10   S    
C25   C26   S    
C31   O13   S    
C32   H61   S    
C19   P3    S    
C20   C21   A    
Ba1   O5    S    
Ba1   O25   S    
Ba1   O10   S    
C5    P6    S    
Ba1   P2    S    
