data_mof_unit_2586.cif
_audit_creation_date              2012-12-11T19:13:10-0500
_audit_creation_method            fapswitch 2.2
_symmetry_space_group_name_H-M    P1
_symmetry_Int_Tables_number       1
_space_group_crystal_system       triclinic
_cell_length_a                    8.245998
_cell_length_b                    15.069479
_cell_length_c                    19.064455
_cell_angle_alpha                 102.222478
_cell_angle_beta                  92.014523
_cell_angle_gamma                 98.531279
_cell_volume                      2284.25132302

loop_
_atom_site_label
_atom_site_type_symbol
_atom_type_description
_atom_site_fract_x
_atom_site_fract_y
_atom_site_fract_z
_atom_type_partial_charge
Ba1   Ba    Ba6+2 0.853890 0.540460 0.466690 1.667767
Ba2   Ba    Ba6+2 0.335940 0.459610 0.533320 1.673110
C1    C     C_3   0.712519 0.875452 0.299667 -0.368292
C2    C     C_R   0.022270 0.533266 0.726939 0.024851
C3    C     C_R   0.860742 0.419287 0.808260 -0.164570
C4    C     C_3   0.127759 0.734093 0.277533 0.360207
C5    C     C_R   0.794549 0.419968 0.740102 -0.004186
C6    C     C_R   0.334403 0.578699 0.192962 -0.172428
C7    C     C_R   0.405201 0.570843 0.258574 0.007923
C8    C     C_R   0.131652 0.447400 0.196825 -0.143178
C9    C     C_R   0.169971 0.463378 0.272038 0.052386
C10   C     C_R   0.986354 0.490912 0.844638 0.005520
C11   C     C_R   0.889781 0.466138 0.696499 -0.194128
C12   C     C_3   0.667761 0.783452 0.320806 0.374701
C13   C     C_R   0.204586 0.510679 0.155647 0.002332
C14   C     C_R   0.314396 0.520808 0.300896 -0.241177
C15   C     C_R   0.757005 0.448762 0.955787 -0.088834
C16   C     C_3   0.097616 0.761425 0.206332 -0.372177
C17   C     C_R   0.650207 0.409404 0.999443 -0.071802
C18   C     C_R   0.699239 0.417806 0.070667 -0.066547
C19   C     C_R   0.856968 0.461001 0.095988 -0.087354
C20   C     C_R   0.980089 0.480281 0.049333 0.036929
C21   C     C_R   0.927526 0.475730 0.975659 0.069565
C22   C     C_R   0.148970 0.506852 0.075819 -0.003963
C23   C     C_3   0.462565 0.315113 0.311776 0.309495
C24   C     C_R   0.263209 0.531340 0.025013 0.046682
C25   C     C_R   0.210805 0.527006 0.951163 0.039020
C26   C     C_R   0.041812 0.499344 0.924809 0.022973
C27   C     C_R   0.433676 0.558018 0.044797 -0.080310
C28   C     C_3   0.245272 0.744823 0.627486 0.316344
C29   C     C_R   0.540739 0.597389 0.001384 -0.093505
C30   C     C_R   0.492273 0.589491 0.930264 -0.081830
C31   C     C_R   0.334402 0.546990 0.904418 -0.062134
C32   C     C_R   0.343507 0.818815 0.449217 -0.008287
C33   C     C_R   0.581367 0.791304 0.514735 0.051423
C34   C     C_3   0.437114 0.287869 0.230213 -0.391805
C35   C     C_R   0.765157 0.229100 0.515403 -0.292137
C36   C     C_R   0.858278 0.173241 0.543113 0.017777
C37   C     C_R   0.799834 0.079305 0.534492 -0.120953
C38   C     C_R   0.644285 0.039734 0.498013 0.008739
C39   C     C_R   0.554192 0.097757 0.467087 -0.027394
C40   C     C_3   0.240832 0.847594 0.640715 -0.352071
C41   C     C_R   0.574498 0.944999 0.491437 0.002388
C42   C     C_R   0.416499 0.911172 0.454525 -0.019227
C43   C     C_R   0.334298 0.970087 0.423896 -0.109441
C44   C     C_R   0.402605 0.060676 0.429039 -0.060662
C45   C     C_3   0.060171 0.250135 0.720956 0.237256
C46   C     C_R   0.652762 0.883508 0.522670 -0.141160
C47   C     C_R   0.429957 0.759160 0.476538 -0.295103
C48   C     C_R   0.617073 0.192249 0.475556 0.002261
C49   C     C_3   0.951191 0.253192 0.369789 0.316713
C50   C     C_3   0.926445 0.148607 0.348086 -0.391647
C51   C     C_3   0.782565 0.708505 0.693264 0.227753
C52   C     C_3   0.870434 0.765312 0.764851 0.300939
C53   C     C_2   0.664634 0.629826 0.706470 0.745113
C54   C     C_3   0.056440 0.892180 0.820952 0.276477
C55   C     C_3   0.086860 0.995902 0.827636 -0.194181
C56   C     C_3   0.138667 0.234263 0.790405 -0.175296
C57   C     C_3   0.184509 0.045543 0.898183 -0.487665
C58   C     C_2   0.033912 0.250713 0.853073 0.784132
C59   C     C_3   0.641558 0.011320 0.727535 0.310634
C60   C     C_3   0.560950 0.008448 0.798318 -0.197939
C61   C     C_3   0.573392 0.919425 0.822232 -0.501082
C62   C     C_3   0.534802 0.207189 0.660518 0.416629
C63   C     C_3   0.512449 0.110523 0.674689 0.307159
C64   C     C_R   0.055021 0.553657 0.802555 -0.165155
H1    H     H_    0.733511 0.786852 0.373410 0.084392
H2    H     H_    0.879117 0.681700 0.659982 0.009746
H3    H     H_    0.846866 0.890635 0.294538 0.149141
H4    H     H_    0.953793 0.722790 0.784687 -0.062988
H5    H     H_    0.781622 0.780192 0.806112 -0.023881
H6    H     H_    0.533201 0.772287 0.326406 -0.083484
H7    H     H_    0.676626 0.931211 0.341322 0.073948
H8    H     H_    0.350068 0.339091 0.333662 0.010466
H9    H     H_    0.568000 0.372181 0.325949 0.074826
H10   H     H_    0.327501 0.233698 0.214015 0.126825
H11   H     H_    0.418238 0.348605 0.208486 0.060172
H12   H     H_    0.308951 0.877831 0.600058 0.040035
H13   H     H_    0.547026 0.261496 0.207135 0.125499
H14   H     H_    0.646638 0.873848 0.247486 0.106403
H15   H     H_    0.142082 0.712766 0.161819 0.066306
H16   H     H_    0.088051 0.324781 0.721511 0.025948
H17   H     H_    0.925004 0.227687 0.717171 0.067223
H18   H     H_    0.260006 0.279267 0.803864 0.116565
H19   H     H_    0.160746 0.162285 0.781452 0.071053
H20   H     H_    0.663941 0.225068 0.647500 -0.108055
H21   H     H_    0.450907 0.208192 0.614020 0.027185
H22   H     H_    0.494123 0.060355 0.622177 -0.045507
H23   H     H_    0.111714 0.859925 0.636936 0.167033
H24   H     H_    0.063067 0.662778 0.273505 0.072631
H25   H     H_    0.400424 0.099654 0.704629 0.042025
H26   H     H_    0.139840 0.615283 0.826977 0.057897
H27   H     H_    0.805684 0.365321 0.833103 0.106024
H28   H     H_    0.388108 0.635482 0.170571 0.068146
H29   H     H_    0.041179 0.388394 0.172307 0.069856
H30   H     H_    0.852674 0.455078 0.639931 0.095331
H31   H     H_    0.360567 0.522898 0.355153 0.065139
H32   H     H_    0.699404 0.461369 0.908285 0.080920
H33   H     H_    0.523165 0.383299 0.980543 0.103103
H34   H     H_    0.297731 0.882356 0.694939 0.112417
H35   H     H_    0.610991 0.398121 0.107562 0.082800
H36   H     H_    0.262075 0.737100 0.287110 -0.061444
H37   H     H_    0.879101 0.480601 0.152658 0.129035
H38   H     H_    0.492024 0.544346 0.091591 0.083182
H39   H     H_    0.667935 0.622905 0.020323 0.077520
H40   H     H_    0.581820 0.609029 0.893979 0.121207
H41   H     H_    0.314476 0.528783 0.847263 0.144499
H42   H     H_    0.373848 0.688531 0.472591 0.065179
H43   H     H_    0.215359 0.947418 0.395192 0.108346
H44   H     H_    0.767548 0.905312 0.554723 0.092046
H45   H     H_    0.833024 0.275641 0.384361 0.000938
H46   H     H_    0.812783 0.301447 0.521713 0.058623
H47   H     H_    0.879016 0.039421 0.556110 0.080851
H48   H     H_    0.964397 0.760194 0.194844 0.155669
H49   H     H_    0.332107 0.101422 0.403469 0.103709
H50   H     H_    0.164083 0.831804 0.208607 0.106627
H51   H     H_    0.373475 0.733032 0.621904 -0.000182
H52   H     H_    0.169847 0.711801 0.576705 0.060324
H53   H     H_    0.546709 0.699397 0.787156 0.251439
H54   H     H_    0.176155 0.866376 0.819306 0.070383
H55   H     H_    0.996688 0.878773 0.870211 0.010173
H56   H     H_    0.042381 0.276062 0.416748 0.073631
H57   H     H_    0.153752 0.011147 0.781070 0.110247
H58   H     H_    0.967677 0.021492 0.826335 0.147221
H59   H     H_    0.109547 0.037878 0.944450 0.142584
H60   H     H_    0.217342 0.119854 0.899043 0.159559
H61   H     H_    0.299423 0.017205 0.904508 0.127884
H62   H     H_    0.816103 0.219798 0.894080 0.307838
H63   H     H_    0.767898 0.995247 0.732112 0.113753
H64   H     H_    0.575276 0.956986 0.682555 0.008818
H65   H     H_    0.620082 0.067339 0.841297 0.167636
H66   H     H_    0.429985 0.014487 0.791063 0.092018
H67   H     H_    0.830059 0.123520 0.303178 0.123945
H68   H     H_    0.530729 0.859025 0.777576 0.151376
H69   H     H_    0.496355 0.914262 0.868191 0.125667
H70   H     H_    0.702481 0.919674 0.840418 0.152104
H71   H     H_    0.888080 0.118057 0.393995 0.067172
H72   H     H_    0.043275 0.125430 0.330617 0.120921
O1    O     O_2   0.873960 0.434960 0.324060 -0.467404
O2    O     O_2   0.185699 0.181190 0.530442 -0.483873
O3    O     O_3   0.128500 0.197760 0.662998 -0.596274
O4    O     O_3   0.122410 0.443310 0.413000 -0.495751
O5    O     O_3   0.579960 0.613760 0.540040 -0.455293
O6    O     O_2   0.337900 0.272520 0.457940 -0.459569
O7    O     O_3   0.494032 0.238777 0.338255 -0.645223
O8    O     O_2   0.469501 0.442051 0.761701 -0.454678
O9    O     O_3   0.497809 0.268934 0.721562 -0.615081
O10   O     O_3   0.662870 0.605890 0.373310 -0.476723
O11   O     O_2   0.723058 0.535641 0.243686 -0.504010
O12   O     O_3   0.695000 0.760629 0.657477 -0.656351
O13   O     O_3   0.006200 0.288360 0.311136 -0.636027
O14   O     O_3   0.714360 0.713358 0.267915 -0.594549
O15   O     O_2   0.851800 0.727510 0.542110 -0.463422
O16   O     O_3   0.085000 0.656180 0.410790 -0.485453
O17   O     O_2   0.012057 0.820645 0.468145 -0.486892
O18   O     O_2   0.643912 0.559680 0.660440 -0.545416
O19   O     O_R   0.568951 0.635384 0.765922 -0.738000
O20   O     O_3   0.959632 0.849300 0.756407 -0.629072
O21   O     O_2   0.091700 0.302656 0.909462 -0.624873
O22   O     O_R   0.873568 0.203276 0.848059 -0.749963
O23   O     O_3   0.067104 0.795275 0.332545 -0.602917
O24   O     O_3   0.654546 0.100632 0.714065 -0.642134
O25   O     O_2   0.315740 0.565070 0.675980 -0.394987
O26   O     O_3   0.067300 0.556760 0.587010 -0.502161
O27   O     O_3   0.526840 0.394190 0.626700 -0.411370
O28   O     O_3   0.185849 0.711896 0.686722 -0.634489
O29   O     O_3   0.609760 0.386320 0.459970 -0.477903
O30   O     O_3   0.104710 0.343900 0.589220 -0.485340
P1    P     P_3+3 0.041320 0.408750 0.334280 0.973978
P2    P     P_3+3 0.676030 0.715810 0.563130 1.003475
P3    P     P_3+3 0.127878 0.773873 0.415434 0.936869
P4    P     P_3+3 0.148390 0.591320 0.665730 0.991146
P5    P     P_3+3 0.065912 0.224471 0.582496 0.946181
P6    P     P_3+3 0.624975 0.607548 0.284055 0.937732
P7    P     P_3+3 0.517010 0.270643 0.432305 0.932187
P8    P     P_3+3 0.573918 0.380413 0.713252 1.020420

loop_
_geom_bond_atom_site_label_1
_geom_bond_atom_site_label_2
_ccdc_geom_bond_type
C46   H44   S    
O28   P4    S    
C50   H67   S    
Ba2   O6    S    
C17   C18   A    
C31   H41   S    
C58   O21   D    
C16   H48   S    
C51   C52   S    
C25   C31   A    
O27   P8    S    
C24   C25   A    
C15   C21   A    
C44   H49   S    
C10   C26   S    
O17   P3    D    
C1    H3    S    
C7    C14   A    
C22   C24   A    
Ba1   Ba2   S    
C40   H34   S    
C8    C13   A    
C36   C37   A    
C43   H43   S    
C14   H31   S    
C55   C57   S    
C55   H57   S    
C33   C46   A    
C57   H61   S    
Ba1   P2    S    
C16   H15   S    
C54   C55   S    
O6    P7    D    
C23   H8    S    
C45   H16   S    
C2    C11   A    
C51   H2    S    
C35   H46   S    
C54   O20   S    
Ba1   O4    S    
C34   H10   S    
C38   C41   A    
C52   H5    S    
O7    P7    S    
Ba1   O26   S    
O2    P5    D    
C37   H47   S    
O8    P8    D    
C63   O24   S    
C33   C47   A    
C50   H72   S    
C39   C44   A    
C45   H17   S    
H53   O19   S    
C41   C46   A    
C62   H21   S    
Ba1   O1    S    
C59   H63   S    
O14   P6    S    
C49   O13   S    
C30   H40   S    
C19   C20   A    
O3    P5    S    
Ba2   O5    S    
C29   H39   S    
C53   O18   D    
C1    H14   S    
C19   H37   S    
C62   H20   S    
C54   H54   S    
C47   H42   S    
C51   C53   S    
O30   P5    S    
C4    C16   S    
C11   H30   S    
C49   C50   S    
C61   H68   S    
C60   H66   S    
C6    H28   S    
C28   O28   S    
C3    C10   A    
Ba2   O26   S    
C37   C38   A    
C3    C5    A    
C17   H33   S    
O9    P8    S    
C6    C7    A    
C36   P5    S    
C64   H26   S    
C18   H35   S    
C28   H52   S    
C4    H24   S    
C10   C64   A    
O10   P6    S    
C59   O24   S    
C27   H38   S    
C48   P7    S    
C57   H60   S    
C61   H69   S    
O15   P2    D    
C41   C42   A    
C35   C36   A    
Ba1   O5    S    
C56   H18   S    
C52   O20   S    
C9    C14   A    
C29   C30   A    
C52   H4    S    
C4    O23   S    
C53   O19   S    
C12   H1    S    
C5    P8    S    
C60   C61   S    
C50   H71   S    
C32   C42   A    
C7    P6    S    
C21   C26   A    
O11   P6    D    
Ba1   O15   S    
O25   P4    D    
Ba2   O27   S    
C1    C12   S    
C59   H64   S    
O4    P1    S    
C38   C39   A    
C9    P1    S    
C6    C13   A    
C62   O9    S    
C51   O12   S    
Ba2   O4    S    
C20   C22   A    
O26   P4    S    
C16   H50   S    
C56   H19   S    
Ba2   O30   S    
C39   C48   A    
C42   C43   A    
H62   O22   S    
C63   H22   S    
O29   P7    S    
C15   H32   S    
C49   H56   S    
C63   H25   S    
C13   C22   S    
C32   C47   A    
C49   H45   S    
C30   C31   A    
C2    P4    S    
C12   H6    S    
C60   H65   S    
C58   O22   S    
O5    P2    S    
C34   H13   S    
Ba2   O25   S    
C3    H27   S    
Ba1   O16   S    
C40   H12   S    
C28   H51   S    
C57   H59   S    
C45   O3    S    
O13   P1    S    
C34   H11   S    
C40   H23   S    
C54   H55   S    
C27   C29   A    
C61   H70   S    
C55   H58   S    
C2    C64   A    
C35   C48   A    
O12   P2    S    
C8    H29   S    
C62   C63   S    
Ba1   P1    S    
C15   C17   A    
O16   P3    S    
O1    P1    D    
C4    H36   S    
C59   C60   S    
C1    H7    S    
C8    C9    A    
C23   C34   S    
O23   P3    S    
C43   C44   A    
C5    C11   A    
C18   C19   A    
C24   C27   A    
C12   O14   S    
C25   C26   A    
C33   P2    S    
Ba1   O29   S    
C20   C21   A    
C28   C40   S    
Ba1   O10   S    
C23   O7    S    
C23   H9    S    
C56   C58   S    
Ba2   O29   S    
C32   P3    S    
Ba2   P4    S    
C45   C56   S    
