data_mof_unit_1759.cif
_audit_creation_date              2013-03-05T16:02:40-0500
_audit_creation_method            fapswitch 2.2
_symmetry_space_group_name_H-M    P1
_symmetry_Int_Tables_number       1
_space_group_crystal_system       triclinic
_cell_length_a                    6.952907
_cell_length_b                    17.353221
_cell_length_c                    18.73089
_cell_angle_alpha                 106.26009
_cell_angle_beta                  90.094142
_cell_angle_gamma                 90.790202
_cell_volume                      2169.34174064

loop_
_atom_site_label
_atom_site_type_symbol
_atom_site_description
_atom_site_fract_x
_atom_site_fract_y
_atom_site_fract_z
_atom_type_partial_charge
O1    O     O_R   0.494360 0.415680 0.413760 -0.586552
O2    O     O_R   0.818810 0.432910 0.557230 -0.574003
O3    O     O_R   0.994290 0.584320 0.586240 -0.575825
C1    C     C_R   0.649916 0.415868 0.580520 0.966768
O4    O     O_R   0.823740 0.406440 0.412520 -0.600267
O5    O     O_R   0.999250 0.557660 0.440500 -0.585145
C2    C     C_R   0.655748 0.388624 0.381324 0.969401
O6    O     O_R   0.489400 0.442340 0.559500 -0.567565
O7    O     O_3   0.662500 0.549650 0.509350 -0.268240
V1    V     V_3+5 0.935340 0.490790 0.498270 1.147786
O8    O     O_R   0.329270 0.567090 0.442770 -0.578429
C3    C     C_R   0.160955 0.584216 0.419549 0.945824
O9    O     O_R   0.324340 0.593560 0.587480 -0.584685
C4    C     C_R   0.156970 0.616939 0.614501 0.927643
V2    V     V_3+5 0.435970 0.509210 0.501730 1.156724
O10   O     O_3   0.158940 0.450350 0.490650 -0.263304
C5    C     C_R   0.115257 0.588683 0.756865 -0.171048
C6    C     C_R   0.073578 0.571128 0.822948 -0.158700
C7    C     C_R   0.012176 0.631289 0.883632 -0.124545
C8    C     C_R   0.998816 0.710708 0.880133 0.270117
C9    C     C_R   0.071180 0.732413 0.816687 -0.027324
C10   C     C_R   0.112194 0.668564 0.752049 0.113950
C11   C     C_R   0.106069 0.813883 0.815455 -0.243934
C12   C     C_R   0.153334 0.829941 0.746382 -0.015930
C13   C     C_R   0.183265 0.764575 0.681625 0.064765
C14   C     C_R   0.152640 0.684567 0.683849 -0.217980
C15   C     C_R   0.168240 0.909500 0.738605 0.283692
C16   C     C_R   0.237071 0.922399 0.672685 -0.300309
C17   C     C_R   0.277225 0.858437 0.610803 0.384842
C18   C     C_R   0.244621 0.780238 0.615017 -0.309272
H1    H     H_    0.154211 0.538990 0.709961 0.116246
H2    H     H_    0.078549 0.509736 0.825825 0.150765
H3    H     H_    0.960983 0.614795 0.932008 0.184794
H4    H     H_    0.248800 0.983334 0.668626 0.204702
H5    H     H_    0.269918 0.731552 0.565622 0.163549
C19   C     C_1   0.112446 0.864953 0.133566 -0.224631
C20   C     C_1   0.119824 0.822346 0.177121 0.097049
C21   C     C_1   0.128824 0.771903 0.228825 0.039597
C22   C     C_1   0.136468 0.729394 0.272455 0.067581
C23   C     C_1   0.145456 0.678982 0.324163 0.146016
C24   C     C_1   0.152801 0.636314 0.367635 -0.285629
C25   C     C_1   0.641489 0.363691 0.632335 -0.333310
C26   C     C_1   0.637323 0.320955 0.675793 0.062514
C27   C     C_1   0.633861 0.270693 0.727670 0.011205
C28   C     C_1   0.631233 0.228470 0.771592 0.017492
C29   C     C_1   0.627734 0.178459 0.823688 0.105165
C30   C     C_1   0.623528 0.136064 0.867441 -0.198246
C31   C     C_R   0.648861 0.410723 0.224538 -0.003321
C32   C     C_R   0.590475 0.418816 0.154423 0.399792
C33   C     C_R   0.544607 0.351348 0.096670 -0.249947
C34   C     C_R   0.558087 0.275625 0.106278 -0.228470
C35   C     C_R   0.603312 0.264646 0.176203 0.108635
C36   C     C_R   0.634209 0.333290 0.238876 0.012232
C37   C     C_R   0.621625 0.185850 0.183096 -0.252808
C38   C     C_R   0.651443 0.174182 0.253936 0.111379
C39   C     C_R   0.659517 0.241086 0.318237 0.105282
C40   C     C_R   0.649664 0.320770 0.311569 -0.260257
C41   C     C_R   0.668361 0.096085 0.262194 -0.244500
C42   C     C_R   0.691119 0.083696 0.331997 -0.112674
C43   C     C_R   0.695988 0.148892 0.396242 0.272905
C44   C     C_R   0.679419 0.226612 0.388736 -0.258199
H6    H     H_    0.504348 0.357495 0.042650 0.173081
H7    H     H_    0.529561 0.225691 0.057819 0.127218
H8    H     H_    0.663155 0.043410 0.214717 0.122006
H9    H     H_    0.703404 0.022589 0.334798 0.138073
H10   H     H_    0.683256 0.275650 0.439314 0.107189
O11   O     O_R   0.775690 0.057750 0.940570 -0.534620
O12   O     O_R   0.441200 0.093570 0.087490 -0.601693
O13   O     O_R   0.265840 0.942320 0.059480 -0.588547
C45   C     C_R   0.610457 0.115639 0.115692 0.903227
O14   O     O_R   0.446270 0.067110 0.942790 -0.559719
O15   O     O_R   0.270950 0.915660 0.913750 -0.572716
C46   C     C_R   0.615144 0.084214 0.919550 0.990539
O16   O     O_R   0.770580 0.084400 0.086300 -0.606047
O17   O     O_3   0.602640 0.950400 0.990690 -0.224633
V3    V     V_3+5 0.329740 0.009200 0.001730 1.232068
O18   O     O_R   0.940900 0.906360 0.912450 -0.517804
C47   C     C_R   0.107658 0.881065 0.886220 1.005373
O19   O     O_R   0.935830 0.932820 0.057160 -0.551069
C48   C     C_R   0.104113 0.916559 0.081151 0.960965
V4    V     V_3+5 0.829130 0.990680 0.998180 1.282073
O20   O     O_3   0.106100 0.049590 0.009310 -0.266788
N1    N     N_R   0.343126 0.872925 0.542730 0.246642
O21   O     O_R   0.362740 0.945872 0.537585 -0.418108
O22   O     O_R   0.384973 0.813415 0.485330 -0.414248
C49   C     C_3   0.761433 0.481247 0.274104 -0.422963
C50   C     C_3   0.630519 0.547199 0.318904 -0.670599
H11   H     H_    0.636517 0.600166 0.296709 0.257531
H12   H     H_    0.479278 0.525479 0.316601 0.239726
H13   H     H_    0.678386 0.567522 0.377572 0.253339
H14   H     H_    0.865153 0.461834 0.309872 0.192008
H15   H     H_    0.857431 0.507394 0.239197 0.211672
N2    N     N_R   0.586064 0.495616 0.139883 0.236205
O23   O     O_R   0.679508 0.506714 0.083361 -0.382747
O24   O     O_R   0.457012 0.547247 0.171966 -0.404870
N3    N     N_R   0.873788 0.761682 0.932755 0.220237
O25   O     O_R   0.881851 0.761166 0.001996 -0.421468
O26   O     O_R   0.714122 0.783403 0.908148 -0.365362
N4    N     N_R   0.084961 0.976769 0.791132 0.222588
O27   O     O_R   0.898703 0.978840 0.797034 -0.413026
O28   O     O_R   0.183488 0.043417 0.814498 -0.413524
C51   C     C_3   0.718415 0.139859 0.474143 -0.446854
C52   C     C_3   0.740520 0.053864 0.478861 -0.733769
H16   H     H_    0.611438 0.017013 0.455407 0.279549
H17   H     H_    0.871318 0.026529 0.448747 0.246756
H18   H     H_    0.755643 0.054450 0.538048 0.267091
H19   H     H_    0.846986 0.175267 0.500690 0.204205
H20   H     H_    0.590756 0.166090 0.507341 0.208445

loop_
_geom_bond_atom_site_label_1
_geom_bond_atom_site_label_2
_geom_bond_distance
_ccdc_geom_bond_type
C50   H11   1.110134 S    
O17   V3    2.149595 S    
N2    O23   1.301163 A    
C7    C8    1.402264 A    
C12   C15   1.430641 A    
O15   V3    1.999787 S    
C16   C17   1.393769 A    
V4    O20   2.149894 S    
O18   C47   1.293649 A    
C35   C36   1.432564 A    
C15   N4    1.429451 S    
C20   C21   1.477888 S    
C18   H5    1.080577 S    
C19   C20   1.246407 T    
C17   N1    1.441269 S    
C49   H14   1.101775 S    
O5    C3    1.311070 A    
C21   C22   1.246346 T    
V2    O10   2.149923 S    
C39   C40   1.425345 A    
O13   V3    1.845215 S    
C6    C7    1.383318 A    
O15   C47   1.311968 A    
C29   C30   1.245338 T    
O8    V2    1.848751 S    
C44   H10   1.081749 S    
N1    O21   1.301492 A    
N3    O26   1.301563 A    
C45   O16   1.299223 A    
C11   C12   1.435387 A    
C51   H20   1.111818 S    
O11   C46   1.313731 A    
O7    V1    2.149676 S    
C1    O6    1.313624 A    
C8    N3    1.430188 S    
C16   H4    1.083161 S    
C42   C43   1.401998 A    
N2    O24   1.300548 A    
O9    C4    1.294195 A    
C43   C51   1.518566 S    
C35   C37   1.416390 A    
C33   C34   1.379725 A    
C41   H8    1.082345 S    
C31   C36   1.444466 A    
C34   C35   1.410906 A    
C34   H7    1.080877 S    
C12   C13   1.427617 A    
C30   C46   1.502069 S    
C19   C48   1.504270 S    
V3    O20   1.704211 S    
C22   C23   1.477498 S    
O19   V4    1.848783 S    
C36   C40   1.441715 A    
C49   C50   1.528382 S    
O17   V4    1.703570 S    
C41   C42   1.392272 A    
C28   C29   1.476364 S    
C43   C44   1.400876 A    
O2    C1    1.311910 A    
C26   C27   1.476355 S    
C17   C18   1.396642 A    
N4    O27   1.300056 A    
C37   C45   1.490018 S    
O18   V4    2.010774 S    
N3    O25   1.300609 A    
C38   C39   1.420078 A    
C5    C6    1.385216 A    
C51   H19   1.111854 S    
C52   H17   1.110851 S    
C4    C14   1.487575 S    
O3    C4    1.300992 A    
O1    V2    2.009212 S    
C31   C32   1.418591 A    
N4    O28   1.300828 A    
O11   V4    1.836038 S    
O6    V2    1.835537 S    
C9    C11   1.437673 A    
C7    H3    1.083135 S    
C33   H6    1.083466 S    
C31   C49   1.518960 S    
C50   H13   1.105103 S    
C6    H2    1.082685 S    
C25   C26   1.245378 T    
O16   V4    2.013035 S    
O2    V1    1.867242 S    
C15   C16   1.399097 A    
C27   C28   1.245501 T    
C3    C24   1.503199 S    
O4    C2    1.299210 A    
C13   C18   1.414525 A    
C37   C38   1.412568 A    
C23   C24   1.245966 T    
N1    O22   1.301764 A    
O1    C2    1.306042 A    
O5    V1    1.845382 S    
O8    C3    1.314294 A    
O12   V3    1.993020 S    
C5    C10   1.414539 A    
O9    V2    2.010875 S    
C13   C14   1.413872 A    
O4    V1    1.993098 S    
O3    V1    1.999793 S    
V1    O10   1.704280 S    
C42   H9    1.080804 S    
O14   V3    1.867327 S    
C1    C25   1.502008 S    
C5    H1    1.082505 S    
C52   H18   1.110614 S    
C11   C47   1.500148 S    
O7    V2    1.704783 S    
C51   C52   1.529209 S    
O19   C48   1.314910 A    
C8    C9    1.433439 A    
O12   C45   1.297253 A    
C32   C33   1.386355 A    
C10   C14   1.409161 A    
C38   C41   1.412847 A    
O14   C46   1.311743 A    
C52   H16   1.110404 S    
C50   H12   1.108838 S    
C39   C44   1.418473 A    
O13   C48   1.310843 A    
C49   H15   1.112702 S    
C32   N2    1.433766 S    
C9    C10   1.425996 A    
C2    C40   1.494086 S    
