data_mof_unit_221.cif
_audit_creation_date              2012-12-10T18:24:44-0500
_audit_creation_method            fapswitch 2.2
_symmetry_space_group_name_H-M    P1
_symmetry_Int_Tables_number       1
_space_group_crystal_system       triclinic
_cell_length_a                    14.000549
_cell_length_b                    14.957597
_cell_length_c                    16.81564
_cell_angle_alpha                 90.066264
_cell_angle_beta                  84.134321
_cell_angle_gamma                 90.141333
_cell_volume                      3502.99039959

loop_
_atom_site_label
_atom_site_type_symbol
_atom_type_description
_atom_site_fract_x
_atom_site_fract_y
_atom_site_fract_z
_atom_type_partial_charge
C1    C     C_R   0.500436 0.673626 0.497877 0.891230
C2    C     C_R   0.500199 0.326367 0.497585 0.879480
C3    C     C_R   0.588615 0.185556 0.486283 -0.263080
C4    C     C_R   0.418178 0.814461 0.476740 -0.264620
C5    C     C_R   0.501549 0.230699 0.487503 -0.073295
C6    C     C_R   0.502455 0.769315 0.488520 -0.072749
C7    C     C_R   0.416829 0.185170 0.475770 -0.264372
C8    C     C_R   0.589723 0.814837 0.488017 -0.272090
C9    C     C_R   0.417329 0.092636 0.466147 0.090099
C10   C     C_R   0.593285 0.907422 0.480228 0.092218
C11   C     C_R   0.504901 0.046533 0.471778 0.032223
C12   C     C_R   0.506192 0.953454 0.472547 0.034264
C13   C     C_R   0.590793 0.093622 0.479447 0.097955
C14   C     C_R   0.419505 0.906335 0.468364 0.097954
C15   C     C_R   0.332792 0.044438 0.453695 0.096780
C16   C     C_R   0.680565 0.955445 0.481675 0.090101
C17   C     C_R   0.334861 0.951283 0.456641 -0.259263
C18   C     C_R   0.677645 0.048608 0.482111 -0.259510
C19   C     C_R   0.197101 0.437484 0.543978 -0.064724
C20   C     C_R   0.802720 0.564355 0.458167 -0.066275
C21   C     C_R   0.207327 0.562678 0.457093 -0.036665
C22   C     C_R   0.792975 0.436335 0.541596 -0.042138
C23   C     C_R   0.485721 0.496268 0.652913 0.861238
C24   C     C_R   0.514095 0.502217 0.347052 0.854840
C25   C     C_R   0.107006 0.564367 0.456800 -0.024317
C26   C     C_R   0.893095 0.435881 0.543368 -0.020841
C27   C     C_R   0.050613 0.499769 0.500738 0.088428
C28   C     C_R   0.949439 0.500755 0.499833 0.091131
C29   C     C_R   0.095538 0.434768 0.545815 -0.081770
C30   C     C_R   0.904380 0.566467 0.455668 -0.085297
C31   C     C_R   0.062831 0.629521 0.413424 -0.195608
C32   C     C_R   0.937016 0.372105 0.588365 -0.200784
C33   C     C_R   0.962294 0.631841 0.411928 -0.009357
C34   C     C_R   0.037374 0.370818 0.591227 -0.006051
C35   C     C_R   0.472423 0.475835 0.737535 -0.072254
C36   C     C_R   0.524110 0.495068 0.261111 -0.053843
C37   C     C_R   0.515714 0.399610 0.768818 0.073893
C38   C     C_R   0.469881 0.549023 0.213647 0.088771
C39   C     C_R   0.494596 0.381187 0.850367 -0.150526
C40   C     C_R   0.466955 0.525302 0.133771 -0.170768
C41   C     C_R   0.433042 0.436850 0.898865 0.161930
C42   C     C_R   0.518027 0.450732 0.101653 0.167390
C43   C     C_R   0.385562 0.507277 0.865801 -0.164773
C44   C     C_R   0.578608 0.403623 0.147198 -0.173163
C45   C     C_R   0.405227 0.526716 0.785383 -0.218368
C46   C     C_R   0.581180 0.425351 0.227004 -0.223093
C47   C     C_2   0.429911 0.432289 0.985490 -0.231534
C48   C     C_2   0.512055 0.424291 0.019093 -0.225839
H1    H     H_    0.235972 0.390826 0.577087 0.122228
H2    H     H_    0.763787 0.613285 0.427490 0.119263
H3    H     H_    0.251870 0.611553 0.423270 0.120891
H4    H     H_    0.748881 0.385926 0.573504 0.119783
H5    H     H_    0.107561 0.678621 0.379894 0.179851
H6    H     H_    0.892218 0.323087 0.621875 0.177486
H7    H     H_    0.623689 0.384560 0.263271 0.158387
H8    H     H_    0.369475 0.582853 0.760581 0.151834
H9    H     H_    0.578426 0.405122 0.984106 0.154027
H10   H     H_    0.364316 0.452652 0.021017 0.154872
H11   H     H_    0.337607 0.550364 0.903098 0.134204
H12   H     H_    0.620499 0.347722 0.121934 0.139482
H13   H     H_    0.424774 0.565252 0.096625 0.131052
H14   H     H_    0.527593 0.325527 0.877866 0.125639
H15   H     H_    0.654592 0.221621 0.493244 0.163952
H16   H     H_    0.351255 0.778252 0.474515 0.159071
H17   H     H_    0.350668 0.222324 0.476342 0.166187
H18   H     H_    0.654014 0.777406 0.495643 0.168111
H19   H     H_    0.269706 0.913621 0.450348 0.152956
H20   H     H_    0.743279 0.086296 0.486269 0.149045
N1    N     N_R   0.249970 0.499930 0.499970 -0.095578
N2    N     N_R   0.750030 0.500070 0.500030 -0.093636
O1    O     O_R   0.419720 0.632140 0.499990 -0.631540
O2    O     O_R   0.580280 0.367860 0.500010 -0.632796
O3    O     O_R   0.580270 0.632160 0.499980 -0.627502
O4    O     O_R   0.419730 0.367840 0.500020 -0.627054
O5    O     O_R   0.410240 0.500000 0.615800 -0.608555
O6    O     O_R   0.589760 0.500000 0.384200 -0.614890
O7    O     O_R   0.570790 0.500020 0.615800 -0.618642
O8    O     O_R   0.429210 0.499980 0.384200 -0.618315
Zn1   Zn    Zn3+2 0.392800 0.499980 0.500010 0.943339
Zn2   Zn    Zn3+2 0.607200 0.500020 0.499990 0.939642
C49   C     C_3   0.582067 0.339537 0.714627 -0.401131
C50   C     C_3   0.616471 0.253625 0.752927 -0.375844
C51   C     C_3   0.675688 0.195765 0.691488 -0.855901
H21   H     H_    0.630123 0.171480 0.645716 0.265316
H22   H     H_    0.737240 0.234318 0.661916 0.253786
H23   H     H_    0.703882 0.136869 0.721650 0.256293
H24   H     H_    0.661982 0.271217 0.801114 0.227833
H25   H     H_    0.553636 0.213800 0.778656 0.228682
H26   H     H_    0.543682 0.319794 0.662660 0.201526
H27   H     H_    0.646507 0.379115 0.692723 0.215902
C52   C     C_3   0.415329 0.631532 0.245257 -0.445154
C53   C     C_3   0.461234 0.716993 0.208013 -0.351988
C54   C     C_3   0.408185 0.800187 0.241223 -0.861110
H28   H     H_    0.332021 0.798078 0.228172 0.264396
H29   H     H_    0.410950 0.804725 0.306817 0.266540
H30   H     H_    0.442678 0.860822 0.213019 0.253945
H31   H     H_    0.537340 0.721218 0.221234 0.228985
H32   H     H_    0.459774 0.715815 0.142073 0.225219
H33   H     H_    0.339583 0.626162 0.231296 0.206108
H34   H     H_    0.413584 0.637995 0.311012 0.212287
C55   C     C_2   0.921093 0.702724 0.363510 0.362718
H35   H     H_    0.848102 0.699231 0.348087 0.050831
O9    O     O_2   0.969468 0.767017 0.339158 -0.578601
C56   C     C_2   0.078003 0.302340 0.642594 0.380525
H36   H     H_    0.154297 0.290820 0.640831 0.051153
O10   O     O_2   0.025424 0.256396 0.688482 -0.576426
C57   C     C_3   0.240015 0.088435 0.435555 -0.430372
C58   C     C_3   0.172665 0.103590 0.512046 -0.328993
C59   C     C_3   0.077089 0.142894 0.492976 -0.863069
H37   H     H_    0.088468 0.210118 0.465547 0.258820
H38   H     H_    0.042470 0.098455 0.451319 0.259576
H39   H     H_    0.027967 0.149292 0.548791 0.273716
H40   H     H_    0.158550 0.038888 0.543630 0.231544
H41   H     H_    0.206777 0.149910 0.552510 0.218065
H42   H     H_    0.253995 0.152104 0.402513 0.199542
H43   H     H_    0.203433 0.044679 0.394427 0.210348
C60   C     C_3   0.777427 0.910594 0.483267 -0.401427
C61   C     C_3   0.795672 0.885216 0.568751 -0.362315
C62   C     C_3   0.889274 0.833293 0.569474 -0.826055
H44   H     H_    0.885024 0.769381 0.536327 0.263163
H45   H     H_    0.950668 0.873450 0.541652 0.268435
H46   H     H_    0.901949 0.817865 0.632099 0.247016
H47   H     H_    0.799941 0.947032 0.605031 0.229459
H48   H     H_    0.735858 0.843563 0.597138 0.225929
H49   H     H_    0.782803 0.851328 0.443213 0.204907
H50   H     H_    0.835652 0.956586 0.458613 0.210069

loop_
_geom_bond_atom_site_label_1
_geom_bond_atom_site_label_2
_ccdc_geom_bond_type
C25   C31   A    
C26   C32   A    
C55   H35   S    
C27   C29   A    
C60   C61   S    
C20   N2    A    
O1    Zn1   S    
C49   C50   S    
C53   H32   S    
C48   H9    S    
C39   C41   A    
C20   C30   A    
C8    H18   S    
C54   H28   S    
C13   C18   A    
C33   C55   S    
C35   C37   A    
C44   H12   S    
C59   H38   S    
C62   H46   S    
C18   H20   S    
C15   C57   S    
C50   H24   S    
C58   C59   S    
C15   C17   A    
C58   H41   S    
C61   C62   S    
C20   H2    S    
C51   H21   S    
C45   H8    S    
C46   H7    S    
C57   C58   S    
C31   C33   A    
C36   C46   A    
C52   H34   S    
C60   H50   S    
C3    C13   A    
C43   H11   S    
C61   H47   S    
C49   H26   S    
C40   C42   A    
C55   O9    D    
C41   C43   A    
C14   C17   A    
C37   C49   S    
C42   C44   A    
C2    O2    A    
C32   H6    S    
C56   H36   S    
C44   C46   A    
C53   H31   S    
C62   H45   S    
C37   C39   A    
C17   H19   S    
N2    Zn2   S    
C1    C6    S    
C4    C6    A    
C59   H39   S    
C52   C53   S    
C5    C7    A    
O8    Zn1   S    
C24   O6    A    
C61   H48   S    
C29   C34   A    
C34   C56   S    
C40   H13   S    
C21   N1    A    
C32   C34   A    
C58   H40   S    
C7    H17   S    
C43   C45   A    
C19   H1    S    
C47   C48   D    
C62   H44   S    
C41   C47   S    
C16   C18   A    
C42   C48   S    
C23   O7    A    
C9    C11   A    
C57   H42   S    
C10   C12   A    
C49   H27   S    
C24   O8    A    
C51   H22   S    
C12   C14   A    
C54   H30   S    
C23   C35   S    
O4    Zn1   S    
N1    Zn1   S    
C2    C5    S    
C19   C29   A    
C21   H3    S    
C22   H4    S    
O7    Zn2   S    
C7    C9    A    
C39   H14   S    
C21   C25   A    
C30   C33   A    
O6    Zn2   S    
C23   O5    A    
C3    C5    A    
C2    O4    A    
C6    C8    A    
C11   C12   A    
C56   O10   D    
C3    H15   S    
C25   C27   A    
C4    H16   S    
C26   C28   A    
C24   C36   S    
C1    O3    A    
C28   C30   A    
C9    C15   A    
O2    Zn2   S    
C10   C16   A    
C16   C60   S    
C47   H10   S    
C38   C40   A    
C11   C13   A    
C54   H29   S    
O5    Zn1   S    
C1    O1    A    
C50   H25   S    
C38   C52   S    
C36   C38   A    
C53   C54   S    
O3    Zn2   S    
C31   H5    S    
C4    C14   A    
C57   H43   S    
C19   N1    A    
C51   H23   S    
C8    C10   A    
C50   C51   S    
C22   C26   A    
C27   C28   A    
C52   H33   S    
C59   H37   S    
C60   H49   S    
C22   N2    A    
C35   C45   A    
