data_mof_unit_215.cif
_audit_creation_date              2012-12-10T20:30:08-0500
_audit_creation_method            fapswitch 2.2
_symmetry_space_group_name_H-M    P1
_symmetry_Int_Tables_number       1
_space_group_crystal_system       triclinic
_cell_length_a                    9.878874
_cell_length_b                    10.68641
_cell_length_c                    13.192923
_cell_angle_alpha                 90.621626
_cell_angle_beta                  70.617062
_cell_angle_gamma                 90.383893
_cell_volume                      1313.74824106

loop_
_atom_site_label
_atom_site_type_symbol
_atom_type_description
_atom_site_fract_x
_atom_site_fract_y
_atom_site_fract_z
_atom_type_partial_charge
C1    C     C_R   0.499198 0.740048 0.502625 0.878049
C2    C     C_R   0.475765 0.556857 0.960878 0.177858
C3    C     C_R   0.452646 0.484862 0.877811 0.120677
C4    C     C_R   0.553158 0.502592 0.022618 -0.101862
C5    C     C_R   0.631959 0.390165 0.984599 0.005116
C6    C     C_R   0.612322 0.323744 0.898862 -0.196525
C7    C     C_R   0.517076 0.366577 0.850777 -0.247178
C8    C     C_R   0.544850 0.548739 0.125521 0.449195
C9    C     C_R   0.722901 0.395542 0.133293 -0.391632
C10   C     C_R   0.376793 0.536969 0.815580 -0.096874
C11   C     C_R   0.366248 0.935398 0.529672 0.129724
C12   C     C_R   0.420988 0.502693 0.703173 0.851749
C13   C     C_R   0.493120 0.871717 0.518334 -0.091951
C14   C     C_R   0.613044 0.936866 0.525903 -0.248787
C15   C     C_R   0.611956 0.065855 0.527394 -0.234054
C16   C     C_R   0.491979 0.128796 0.519130 -0.104811
C17   C     C_R   0.365879 0.063267 0.529607 0.128202
C18   C     C_3   0.269462 0.068327 0.463208 -0.451618
C19   C     C_3   0.268995 0.926542 0.463860 -0.503630
C20   C     C_R   0.896449 0.569435 0.574362 0.063135
C21   C     C_R   0.960045 0.434468 0.424949 -0.281315
C22   C     C_R   0.105709 0.430852 0.425566 0.558218
C23   C     C_R   0.498531 0.260041 0.502904 0.868938
C24   C     C_R   0.039744 0.570036 0.573637 0.004532
C25   C     C_3   0.998047 0.553719 0.691988 -0.511492
C26   C     C_3   0.843924 0.547248 0.694350 0.393860
C27   C     C_R   0.578911 0.503100 0.296566 0.973803
C28   C     C_R   0.722583 0.341236 0.037036 0.548403
C29   C     C_R   0.625583 0.490282 0.180975 -0.206233
C30   C     C_R   0.309422 0.653177 0.843286 -0.180259
C31   C     C_R   0.338104 0.727024 0.920893 -0.211484
C32   C     C_R   0.428195 0.682577 0.974000 -0.136787
H1    H     H_    0.786814 0.353743 0.176678 0.181009
H2    H     H_    0.708624 0.115049 0.526443 0.171491
H3    H     H_    0.163287 0.109864 0.508081 0.208267
H4    H     H_    0.324015 0.107854 0.382223 0.222538
H5    H     H_    0.321844 0.883998 0.383101 0.221543
H6    H     H_    0.926440 0.382582 0.366736 0.162047
H7    H     H_    0.036611 0.464039 0.714381 0.190830
H8    H     H_    0.252807 0.694516 0.794300 0.144724
H9    H     H_    0.462105 0.749132 0.022815 0.189743
N1    N     N_R   0.856940 0.500860 0.500710 -0.136178
N2    N     N_R   0.142580 0.500820 0.500710 -0.137024
O1    O     O_R   0.385310 0.683210 0.499990 -0.615927
O2    O     O_R   0.614650 0.683240 0.500000 -0.630511
O3    O     O_R   0.328390 0.499940 0.653610 -0.622846
O4    O     O_R   0.557730 0.499980 0.653620 -0.595422
O5    O     O_R   0.385350 0.316760 0.500000 -0.578544
O6    O     O_R   0.614690 0.316790 0.500010 -0.633417
O7    O     O_R   0.442270 0.500020 0.346380 -0.547632
O8    O     O_R   0.671610 0.500060 0.346390 -0.630018
Zn1   Zn    Zn3+2 0.346870 0.499980 0.499990 0.982291
Zn2   Zn    Zn3+2 0.653130 0.500020 0.500010 0.936082
H10   H     H_    0.162726 0.885810 0.509849 0.200607
O9    O     O_3   0.214248 0.358700 0.354534 -0.576613
C33   C     C_3   0.167853 0.277725 0.287485 -0.426418
H11   H     H_    0.261060 0.221852 0.238019 0.199675
H12   H     H_    0.129334 0.331268 0.230677 0.166326
H13   H     H_    0.085240 0.210843 0.335550 0.172029
H14   H     H_    0.023962 0.638047 0.732196 0.210745
H15   H     H_    0.797691 0.451916 0.713885 0.119902
H16   H     H_    0.666015 0.235538 0.871285 0.182129
O10   O     O_3   0.755842 0.638497 0.765220 -0.581980
C34   C     C_3   0.755645 0.755943 0.717691 -0.266726
H17   H     H_    0.697258 0.749378 0.659317 0.191434
H18   H     H_    0.866156 0.793093 0.679568 0.139545
H19   H     H_    0.696892 0.823301 0.781402 0.178920
O11   O     O_3   0.810141 0.239756 0.994225 -0.609954
C35   C     C_3   0.750490 0.132068 0.053777 -0.349378
H20   H     H_    0.637308 0.116507 0.057504 0.155993
H21   H     H_    0.757177 0.137247 0.136206 0.169190
H22   H     H_    0.813312 0.049409 0.012974 0.200320
O12   O     O_3   0.455688 0.647304 0.176480 -0.645332
C36   C     C_3   0.308703 0.612517 0.208576 -0.246875
H23   H     H_    0.288239 0.515290 0.186018 0.172744
H24   H     H_    0.249919 0.677836 0.173576 0.154152
H25   H     H_    0.260666 0.624621 0.296753 0.202317
H26   H     H_    0.298729 0.822153 0.934538 0.148953
H27   H     H_    0.499367 0.309077 0.788143 0.139450
H28   H     H_    0.711106 0.889643 0.522295 0.160832

loop_
_geom_bond_atom_site_label_1
_geom_bond_atom_site_label_2
_ccdc_geom_bond_type
O9    C33   S    
C27   C29   S    
O12   C36   S    
C4    C8    A    
C11   C19   S    
C36   H24   S    
C8    C29   A    
C28   O11   S    
C26   H15   S    
C3    C7    A    
N1    Zn2   S    
C5    C6    A    
N2    Zn1   S    
C23   O6    A    
C15   C16   A    
O3    Zn1   S    
C33   H11   S    
C2    C32   A    
C18   C19   S    
C35   H21   S    
C19   H5    S    
C21   H6    S    
C31   C32   A    
C16   C17   A    
C36   H25   S    
O7    Zn1   S    
C32   H9    S    
C25   H14   S    
C14   H28   S    
C18   H3    S    
C15   H2    S    
C27   O7    A    
C9    C29   A    
O4    Zn2   S    
O1    Zn1   S    
O2    Zn2   S    
C21   C22   A    
C9    H1    S    
C12   O4    A    
C27   O8    A    
C36   H23   S    
C34   H19   S    
C20   C24   A    
C24   C25   S    
C12   O3    A    
O11   C35   S    
C25   C26   S    
O10   C34   S    
O8    Zn2   S    
C34   H18   S    
C35   H22   S    
C2    C4    A    
C26   O10   S    
C5    C28   A    
C10   C30   A    
C1    O1    A    
C22   N2    A    
C17   C18   S    
C30   H8    S    
C6    C7    A    
C10   C12   S    
C19   H10   S    
C16   C23   S    
C1    C13   S    
C31   H26   S    
C7    H27   S    
C11   C17   A    
C23   O5    A    
C4    C5    A    
C20   N1    A    
C22   O9    S    
C33   H13   S    
C34   H17   S    
C6    H16   S    
C2    C3    A    
C3    C10   A    
C25   H7    S    
C11   C13   A    
C1    O2    A    
C30   C31   A    
C20   C26   S    
O6    Zn2   S    
C8    O12   S    
C33   H12   S    
C35   H20   S    
C21   N1    A    
O5    Zn1   S    
C24   N2    A    
C14   C15   A    
C13   C14   A    
C18   H4    S    
C9    C28   A    
