data_mof_unit_1869.cif
_audit_creation_date              2012-12-10T17:33:57-0500
_audit_creation_method            fapswitch 2.2
_symmetry_space_group_name_H-M    P1
_symmetry_Int_Tables_number       1
_space_group_crystal_system       triclinic
_cell_length_a                    10.640638
_cell_length_b                    12.015373
_cell_length_c                    12.800415
_cell_angle_alpha                 94.469737
_cell_angle_beta                  90.692961
_cell_angle_gamma                 86.921071
_cell_volume                      1629.16492396

loop_
_atom_site_label
_atom_site_type_symbol
_atom_type_description
_atom_site_fract_x
_atom_site_fract_y
_atom_site_fract_z
_atom_type_partial_charge
C1    C     C_R   0.498729 0.523038 0.700378 0.862533
C2    C     C_R   0.545899 0.464043 0.975491 0.159881
C3    C     C_R   0.467376 0.550328 0.026704 0.149994
C4    C     C_R   0.741676 0.501620 0.505394 0.869523
C5    C     C_R   0.445724 0.545311 0.132553 -0.228466
C6    C     C_R   0.591362 0.382825 0.138273 -0.216376
C7    C     C_R   0.607412 0.381191 0.031225 -0.194859
C8    C     C_R   0.381136 0.950469 0.402439 -0.297816
C9    C     C_R   0.392535 0.835327 0.411924 0.052374
C10   C     C_R   0.548284 0.860114 0.544697 -0.026632
C11   C     C_R   0.540048 0.976936 0.537996 0.044067
C12   C     C_3   0.120363 0.497282 0.504871 -0.047228
C13   C     C_R   0.458717 0.022319 0.463010 -0.053313
C14   C     C_R   0.457939 0.138740 0.450367 0.569821
C15   C     C_R   0.599310 0.164703 0.594351 -0.076383
C16   C     C_R   0.502383 0.477306 0.299593 0.888682
C17   C     C_R   0.610899 0.049011 0.603761 -0.328253
C18   C     C_R   0.257738 0.499523 0.502698 0.833996
C19   C     C_3   0.931939 0.412671 0.578424 -0.418071
C20   C     C_3   0.077331 0.416165 0.588823 0.402752
C21   C     C_3   0.923678 0.474712 0.393328 -0.425304
C22   C     C_3   0.922127 0.618113 0.548407 -0.418122
C23   C     C_3   0.070190 0.462774 0.390218 0.394280
C24   C     C_3   0.877641 0.502309 0.506787 0.026420
C25   C     C_3   0.093313 0.511253 0.214016 0.044008
C26   C     C_3   0.072270 0.617559 0.157697 -0.784013
C27   C     C_2   0.339223 0.736871 0.017207 0.339708
C28   C     C_3   0.453803 0.154736 0.274074 0.087412
C29   C     C_3   0.372419 0.191316 0.183024 -0.799248
C30   C     C_2   0.121149 0.461101 0.698291 0.280301
C31   C     C_3   0.114735 0.231179 0.642599 0.118408
C32   C     C_3   0.118164 0.112496 0.591630 -0.771492
C33   C     C_2   0.119241 0.343872 0.354361 0.423716
C34   C     C_3   0.064567 0.618517 0.537763 -0.426424
C35   C     C_R   0.509696 0.464310 0.187969 -0.089729
C36   C     C_R   0.495951 0.539118 0.811958 -0.044298
C37   C     C_R   0.410834 0.636545 0.969486 0.013095
C38   C     C_R   0.424022 0.628136 0.861223 -0.299868
C39   C     C_R   0.560169 0.460006 0.868683 -0.268240
H1    H     H_    0.907890 0.328778 0.542921 0.215183
H2    H     H_    0.652342 0.220251 0.646442 0.148494
H3    H     H_    0.312600 0.982522 0.347595 0.200592
H4    H     H_    0.673527 0.016416 0.662746 0.156909
H5    H     H_    0.334289 0.780047 0.364148 0.162708
H6    H     H_    0.611739 0.823072 0.600643 0.122119
H7    H     H_    0.879353 0.398919 0.357616 0.178344
H8    H     H_    0.878286 0.686052 0.503520 0.200552
H9    H     H_    0.895051 0.636165 0.631992 0.206087
H10   H     H_    0.106248 0.652809 0.612868 0.180483
H11   H     H_    0.009971 0.459966 0.198774 0.149061
H12   H     H_    0.086608 0.677355 0.478320 0.243604
H13   H     H_    0.177591 0.463401 0.180399 0.142221
H14   H     H_    0.152665 0.671865 0.172751 0.268259
H15   H     H_    0.063433 0.596334 0.072014 0.221982
H16   H     H_    0.984664 0.663862 0.186287 0.251420
H17   H     H_    0.263980 0.776337 0.972845 0.077893
H18   H     H_    0.474825 0.063281 0.259524 0.145345
H19   H     H_    0.544934 0.195414 0.273915 0.153374
H20   H     H_    0.352119 0.282979 0.190909 0.238291
H21   H     H_    0.422273 0.168810 0.108006 0.216952
H22   H     H_    0.282181 0.148856 0.181298 0.262553
H23   H     H_    0.888797 0.543879 0.345652 0.188594
H24   H     H_    0.221215 0.461463 0.715611 0.074885
H25   H     H_    0.023675 0.247348 0.684379 0.127674
H26   H     H_    0.192722 0.237428 0.700983 0.147072
H27   H     H_    0.209529 0.092455 0.551816 0.267212
H28   H     H_    0.106732 0.052527 0.652151 0.189381
H29   H     H_    0.040709 0.103849 0.533095 0.267775
H30   H     H_    0.217352 0.329935 0.334197 0.135099
H31   H     H_    0.380106 0.604352 0.173833 0.202004
H32   H     H_    0.644933 0.322978 0.182259 0.148479
H33   H     H_    0.669268 0.316657 0.992329 0.140278
H34   H     H_    0.376961 0.690121 0.814990 0.153034
H35   H     H_    0.618339 0.393038 0.828939 0.147013
H36   H     H_    0.884667 0.422572 0.655854 0.176002
N1    N     N_R   0.523380 0.207800 0.519350 -0.132248
N2    N     N_R   0.476620 0.792180 0.480650 -0.109966
O1    O     O_R   0.506240 0.421700 0.658830 -0.633039
O2    O     O_2   0.368120 0.780758 0.102733 -0.594168
O3    O     O_3   0.389894 0.183836 0.369713 -0.599230
O4    O     O_2   0.047145 0.496537 0.766749 -0.608463
O5    O     O_3   0.132459 0.306189 0.564390 -0.593998
O6    O     O_2   0.051538 0.264635 0.347013 -0.583476
O7    O     O_R   0.491240 0.609310 0.646410 -0.628964
O8    O     O_R   0.692710 0.406190 0.506230 -0.636593
O9    O     O_R   0.677700 0.593810 0.493810 -0.626639
O10   O     O_R   0.508760 0.390690 0.353590 -0.604514
O11   O     O_R   0.493760 0.578300 0.341170 -0.603346
O12   O     O_R   0.322300 0.406190 0.506190 -0.568169
O13   O     O_R   0.307290 0.593810 0.493770 -0.613008
O14   O     O_3   0.115554 0.540324 0.322027 -0.646067
Zn1   Zn    Zn3+2 0.510020 0.374730 0.508290 0.976143
Zn2   Zn    Zn3+2 0.489980 0.625270 0.491710 0.951980

loop_
_geom_bond_atom_site_label_1
_geom_bond_atom_site_label_2
_ccdc_geom_bond_type
C22   H9    S    
C8    C13   A    
C20   O5    S    
C19   C20   S    
C26   H16   S    
C20   C30   S    
C28   H18   S    
C1    O7    A    
C12   C23   S    
C34   H12   S    
C5    H31   S    
C31   O5    S    
C28   C29   S    
C8    H3    S    
C27   O2    D    
C16   C35   S    
C4    C24   S    
C4    O9    A    
C6    C35   A    
C31   H26   S    
C39   H35   S    
N2    Zn2   S    
C25   H11   S    
C2    C7    A    
C2    C39   A    
C10   N2    A    
C29   H20   S    
C8    C9    A    
C9    H5    S    
C16   O10   A    
C14   O3    S    
C33   H30   S    
C32   H29   S    
C22   H8    S    
O10   Zn1   S    
C1    O1    A    
C26   H15   S    
O8    Zn1   S    
C6    H32   S    
C22   C34   S    
C29   H22   S    
C25   O14   S    
C13   C14   A    
C18   O13   A    
C15   H2    S    
C23   C33   S    
C19   H1    S    
C7    H33   S    
C27   H17   S    
C4    O8    A    
O1    Zn1   S    
C25   C26   S    
C14   N1    A    
C17   H4    S    
C37   C38   A    
O9    Zn2   S    
C31   C32   S    
C29   H21   S    
C12   C20   S    
C10   H6    S    
C9    N2    A    
O12   Zn1   S    
C33   O6    D    
C21   H23   S    
N1    Zn1   S    
C32   H28   S    
C21   C23   S    
C23   O14   S    
C12   C34   S    
C26   H14   S    
O13   Zn2   S    
C32   H27   S    
C21   H7    S    
C15   C17   A    
O11   Zn2   S    
C11   C17   A    
C34   H10   S    
C18   O12   A    
C31   H25   S    
C36   C39   A    
C3    C5    A    
C6    C7    A    
C28   H19   S    
C30   O4    D    
C36   C38   A    
C2    C3    A    
C25   H13   S    
C11   C13   A    
C27   C37   S    
C5    C35   A    
C19   H36   S    
C19   C24   S    
C22   C24   S    
O7    Zn2   S    
C28   O3    S    
C10   C11   A    
C3    C37   A    
C21   C24   S    
C12   C18   S    
C16   O11   A    
C15   N1    A    
C30   H24   S    
C1    C36   S    
C38   H34   S    
