data_mof_unit_109.cif
_audit_creation_date              2012-12-10T16:56:30-0500
_audit_creation_method            fapswitch 2.2
_symmetry_space_group_name_H-M    P1
_symmetry_Int_Tables_number       1
_space_group_crystal_system       triclinic
_cell_length_a                    7.762105
_cell_length_b                    8.596942
_cell_length_c                    15.641084
_cell_angle_alpha                 89.827949
_cell_angle_beta                  88.866776
_cell_angle_gamma                 92.123078
_cell_volume                      1042.8075081

loop_
_atom_site_label
_atom_site_type_symbol
_atom_type_description
_atom_site_fract_x
_atom_site_fract_y
_atom_site_fract_z
_atom_type_partial_charge
C1    C     C_R   0.542940 0.793882 0.495470 0.945593
C2    C     C_3   0.402774 0.373083 0.024895 -0.254383
C3    C     C_1   0.524070 0.498951 0.750649 -0.147555
C4    C     C_1   0.475934 0.501064 0.249350 -0.147587
C5    C     C_3   0.345924 0.501448 0.962842 0.211278
C6    C     C_3   0.654082 0.498572 0.037157 0.211282
C7    C     C_3   0.522984 0.497371 0.917324 0.020025
C8    C     C_3   0.477022 0.502649 0.082676 0.020030
C9    C     C_1   0.532338 0.497459 0.826065 0.013786
C10   C     C_1   0.467667 0.502559 0.173935 0.013775
C11   C     C_3   0.331913 0.776696 0.051553 -0.375684
C12   C     C_R   0.457061 0.206119 0.504538 0.945527
C13   C     C_3   0.298209 0.885770 0.977083 -0.834901
C14   C     C_3   0.668093 0.223325 0.948446 -0.375683
C15   C     C_3   0.701799 0.114250 0.022916 -0.834899
C16   C     C_3   0.650612 0.004969 0.393512 -0.402286
C17   C     C_3   0.626601 0.891113 0.319206 -0.859120
C18   C     C_3   0.349384 0.995070 0.606506 -0.402389
C19   C     C_3   0.373780 0.108770 0.680848 -0.859403
C20   C     C_R   0.507071 0.500851 0.661950 0.880127
C21   C     C_R   0.492931 0.499158 0.338050 0.880164
C22   C     C_2   0.552407 0.954202 0.476379 -0.075676
C23   C     C_2   0.447600 0.045799 0.523636 -0.075670
C24   C     C_3   0.420197 0.629781 0.021783 0.150729
C25   C     C_3   0.579809 0.370239 0.978217 0.150732
C26   C     C_3   0.597232 0.626937 0.975105 -0.254384
H1    H     H_    0.678023 0.728533 0.952359 0.174085
H2    H     H_    0.796638 0.168565 0.066834 0.288772
H3    H     H_    0.580437 0.085400 0.059159 0.257688
H4    H     H_    0.755124 0.004865 0.998034 0.250438
H5    H     H_    0.583985 0.161579 0.901905 0.200359
H6    H     H_    0.791963 0.256379 0.915488 0.246539
H7    H     H_    0.700229 0.785045 0.329876 0.285282
H8    H     H_    0.487802 0.859270 0.311337 0.250609
H9    H     H_    0.676827 0.946118 0.258894 0.253905
H10   H     H_    0.606945 0.117217 0.368234 0.222784
H11   H     H_    0.790269 0.019005 0.407135 0.227740
H12   H     H_    0.321983 0.271487 0.047640 0.174084
H13   H     H_    0.512657 0.140309 0.688681 0.250711
H14   H     H_    0.300425 0.215009 0.670242 0.285218
H15   H     H_    0.323492 0.053788 0.741154 0.253947
H16   H     H_    0.209695 0.981353 0.592924 0.227739
H17   H     H_    0.392766 0.882699 0.631727 0.222936
H18   H     H_    0.013007 0.383841 0.436685 0.198465
H19   H     H_    0.986993 0.616159 0.563315 0.198476
H20   H     H_    0.419572 0.914620 0.940840 0.257686
H21   H     H_    0.203371 0.831455 0.933164 0.288772
H22   H     H_    0.244885 0.995156 0.001964 0.250439
H23   H     H_    0.208043 0.743642 0.084510 0.246537
H24   H     H_    0.416021 0.838441 0.098094 0.200355
I1    I     I_    0.888373 0.507073 0.107947 -0.429247
I2    I     I_    0.111632 0.492948 0.892054 -0.429226
N1    N     N_2   0.950320 0.457950 0.477300 -0.167454
N2    N     N_2   0.049680 0.542050 0.522700 -0.167432
O1    O     O_R   0.389250 0.738570 0.505570 -0.632990
O2    O     O_R   0.610750 0.261430 0.494430 -0.632958
O3    O     O_R   0.678390 0.711630 0.491020 -0.623866
O4    O     O_R   0.321610 0.288370 0.508980 -0.623864
O5    O     O_R   0.355460 0.513480 0.630490 -0.607518
O6    O     O_R   0.644540 0.486520 0.369510 -0.607504
O7    O     O_R   0.644600 0.486540 0.615950 -0.615191
O8    O     O_R   0.355400 0.513460 0.384050 -0.615216
Zn1   Zn    Zn3+2 0.306940 0.517990 0.509710 0.947746
Zn2   Zn    Zn3+2 0.693060 0.482010 0.490290 0.947729

loop_
_geom_bond_atom_site_label_1
_geom_bond_atom_site_label_2
_ccdc_geom_bond_type
O7    Zn2   S    
C16   C22   S    
O2    Zn2   S    
C5    I2    S    
C20   O7    A    
O8    Zn1   S    
C3    C9    T    
C1    O3    A    
C6    I1    S    
C13   H22   S    
C2    H12   S    
O5    Zn1   S    
C15   H4    S    
C7    C25   S    
C14   H5    S    
O6    Zn2   S    
C12   O4    A    
C5    C24   S    
C26   H1    S    
C19   H15   S    
C1    C22   S    
C11   H24   S    
C6    C26   S    
N1    N2    D    
C16   H10   S    
C20   O5    A    
C4    C21   S    
C11   C13   S    
C12   C23   S    
C15   H2    S    
C12   O2    A    
C7    C26   S    
C17   H7    S    
C21   O6    A    
C11   H23   S    
C19   H13   S    
C8    C24   S    
C24   C26   S    
H19   N2    S    
C15   H3    S    
C2    C25   S    
C18   H16   S    
C14   C25   S    
C1    O1    A    
C13   H20   S    
N1    Zn2   S    
C2    C5    S    
C19   H14   S    
C4    C10   T    
C18   C23   S    
C6    C25   S    
C7    C9    S    
C11   C24   S    
C3    C20   S    
O3    Zn2   S    
C8    C10   S    
C18   C19   S    
C17   H8    S    
O4    Zn1   S    
C5    C7    S    
N2    Zn1   S    
C6    C8    S    
C17   H9    S    
C21   O8    A    
C18   H17   S    
C13   H21   S    
H18   N1    S    
C22   C23   D    
C2    C8    S    
C14   C15   S    
C16   H11   S    
C14   H6    S    
C16   C17   S    
O1    Zn1   S    
