data_mof_unit_3221.cif
_audit_creation_date              2012-12-10T20:40:53-0500
_audit_creation_method            fapswitch 2.2
_symmetry_space_group_name_H-M    P1
_symmetry_Int_Tables_number       1
_space_group_crystal_system       triclinic
_cell_length_a                    27.745648
_cell_length_b                    10.732877
_cell_length_c                    9.841157
_cell_angle_alpha                 90.353175
_cell_angle_beta                  89.9635
_cell_angle_gamma                 90.193975
_cell_volume                      2930.53129029

loop_
_atom_site_label
_atom_site_type_symbol
_atom_type_description
_atom_site_fract_x
_atom_site_fract_y
_atom_site_fract_z
_atom_type_partial_charge
C1    C     C_R   0.499664 0.259701 0.499122 0.917358
C2    C     C_R   0.277894 0.510214 0.377041 -0.099404
C3    C     C_R   0.252907 0.508815 0.500335 0.319570
C4    C     C_R   0.101687 0.506688 0.500146 -0.051437
C5    C     C_R   0.127380 0.398357 0.534219 -0.021982
C6    C     C_R   0.102431 0.289990 0.568475 -0.135265
C7    C     C_R   0.127180 0.615874 0.466263 -0.022067
C8    C     C_R   0.353320 0.504365 0.500126 -0.036698
C9    C     C_R   0.646629 0.499789 0.499776 -0.036399
C10   C     C_R   0.974545 0.391292 0.522105 0.046570
C11   C     C_R   0.974282 0.617638 0.477055 0.046464
C12   C     C_R   0.405992 0.501026 0.500030 0.873780
C13   C     C_R   0.949196 0.504019 0.499498 0.070820
C14   C     C_R   0.947822 0.279500 0.535539 -0.215735
C15   C     C_R   0.897876 0.279497 0.533401 -0.136761
C16   C     C_R   0.872681 0.390581 0.516939 -0.021395
C17   C     C_R   0.898136 0.503112 0.499360 -0.051909
C18   C     C_R   0.872404 0.614735 0.481675 -0.021358
C19   C     C_R   0.822007 0.611731 0.482115 0.503627
C20   C     C_R   0.822281 0.391816 0.516455 0.503824
C21   C     C_R   0.722076 0.491597 0.622411 -0.103899
C22   C     C_R   0.672013 0.491428 0.622805 -0.221467
C23   C     C_R   0.498819 0.739777 0.500169 0.919917
C24   C     C_R   0.671974 0.508217 0.376554 -0.220318
C25   C     C_R   0.722034 0.508795 0.376613 -0.103145
C26   C     C_R   0.746990 0.500494 0.499437 0.325920
C27   C     C_R   0.025527 0.393620 0.529435 0.045762
C28   C     C_R   0.050625 0.505811 0.499930 0.071278
C29   C     C_R   0.025288 0.617121 0.470207 0.045769
C30   C     C_R   0.052494 0.287481 0.566560 -0.216453
C31   C     C_R   0.102009 0.723409 0.431894 -0.135472
C32   C     C_R   0.947274 0.728456 0.463306 -0.215701
C33   C     C_R   0.897324 0.726690 0.465205 -0.136593
C34   C     C_R   0.593986 0.499888 0.499956 0.865795
C35   C     C_R   0.052053 0.724215 0.433423 -0.216340
C36   C     C_R   0.489158 0.064297 0.618464 0.079769
C37   C     C_R   0.494651 0.127470 0.496002 -0.223376
C38   C     C_R   0.493249 0.061219 0.371225 0.477285
C39   C     C_R   0.490167 0.932393 0.374435 -0.337696
C40   C     C_R   0.492749 0.870753 0.498985 -0.173218
C41   C     C_R   0.488629 0.937062 0.619971 0.149686
C42   C     C_3   0.518207 0.930429 0.746434 -0.466375
C43   C     C_3   0.518792 0.071539 0.745349 -0.466408
C44   C     C_R   0.458246 0.479677 0.071214 0.214529
C45   C     C_R   0.177768 0.401257 0.533832 0.505210
C46   C     C_R   0.540160 0.532218 0.072142 -0.151845
C47   C     C_R   0.540173 0.532120 0.928119 -0.138581
C48   C     C_R   0.458282 0.479452 0.928540 0.215680
C49   C     C_3   0.427479 0.365569 0.922043 -0.509590
C50   C     C_3   0.427202 0.366163 0.076253 -0.489959
C51   C     C_R   0.177592 0.614588 0.466885 0.505217
C52   C     C_R   0.277872 0.506614 0.623538 -0.098323
C53   C     C_R   0.327918 0.504788 0.623584 -0.213549
C54   C     C_R   0.327949 0.508183 0.376791 -0.212333
H1    H     H_    0.346653 0.509821 0.280349 0.154259
H2    H     H_    0.258410 0.506259 0.718961 0.139559
H3    H     H_    0.120847 0.807902 0.403357 0.192274
H4    H     H_    0.963561 0.819166 0.453763 0.139528
H5    H     H_    0.653222 0.514760 0.280392 0.151320
H6    H     H_    0.878290 0.814003 0.453856 0.190876
H7    H     H_    0.741510 0.515525 0.281528 0.136067
H8    H     H_    0.035566 0.810041 0.402176 0.142262
H9    H     H_    0.489502 0.881487 0.279048 0.181881
H10   H     H_    0.497588 0.891015 0.833115 0.205676
H11   H     H_    0.258449 0.512186 0.281701 0.140069
H12   H     H_    0.554301 0.888453 0.728976 0.203246
H13   H     H_    0.498428 0.112821 0.831471 0.205657
H14   H     H_    0.555248 0.111926 0.728167 0.207704
H15   H     H_    0.572802 0.556166 0.126333 0.149124
H16   H     H_    0.572814 0.556147 0.874150 0.150458
H17   H     H_    0.391473 0.384369 0.877803 0.203969
H18   H     H_    0.446523 0.284429 0.877002 0.214591
H19   H     H_    0.391078 0.385861 0.119727 0.197877
H20   H     H_    0.445750 0.284948 0.121171 0.268600
H21   H     H_    0.121431 0.206148 0.597211 0.192459
H22   H     H_    0.653286 0.484598 0.719080 0.153945
H23   H     H_    0.741587 0.485243 0.717375 0.136319
H24   H     H_    0.879065 0.191507 0.544591 0.190671
H25   H     H_    0.964339 0.189355 0.545025 0.139500
H26   H     H_    0.036177 0.201129 0.597794 0.142362
H27   H     H_    0.346587 0.503921 0.719988 0.153490
N1    N     N_R   0.201583 0.508299 0.500423 -0.358278
N2    N     N_R   0.798274 0.501358 0.499307 -0.358738
N3    N     N_R   0.499670 0.499140 0.142800 -0.104249
N4    N     N_R   0.499670 0.499180 0.857150 -0.108512
O1    O     O_R   0.500010 0.316790 0.614690 -0.623402
O2    O     O_2   0.797353 0.284655 0.532457 -0.553259
O3    O     O_2   0.202532 0.718662 0.435198 -0.550698
O4    O     O_2   0.796812 0.718019 0.466080 -0.553554
O5    O     O_R   0.500000 0.316760 0.385350 -0.560045
O6    O     O_R   0.428760 0.500040 0.614660 -0.622872
O7    O     O_R   0.428750 0.500000 0.385310 -0.622769
O8    O     O_R   0.500000 0.683240 0.614650 -0.616810
O9    O     O_R   0.499990 0.683210 0.385310 -0.625681
O10   O     O_R   0.571250 0.500000 0.614690 -0.631661
O11   O     O_R   0.571240 0.499960 0.385340 -0.636454
O12   O     O_2   0.202879 0.297913 0.565551 -0.551083
Zn1   Zn    Zn3+2 0.500000 0.500020 0.653130 0.945666
Zn2   Zn    Zn3+2 0.500000 0.499980 0.346870 0.960109
O13   O     O_3   0.495541 0.122261 0.247499 -0.605507
C55   C     C_3   0.537390 0.086757 0.174589 0.087172
H28   H     H_    0.528215 0.009458 0.103378 0.148659
H29   H     H_    0.567592 0.056452 0.241630 0.134094
C56   C     C_3   0.555499 0.197156 0.092540 -0.797487
H30   H     H_    0.567122 0.273292 0.162192 0.265363
H31   H     H_    0.586671 0.168418 0.028999 0.205174
H32   H     H_    0.526602 0.232321 0.025233 0.248304

loop_
_geom_bond_atom_site_label_1
_geom_bond_atom_site_label_2
_ccdc_geom_bond_type
C10   C27   A    
C44   C48   A    
C21   C26   A    
O11   Zn2   S    
C40   C41   A    
C1    O5    A    
C41   C42   S    
C12   O6    A    
C45   N1    A    
C32   H4    S    
C2    H11   S    
C56   H31   S    
O10   Zn1   S    
C6    H21   S    
C55   H28   S    
C26   N2    S    
C47   N4    A    
C36   C37   A    
C34   O11   A    
C50   H20   S    
C5    C6    A    
C9    C22   A    
C15   H24   S    
C23   C40   S    
C20   O2    S    
C53   H27   S    
C18   C19   A    
C46   H15   S    
N4    Zn1   S    
C46   C47   A    
C43   H14   S    
C49   H18   S    
C22   H22   S    
C16   C20   A    
C30   H26   S    
C55   H29   S    
C21   C22   A    
C27   C30   A    
C36   C41   A    
C4    C7    A    
C19   N2    A    
C56   H30   S    
C4    C28   A    
C7    C31   A    
C24   C25   A    
C38   O13   S    
C2    C54   A    
C50   H19   S    
C8    C54   A    
C39   C40   A    
C16   C17   A    
C25   C26   A    
C5    C45   A    
C23   O8    A    
C8    C53   A    
C47   H16   S    
C37   C38   A    
C19   O4    S    
C8    C12   S    
C3    N1    S    
C17   C18   A    
C25   H7    S    
C14   H25   S    
C34   O10   A    
C51   N1    A    
C46   N3    A    
C48   C49   S    
C6    C30   A    
C11   C32   A    
C33   H6    S    
C10   C14   A    
C9    C34   S    
C31   C35   A    
C42   C43   S    
C42   H10   S    
O5    Zn2   S    
C52   C53   A    
C44   C50   S    
C1    O1    A    
C54   H1    S    
C28   C29   A    
C48   N4    A    
N3    Zn2   S    
C12   O7    A    
C4    C5    A    
C44   N3    A    
C10   C13   A    
C51   O3    S    
C3    C52   A    
C9    C24   A    
C1    C37   S    
C55   C56   S    
C39   H9    S    
C29   C35   A    
C23   O9    A    
C13   C17   A    
C32   C33   A    
C31   H3    S    
C2    C3    A    
C7    C51   A    
C45   O12   S    
C11   C13   A    
C38   C39   A    
O9    Zn2   S    
C24   H5    S    
O13   C55   S    
C35   H8    S    
O6    Zn1   S    
O1    Zn1   S    
C18   C33   A    
C52   H2    S    
C11   C29   A    
C43   H13   S    
C49   C50   S    
C49   H17   S    
C20   N2    A    
C21   H23   S    
C27   C28   A    
C42   H12   S    
C14   C15   A    
C36   C43   S    
O8    Zn1   S    
C56   H32   S    
C15   C16   A    
O7    Zn2   S    
