data_mof_unit_3003.cif
_audit_creation_date              2012-12-10T18:04:03-0500
_audit_creation_method            fapswitch 2.2
_symmetry_space_group_name_H-M    P1
_symmetry_Int_Tables_number       1
_space_group_crystal_system       triclinic
_cell_length_a                    10.787963
_cell_length_b                    9.563943
_cell_length_c                    10.88032
_cell_angle_alpha                 89.840956
_cell_angle_beta                  91.348674
_cell_angle_gamma                 90.096367
_cell_volume                      1122.26528191

loop_
_atom_site_label
_atom_site_type_symbol
_atom_type_description
_atom_site_fract_x
_atom_site_fract_y
_atom_site_fract_z
_atom_type_partial_charge
C1    C     C_R   0.262452 0.499857 0.495989 0.810136
C2    C     C_R   0.737493 0.500023 0.496574 0.807006
C3    C     C_R   0.417681 0.075351 0.428088 -0.040099
C4    C     C_R   0.581772 0.075157 0.572541 -0.045693
C5    C     C_R   0.416678 0.927402 0.428302 0.458539
C6    C     C_R   0.582219 0.927176 0.572926 0.439311
C7    C     C_R   0.500208 0.500031 0.262689 0.785645
C8    C     C_R   0.501536 0.499718 0.737228 0.826278
C9    C     C_R   0.495538 0.620723 0.061211 -0.037753
C10   C     C_R   0.497458 0.620455 0.937051 -0.036216
C11   C     C_R   0.503792 0.498632 0.130076 -0.075165
C12   C     C_R   0.505752 0.498112 0.869824 -0.072312
C13   C     C_R   0.516606 0.371799 0.065278 -0.167955
C14   C     C_R   0.517323 0.371504 0.936176 -0.171894
C15   C     C_3   0.475742 0.774505 0.926018 0.176942
C16   C     C_3   0.472138 0.774770 0.067886 0.190553
C17   C     C_R   0.062278 0.409128 0.407604 0.423357
C18   C     C_R   0.933022 0.409438 0.407629 0.418897
C19   C     C_R   0.871136 0.500451 0.488241 -0.223220
C20   C     C_R   0.128568 0.500184 0.487919 -0.201176
C21   C     C_R   0.938122 0.592908 0.563545 -0.176145
C22   C     C_R   0.065977 0.593120 0.563135 -0.178944
Cu1   Cu    Cu3+1 0.500000 0.640660 0.500000 1.079547
Cu2   Cu    Cu3+1 0.500000 0.359340 0.500000 0.981158
H1    H     H_    0.524834 0.272934 0.113551 0.190913
H2    H     H_    0.525719 0.272477 0.889057 0.180362
H3    H     H_    0.554618 0.832695 0.886906 0.201845
H4    H     H_    0.380305 0.801290 0.104676 0.206577
H5    H     H_    0.891556 0.662494 0.625523 0.226153
H6    H     H_    0.116367 0.663456 0.624322 0.192958
H7    H     H_    0.351654 0.132179 0.370708 0.185471
H8    H     H_    0.646998 0.131846 0.630850 0.172760
N1    N     N_R   0.500000 0.852070 0.500000 -0.218773
N2    N     N_R   0.500000 0.147940 0.500000 -0.220214
O1    O     O_R   0.319640 0.618740 0.499990 -0.524066
O2    O     O_R   0.680360 0.618740 0.500010 -0.525150
O3    O     O_R   0.319620 0.381170 0.499990 -0.582636
O4    O     O_R   0.680380 0.381170 0.500010 -0.579383
O5    O     O_R   0.499990 0.618810 0.319660 -0.522028
O6    O     O_R   0.500010 0.618810 0.680340 -0.522495
O7    O     O_R   0.499960 0.381240 0.319650 -0.606079
O8    O     O_R   0.500040 0.381240 0.680350 -0.596552
O9    O     O_3   0.361215 0.807914 0.868540 -0.692007
H9    H     H_    0.295966 0.746823 0.903012 0.329546
O10   O     O_3   0.570352 0.849462 0.124557 -0.684599
H10   H     H_    0.649681 0.816249 0.090498 0.338369
O11   O     O_3   0.119348 0.322856 0.324387 -0.658902
H11   H     H_    0.202422 0.360519 0.306238 0.312936
O12   O     O_3   0.871397 0.323626 0.324292 -0.651378
H12   H     H_    0.787957 0.362164 0.305797 0.317884
Cl1   Cl    Cl    0.302689 0.845857 0.336118 -0.592088
Cl2   Cl    Cl    0.690442 0.845020 0.671428 -0.650218

loop_
_geom_bond_atom_site_label_1
_geom_bond_atom_site_label_2
_ccdc_geom_bond_type
C16   O10   S    
C16   H4    S    
Cu1   N1    S    
Cu2   O4    S    
O9    H9    S    
C7    C11   S    
Cu2   O8    S    
C9    C10   A    
C2    O4    A    
C15   H3    S    
O11   H11   S    
C6    N1    A    
C1    O3    A    
C8    C12   S    
C17   C18   A    
C15   O9    S    
C22   H6    S    
C21   C22   A    
C14   H2    S    
C3    H7    S    
Cu2   O7    S    
C11   C13   A    
C13   H1    S    
C4    H8    S    
C10   C12   A    
Cu1   O5    S    
C9    C11   A    
C19   C21   A    
C9    C16   S    
C12   C14   A    
Cu2   O3    S    
Cu1   O1    S    
C10   C15   S    
C7    O7    A    
C13   C14   A    
C4    N2    A    
Cu1   Cu2   S    
C8    O8    A    
C15   C16   S    
Cu1   O2    S    
C17   O11   S    
C17   C20   A    
C1    O1    A    
C4    C6    A    
C18   C19   A    
C2    O2    A    
O12   H12   S    
C7    O5    A    
C5    Cl1   S    
C1    C20   S    
C8    O6    A    
C3    N2    A    
C6    Cl2   S    
C2    C19   S    
O10   H10   S    
C21   H5    S    
Cu2   N2    S    
Cu1   O6    S    
C18   O12   S    
C20   C22   A    
C3    C5    A    
C5    N1    A    
