data_mof_unit_1312.cif
_audit_creation_date              2012-10-26T18:25:39-0400
_audit_creation_method            fapswitch 2.2
_symmetry_space_group_name_H-M    P1
_symmetry_Int_Tables_number       1
_space_group_crystal_system       triclinic
_cell_length_a                    7.419783
_cell_length_b                    8.684919
_cell_length_c                    10.952133
_cell_angle_alpha                 90.391718
_cell_angle_beta                  75.12449
_cell_angle_gamma                 102.89679
_cell_volume                      663.943495397

loop_
_atom_site_label
_atom_site_type_symbol
_atom_type_description
_atom_site_fract_x
_atom_site_fract_y
_atom_site_fract_z
_atom_type_partial_charge
C1    C     C_R   0.449448 0.199885 0.517199 0.569468
C2    C     C_2   0.557963 0.962112 0.550128 -0.021151
C3    C     C_3   0.406524 0.710904 0.127994 -0.249114
C4    C     C_3   0.421673 0.854810 0.043361 -0.454669
C5    C     C_3   0.775912 0.623280 0.847011 -0.235182
C6    C     C_3   0.925722 0.691435 0.919447 -0.453612
C7    C     C_3   0.204350 0.953114 0.621029 -0.272985
C8    C     C_3   0.131494 0.033225 0.743411 -0.464226
C9    C     C_3   0.730364 0.041133 0.597558 -0.269964
C10   C     C_3   0.670005 0.107416 0.728068 -0.454934
C11   C     C_R   0.542241 0.797915 0.514874 0.549232
C12   C     C_R   0.430965 0.502100 0.742074 0.524873
C13   C     C_R   0.570806 0.503941 0.258872 0.553517
C14   C     C_2   0.413003 0.526101 0.876841 -0.135782
C15   C     C_2   0.595961 0.501782 0.124616 -0.107329
C16   C     C_2   0.565431 0.582594 0.925274 0.003496
C17   C     C_2   0.524439 0.596086 0.062416 0.008966
C18   C     C_2   0.411593 0.032797 0.555310 -0.006360
Cu1   Cu    Cu3+1 0.688910 0.517800 0.485820 0.913445
Cu2   Cu    Cu3+1 0.311090 0.482200 0.514180 0.904232
H1    H     H_    0.677719 0.420572 0.074384 0.079962
H2    H     H_    0.888919 0.793790 0.973466 0.156222
H3    H     H_    0.942887 0.601122 0.983632 0.146632
H4    H     H_    0.068468 0.730068 0.852210 0.137677
H5    H     H_    0.813879 0.514471 0.804730 0.162401
H6    H     H_    0.792088 0.712578 0.770496 0.166268
H7    H     H_    0.217404 0.022385 0.811007 0.136067
H8    H     H_    0.137409 0.159917 0.727216 0.192511
H9    H     H_    0.979992 0.975279 0.787735 0.129572
H10   H     H_    0.116056 0.957543 0.554217 0.150502
H11   H     H_    0.182655 0.828235 0.651068 0.181702
H12   H     H_    0.268814 0.500370 0.939364 0.089838
H13   H     H_    0.590003 0.200378 0.726029 0.174015
H14   H     H_    0.577826 0.010696 0.796659 0.140080
H15   H     H_    0.797688 0.160730 0.761508 0.119993
H16   H     H_    0.810372 0.952202 0.610475 0.149986
H17   H     H_    0.832015 0.132266 0.527768 0.179481
H18   H     H_    0.918264 0.386416 0.603996 0.233154
H19   H     H_    0.082083 0.617501 0.398292 0.238495
H20   H     H_    0.574316 0.916696 0.005361 0.150343
H21   H     H_    0.355787 0.819110 0.964253 0.146377
H22   H     H_    0.344072 0.938254 0.099551 0.137717
H23   H     H_    0.253894 0.646991 0.161422 0.147275
H24   H     H_    0.456295 0.757601 0.211319 0.159946
N1    N     N_2   0.027170 0.455360 0.535550 -0.272110
N2    N     N_2   0.972830 0.544640 0.464450 -0.264408
O1    O     O_R   0.622710 0.286400 0.490790 -0.505109
O2    O     O_R   0.377290 0.713600 0.509210 -0.523617
O3    O     O_R   0.303660 0.256330 0.514730 -0.501121
O4    O     O_R   0.696340 0.743670 0.485270 -0.506735
O5    O     O_R   0.600900 0.509520 0.671740 -0.525615
O6    O     O_R   0.399100 0.490480 0.328260 -0.498386
O7    O     O_R   0.281840 0.479450 0.695690 -0.517462
O8    O     O_R   0.718160 0.520550 0.304310 -0.493576

loop_
_geom_bond_atom_site_label_1
_geom_bond_atom_site_label_2
_ccdc_geom_bond_type
C9    H16   S    
C15   C17   D    
Cu2   O3    S    
C2    C18   D    
C13   O6    A    
C9    C10   S    
Cu2   N1    S    
C4    H20   S    
C7    C18   S    
C6    H4    S    
C9    H17   S    
C1    C18   S    
Cu1   N2    S    
C7    C8    S    
Cu2   O6    S    
C11   O4    A    
N1    N2    D    
Cu1   O4    S    
C3    H23   S    
C11   O2    A    
Cu2   O2    S    
C12   O7    A    
C4    H22   S    
H19   N2    S    
C5    H5    S    
C6    H3    S    
Cu2   O7    S    
Cu1   O8    S    
C12   C14   S    
C3    C17   S    
C10   H13   S    
Cu1   O1    S    
C13   C15   S    
C5    C6    S    
C8    H8    S    
C10   H15   S    
C14   C16   D    
C3    H24   S    
C7    H11   S    
C4    H21   S    
C8    H9    S    
C5    H6    S    
C6    H2    S    
Cu1   O5    S    
C15   H1    S    
C12   O5    A    
C10   H14   S    
C13   O8    A    
C7    H10   S    
C8    H7    S    
C1    O1    A    
C5    C16   S    
C2    C11   S    
C2    C9    S    
C1    O3    A    
C3    C4    S    
Cu1   Cu2   S    
C14   H12   S    
C16   C17   S    
H18   N1    S    
