data_mof_unit_1656.cif
_audit_creation_date              2013-03-05T16:12:28-0500
_audit_creation_method            fapswitch 2.2
_symmetry_space_group_name_H-M    P1
_symmetry_Int_Tables_number       1
_space_group_crystal_system       triclinic
_cell_length_a                    10.578351
_cell_length_b                    9.802765
_cell_length_c                    23.496534
_cell_angle_alpha                 90.21963
_cell_angle_beta                  90.08663
_cell_angle_gamma                 90.112915
_cell_volume                      2436.49673054

loop_
_atom_site_label
_atom_site_type_symbol
_atom_site_description
_atom_site_fract_x
_atom_site_fract_y
_atom_site_fract_z
_atom_type_partial_charge
O1    O     O_R   0.316770 0.614620 0.500000 -0.629603
O2    O     O_R   0.683230 0.385380 0.500000 -0.598896
O3    O     O_R   0.683230 0.614620 0.500000 -0.646532
O4    O     O_R   0.316770 0.385380 0.500000 -0.613701
C1    C     C_R   0.262028 0.500497 0.510303 0.865244
C2    C     C_R   0.740216 0.500990 0.507412 0.900234
O5    O     O_R   0.499970 0.614690 0.416160 -0.623816
O6    O     O_R   0.500030 0.385310 0.583840 -0.609778
O7    O     O_R   0.500030 0.614690 0.583840 -0.655659
O8    O     O_R   0.499970 0.385310 0.416160 -0.610600
C3    C     C_R   0.496816 0.499610 0.389331 0.890679
C4    C     C_R   0.502879 0.500002 0.610824 0.853544
Zn1   Zn    Zn3+2 0.500000 0.653120 0.500000 0.954929
Zn2   Zn    Zn3+2 0.500000 0.346880 0.500000 0.985929
C5    C     C_R   0.611299 0.484004 0.880445 0.511888
C6    C     C_R   0.387943 0.451866 0.120322 0.510062
N1    N     N_R   0.497916 0.475424 0.852692 -0.362512
N2    N     N_R   0.499555 0.475903 0.147922 -0.364091
C7    C     C_R   0.386044 0.466514 0.881105 0.499899
C8    C     C_R   0.609634 0.499039 0.119572 0.503457
C9    C     C_R   0.385114 0.460286 0.940350 -0.046030
C10   C     C_R   0.611650 0.495505 0.060309 -0.047374
C11   C     C_R   0.499724 0.474351 0.970361 -0.055087
C12   C     C_R   0.497930 0.473914 0.030330 -0.056391
C13   C     C_R   0.615550 0.490014 0.940440 -0.020220
C14   C     C_R   0.382795 0.452649 0.060255 -0.020478
C15   C     C_R   0.271592 0.440574 0.969619 -0.144551
C16   C     C_R   0.725202 0.514612 0.030984 -0.143645
C17   C     C_R   0.268460 0.433933 0.028959 0.159999
C18   C     C_R   0.729513 0.511840 0.971616 0.157509
O9    O     O_2   0.718443 0.485525 0.849468 -0.542693
O10   O     O_2   0.283557 0.427731 0.151554 -0.548040
O11   O     O_2   0.276141 0.463173 0.851800 -0.543718
O12   O     O_2   0.716773 0.525382 0.148998 -0.540818
H1    H     H_    0.184200 0.428528 0.945953 0.193690
H2    H     H_    0.811991 0.531564 0.054588 0.193965
C19   C     C_R   0.554609 0.375511 0.240658 0.019045
C20   C     C_R   0.461531 0.366278 0.759192 0.014585
C21   C     C_R   0.553185 0.385998 0.299857 -0.163451
C22   C     C_R   0.462117 0.377500 0.700032 -0.150220
H3    H     H_    0.597545 0.306882 0.325016 0.202681
H4    H     H_    0.431282 0.291145 0.674595 0.199804
C23   C     C_R   0.494355 0.496595 0.327144 -0.183596
C24   C     C_R   0.504451 0.497194 0.673246 -0.157189
C25   C     C_R   0.434410 0.599062 0.294652 -0.046287
C26   C     C_R   0.547240 0.608573 0.706579 -0.060752
C27   C     C_R   0.441808 0.591723 0.235448 -0.036286
C28   C     C_R   0.537263 0.600736 0.765623 -0.039628
H5    H     H_    0.397606 0.669317 0.209428 0.184985
H6    H     H_    0.567886 0.685584 0.792008 0.185949
C29   C     C_R   0.500104 0.481091 0.208611 0.173029
C30   C     C_R   0.496742 0.480735 0.791933 0.171163
C31   C     C_R   0.066731 0.381380 0.542276 -0.079583
C32   C     C_R   0.937177 0.631324 0.531084 -0.039736
C33   C     C_R   0.934424 0.383081 0.541248 -0.021336
C34   C     C_R   0.068456 0.630054 0.535249 -0.067993
C35   C     C_R   0.872376 0.505009 0.525393 -0.182105
C36   C     C_R   0.131407 0.503620 0.529891 -0.246565
C37   C     C_R   0.558607 0.072476 0.542469 -0.051014
C38   C     C_R   0.439457 0.927541 0.458010 -0.005405
C39   C     C_R   0.439785 0.071636 0.457887 -0.012622
C40   C     C_R   0.559311 0.928611 0.542238 -0.058450
H7    H     H_    0.604215 0.127169 0.576744 0.195869
H8    H     H_    0.390662 0.872665 0.424663 0.143586
H9    H     H_    0.391573 0.126036 0.424312 0.151954
H10   H     H_    0.607020 0.874798 0.575821 0.164420
N3    N     N_R   0.500000 0.857200 0.500000 -0.110670
N4    N     N_R   0.500000 0.142800 0.500000 -0.108121
C41   C     C_3   0.141491 0.407650 0.056349 -0.749789
H11   H     H_    0.065118 0.393400 0.024401 0.199171
H12   H     H_    0.145026 0.312419 0.081702 0.276485
H13   H     H_    0.114270 0.495674 0.083524 0.271464
C42   C     C_3   0.856439 0.537061 0.944005 -0.746606
H14   H     H_    0.931229 0.561146 0.975714 0.200503
H15   H     H_    0.887426 0.444686 0.920429 0.273112
H16   H     H_    0.850610 0.626126 0.915083 0.274287
C43   C     C_2   0.610276 0.253529 0.212690 0.492685
H17   H     H_    0.604829 0.240665 0.166894 0.062314
O13   O     O_2   0.662449 0.164961 0.240537 -0.543747
C44   C     C_2   0.428186 0.234282 0.786243 0.513179
H18   H     H_    0.437982 0.220870 0.831816 0.059700
O14   O     O_2   0.390266 0.137906 0.757834 -0.533305
C45   C     C_2   0.355717 0.707534 0.320872 0.434262
H19   H     H_    0.315839 0.693996 0.362923 0.076232
O15   O     O_2   0.331802 0.812383 0.295123 -0.546873
C46   C     C_2   0.613482 0.727478 0.681762 0.472172
H20   H     H_    0.666048 0.716209 0.642542 0.098874
O16   O     O_2   0.613469 0.838140 0.705825 -0.524163
C47   C     C_2   0.138010 0.259026 0.561702 0.469058
H21   H     H_    0.223616 0.272028 0.586717 0.077996
O17   O     O_2   0.104768 0.143841 0.548766 -0.526354
C48   C     C_2   0.870490 0.764180 0.535705 0.497420
H22   H     H_    0.826948 0.809671 0.498504 0.087911
O18   O     O_2   0.867091 0.824829 0.581149 -0.564089
C49   C     C_2   0.862076 0.265273 0.563705 0.487034
H23   H     H_    0.874124 0.163908 0.545903 0.129173
O19   O     O_2   0.789046 0.281740 0.603329 -0.567378
C50   C     C_2   0.139343 0.759366 0.545968 0.554636
H24   H     H_    0.216188 0.760834 0.576657 0.073596
O20   O     O_2   0.116396 0.862493 0.518938 -0.521814

loop_
_geom_bond_atom_site_label_1
_geom_bond_atom_site_label_2
_geom_bond_distance
_ccdc_geom_bond_type
C15   C17   1.396474 A    
C42   H14   1.110365 S    
C49   H23   1.084463 S    
C34   C50   1.491915 S    
O3    C2    1.279956 A    
C27   H5    1.084008 S    
O2    C2    1.293662 A    
C43   H17   1.084375 S    
O5    C3    1.290525 A    
C1    C36   1.457391 S    
O1    C1    1.282739 A    
C7    C9    1.393689 A    
C12   C14   1.422658 A    
C19   C29   1.406281 A    
C46   O16   1.221373 D    
C5    C13   1.411313 A    
C20   C30   1.407238 A    
C25   C27   1.395007 A    
C41   H12   1.109998 S    
O7    Zn1   2.007064 S    
C38   N3    1.365306 A    
C11   C12   1.409236 A    
C3    C23   1.461537 S    
C47   O17   1.219207 D    
C22   C24   1.406346 A    
O3    Zn1   1.975401 S    
C8    O12   1.350678 S    
C43   O13   1.221335 D    
C9    C15   1.398214 A    
C10   C16   1.398338 A    
C42   H15   1.110038 S    
C2    C35   1.460281 S    
C25   C45   1.484308 S    
N1    C30   1.428806 S    
C24   C26   1.414500 A    
N2    C29   1.426705 S    
C17   C41   1.512300 S    
C31   C33   1.399893 A    
C9    C11   1.407876 A    
C6    C14   1.412373 A    
C32   C34   1.392095 A    
C40   H10   1.076408 S    
C21   H3    1.084095 S    
C7    O11   1.350581 S    
C18   C42   1.512394 S    
C46   H20   1.082438 S    
O4    C1    1.291618 A    
C27   C29   1.397359 A    
C15   H1    1.084117 S    
C19   C43   1.485391 S    
C38   C39   1.412546 A    
C41   H13   1.110177 S    
C32   C48   1.486050 S    
C37   N4    1.363967 A    
C22   H4    1.083814 S    
C45   H19   1.083448 S    
O5    Zn1   2.004230 S    
O6    C4    1.288909 A    
C48   O18   1.220745 D    
C6    N2    1.365822 A    
C23   C25   1.414508 A    
C40   N3    1.363701 A    
C33   C49   1.483321 S    
C45   O15   1.221378 D    
C8    C10   1.392951 A    
C50   O20   1.220531 D    
C33   C35   1.415606 A    
C31   C47   1.490696 S    
C42   H16   1.110183 S    
C10   C12   1.408346 A    
O1    Zn1   1.973942 S    
Zn1   N3    2.000548 S    
C13   C18   1.425076 A    
C5    N1    1.366637 A    
C37   C40   1.410301 A    
O6    Zn2   2.004227 S    
C44   H18   1.084175 S    
C21   C23   1.404383 A    
C31   C36   1.410213 A    
C49   O19   1.221144 D    
C5    O9    1.347999 S    
C6    O10   1.347805 S    
C37   H7    1.078556 S    
C38   H8    1.078982 S    
C16   C18   1.395900 A    
C19   C21   1.394483 A    
C20   C22   1.394837 A    
C39   N4    1.364756 A    
C20   C44   1.485889 S    
C28   H6    1.084193 S    
C48   H22   1.085194 S    
N1    C7    1.362440 A    
C44   O14   1.221437 D    
C34   C36   1.413416 A    
N2    C8    1.361462 A    
C11   C13   1.421888 A    
O4    Zn2   1.975402 S    
C41   H11   1.110237 S    
O2    Zn2   1.973941 S    
O7    C4    1.293214 A    
O8    C3    1.288191 A    
C26   C28   1.393896 A    
C39   H9    1.081621 S    
C28   C30   1.397886 A    
C16   H2    1.084095 S    
C14   C17   1.425716 A    
C4    C24   1.467134 S    
C50   H24   1.085838 S    
Zn2   N4    2.000548 S    
C47   H21   1.085881 S    
O8    Zn2   2.007067 S    
C26   C46   1.480830 S    
C32   C35   1.419902 A    
