data_mof_unit_611.cif
_audit_creation_date              2012-12-10T17:15:47-0500
_audit_creation_method            fapswitch 2.2
_symmetry_space_group_name_H-M    P1
_symmetry_Int_Tables_number       1
_space_group_crystal_system       triclinic
_cell_length_a                    10.165139
_cell_length_b                    10.63169
_cell_length_c                    10.824719
_cell_angle_alpha                 89.953832
_cell_angle_beta                  95.161878
_cell_angle_gamma                 81.333683
_cell_volume                      1151.68617609

loop_
_atom_site_label
_atom_site_type_symbol
_atom_type_description
_atom_site_fract_x
_atom_site_fract_y
_atom_site_fract_z
_atom_type_partial_charge
C1    C     C_R   0.444120 0.511618 0.267531 0.945635
C2    C     C_2   0.488077 0.540196 0.934002 -0.157851
C3    C     C_2   0.072621 0.499977 0.479949 -0.052510
C4    C     C_R   0.500520 0.260519 0.503269 0.867297
C5    C     C_2   0.928119 0.514507 0.503402 -0.159312
C6    C     C_R   0.555970 0.494926 0.732459 0.915380
C7    C     C_R   0.501163 0.739267 0.503139 0.853974
C8    C     C_R   0.671128 0.106604 0.693654 -0.220472
C9    C     C_R   0.755047 0.029528 0.782696 0.023720
C10   C     C_R   0.755829 0.897668 0.780445 -0.191951
C11   C     C_R   0.673995 0.844080 0.691491 -0.212779
C12   C     C_R   0.588968 0.053097 0.601865 0.071343
C13   C     C_R   0.590114 0.921228 0.601009 0.108895
C14   C     C_2   0.886048 0.339007 0.378763 1.020871
C15   C     C_2   0.840186 0.087345 0.878600 0.928994
C16   C     C_R   0.501857 0.128051 0.512234 -0.078832
C17   C     C_R   0.413659 0.076740 0.428107 -0.171405
C18   C     C_R   0.414506 0.948120 0.427560 -0.193037
C19   C     C_R   0.503570 0.871266 0.511100 -0.086546
C20   C     C_2   0.412678 0.529026 0.135690 -0.364682
C21   C     C_2   0.512846 0.536224 0.065994 -0.117356
C22   C     C_2   0.587804 0.502929 0.864233 -0.335290
H1    H     H_    0.346257 0.136319 0.361015 0.159379
H2    H     H_    0.385200 0.565811 0.894440 0.193429
H3    H     H_    0.615885 0.530643 0.105592 0.203694
H4    H     H_    0.690406 0.477342 0.904259 0.183075
H5    H     H_    0.019420 0.180084 0.361992 0.340831
H6    H     H_    0.899375 0.247157 0.950334 0.352580
H7    H     H_    0.309961 0.534310 0.095563 0.155479
H8    H     H_    0.891287 0.588340 0.566322 0.157788
H9    H     H_    0.108596 0.446184 0.401567 0.184265
H10   H     H_    0.121634 0.601759 0.625595 0.167966
H11   H     H_    0.668709 0.208472 0.698003 0.185184
H12   H     H_    0.818720 0.835670 0.848480 0.176295
H13   H     H_    0.675885 0.742240 0.695854 0.151513
H14   H     H_    0.347475 0.907912 0.360249 0.159683
N1    N     N_2   0.157290 0.551390 0.551110 -0.200217
N2    N     N_2   0.842740 0.448550 0.448960 -0.161219
O1    O     O_R   0.568950 0.489660 0.307530 -0.583433
O2    O     O_R   0.001904 0.255226 0.418969 -0.826971
O3    O     O_2   0.912868 0.020045 0.956510 -0.627337
O4    O     O_R   0.837535 0.219276 0.880331 -0.816118
O5    O     O_R   0.348880 0.522640 0.340350 -0.623564
O6    O     O_R   0.610060 0.300270 0.483590 -0.600389
O7    O     O_R   0.389990 0.333260 0.516410 -0.596672
O8    O     O_R   0.651120 0.477360 0.659650 -0.620867
O9    O     O_R   0.431050 0.510340 0.692470 -0.611318
O10   O     O_R   0.610010 0.666740 0.483590 -0.629787
O11   O     O_R   0.389940 0.699730 0.516410 -0.605844
O12   O     O_2   0.816006 0.313833 0.287185 -0.613816
Zn1   Zn    Zn3+2 0.646940 0.477980 0.478090 0.989915
Zn2   Zn    Zn3+2 0.353060 0.522020 0.521910 0.962390

loop_
_geom_bond_atom_site_label_1
_geom_bond_atom_site_label_2
_ccdc_geom_bond_type
C2    C22   D    
O1    Zn1   S    
C4    C16   S    
O9    Zn2   S    
C14   N2    S    
C6    O8    A    
C9    C10   A    
H5    O2    S    
C8    C12   A    
O11   Zn2   S    
C7    O10   A    
C2    C21   S    
C11   H13   S    
C17   C18   A    
C9    C15   S    
C7    O11   A    
C10   H12   S    
C14   O12   D    
C5    N2    D    
C20   C21   D    
C3    H9    S    
C11   C13   A    
C15   O3    D    
C17   H1    S    
C21   H3    S    
C20   H7    S    
O6    Zn1   S    
H6    O4    S    
C5    H8    S    
C7    C19   S    
C4    O7    A    
C2    H2    S    
O5    Zn2   S    
C16   C17   A    
C10   C11   A    
C1    O1    A    
C14   O2    S    
C6    C22   S    
C12   C13   A    
C3    N1    D    
C18   C19   A    
C6    O9    A    
N1    Zn2   S    
C13   C19   A    
C8    C9    A    
C1    C20   S    
C22   H4    S    
N2    Zn1   S    
C4    O6    A    
O7    Zn2   S    
H10   N1    S    
C18   H14   S    
O8    Zn1   S    
C1    O5    A    
O10   Zn1   S    
C12   C16   A    
C15   O4    S    
C8    H11   S    
C3    C5    S    
