data_mof_unit_3239.cif
_audit_creation_date              2012-12-11T16:44:11-0500
_audit_creation_method            fapswitch 2.2
_symmetry_space_group_name_H-M    P1
_symmetry_Int_Tables_number       1
_space_group_crystal_system       triclinic
_cell_length_a                    27.25164
_cell_length_b                    7.201741
_cell_length_c                    22.75758
_cell_angle_alpha                 89.998553
_cell_angle_beta                  101.231117
_cell_angle_gamma                 90.002272
_cell_volume                      4380.85223411

loop_
_atom_site_label
_atom_site_type_symbol
_atom_type_description
_atom_site_fract_x
_atom_site_fract_y
_atom_site_fract_z
_atom_type_partial_charge
O1    O     O_R   0.707300 0.594030 0.176840 -0.531871
O2    O     O_R   0.292700 0.405970 0.823160 -0.531871
O3    O     O_R   0.792700 0.094030 0.323160 -0.531916
O4    O     O_R   0.207300 0.905970 0.676840 -0.531916
O5    O     O_R   0.697330 0.262360 0.295660 -0.546377
O6    O     O_R   0.302670 0.737640 0.704340 -0.546377
O7    O     O_R   0.802670 0.762360 0.204340 -0.546375
O8    O     O_R   0.197330 0.237640 0.795660 -0.546375
C1    C     C_R   0.685138 0.432445 0.312299 0.803151
C2    C     C_R   0.314862 0.567556 0.687701 0.803152
C3    C     C_R   0.814864 0.932451 0.187701 0.803199
C4    C     C_R   0.185136 0.067549 0.812299 0.803198
O9    O     O_R   0.701410 0.264250 0.175600 -0.539974
O10   O     O_R   0.298590 0.735750 0.824400 -0.539974
O11   O     O_R   0.798590 0.764250 0.324400 -0.539992
O12   O     O_R   0.201410 0.235750 0.675600 -0.539993
O13   O     O_R   0.796800 0.094950 0.202240 -0.501202
O14   O     O_R   0.203200 0.905050 0.797760 -0.501202
O15   O     O_R   0.703200 0.594950 0.297760 -0.501181
O16   O     O_R   0.296800 0.405050 0.702240 -0.501181
C5    C     C_R   0.689800 0.432572 0.153496 0.884540
C6    C     C_R   0.310200 0.567428 0.846504 0.884540
C7    C     C_R   0.810200 0.932574 0.346503 0.884592
C8    C     C_R   0.189800 0.067426 0.653497 0.884592
O17   O     O_3   0.781290 0.427390 0.258880 -0.384265
O18   O     O_3   0.218710 0.572610 0.741120 -0.384265
O19   O     O_3   0.718710 0.927390 0.241120 -0.384213
O20   O     O_3   0.281290 0.072610 0.758880 -0.384213
V1    V     V_3+5 0.744190 0.152150 0.248350 1.646827
V2    V     V_3+5 0.255810 0.847850 0.751650 1.646827
V3    V     V_3+5 0.755810 0.652150 0.251650 1.646800
V4    V     V_3+5 0.244190 0.347850 0.748350 1.646800
C9    C     C_R   0.154800 0.061840 0.595140 -0.335481
C10   C     C_R   0.845200 0.938159 0.404860 -0.335481
C11   C     C_R   0.345199 0.561867 0.904863 -0.335459
C12   C     C_R   0.654800 0.438132 0.095137 -0.335459
C13   C     C_R   0.140439 0.103425 0.487600 0.213454
C14   C     C_R   0.859560 0.896575 0.512400 0.213453
C15   C     C_R   0.359581 0.603869 0.012387 0.213450
C16   C     C_R   0.640419 0.396130 0.987613 0.213450
C17   C     C_R   0.172316 0.108886 0.543491 0.542408
C18   C     C_R   0.827684 0.891114 0.456509 0.542409
C19   C     C_R   0.327698 0.609184 0.956498 0.542467
C20   C     C_R   0.672302 0.390816 0.043501 0.542467
C21   C     C_R   0.104051 0.017036 0.591449 0.471637
C22   C     C_R   0.895949 0.982964 0.408551 0.471637
C23   C     C_R   0.395941 0.516923 0.908561 0.471660
C24   C     C_R   0.604059 0.483077 0.091439 0.471660
C25   C     C_R   0.069212 0.027767 0.535558 -0.058761
C26   C     C_R   0.930788 0.972232 0.464442 -0.058761
C27   C     C_R   0.430788 0.527793 0.964442 -0.058763
C28   C     C_R   0.569212 0.472207 0.035557 -0.058763
C29   C     C_R   0.089190 0.059895 0.483078 -0.119185
C30   C     C_R   0.910810 0.940105 0.516922 -0.119185
C31   C     C_R   0.410823 0.560215 0.016915 -0.119157
C32   C     C_R   0.589177 0.439785 0.983085 -0.119157
C33   C     C_R   0.015755 0.004716 0.529228 0.102074
C34   C     C_R   0.984245 0.995284 0.470772 0.102074
C35   C     C_R   0.484241 0.504621 0.970772 0.102085
C36   C     C_R   0.515759 0.495379 0.029228 0.102085
C37   C     C_R   0.007578 0.003044 0.420818 -0.109968
C38   C     C_R   0.992422 0.996956 0.579182 -0.109968
C39   C     C_R   0.492434 0.503442 0.079186 -0.109987
C40   C     C_R   0.507566 0.496558 0.920814 -0.109987
C41   C     C_R   0.058075 0.042253 0.426755 -0.086610
C42   C     C_R   0.941925 0.957747 0.573245 -0.086610
C43   C     C_R   0.441943 0.542755 0.073242 -0.086615
C44   C     C_R   0.558057 0.457245 0.926758 -0.086615
H1    H     H_    0.072718 0.052849 0.386012 0.188588
H2    H     H_    0.927282 0.947151 0.613988 0.188588
H3    H     H_    0.427308 0.553588 0.113986 0.188577
H4    H     H_    0.572692 0.446412 0.886014 0.188577
H5    H     H_    0.988225 0.975012 0.375929 0.214974
H6    H     H_    0.011774 0.024988 0.624071 0.214974
H7    H     H_    0.511787 0.475579 0.124087 0.214977
H8    H     H_    0.488213 0.524421 0.875913 0.214977
C45   C     C_R   0.855900 0.099948 0.112282 0.573025
C46   C     C_R   0.144100 0.900052 0.887718 0.573025
C47   C     C_R   0.644092 0.599970 0.387693 0.572918
C48   C     C_R   0.355908 0.400030 0.612307 0.572919
C49   C     C_R   0.891564 0.108788 0.075647 0.646165
C50   C     C_R   0.108435 0.891212 0.924353 0.646165
C51   C     C_R   0.608430 0.608804 0.424329 0.646506
C52   C     C_R   0.391570 0.391196 0.575671 0.646505
C53   C     C_R   0.925660 0.963003 0.074820 -0.143052
C54   C     C_R   0.074340 0.036997 0.925180 -0.143052
C55   C     C_R   0.574353 0.462961 0.425192 -0.143193
C56   C     C_R   0.425647 0.537039 0.574808 -0.143193
C57   C     C_R   0.922948 0.805509 0.110969 0.295149
C58   C     C_R   0.077052 0.194491 0.889031 0.295148
C59   C     C_R   0.577083 0.305412 0.389069 0.294984
C60   C     C_R   0.422917 0.694587 0.610931 0.294984
C61   C     C_R   0.886678 0.795964 0.147073 -0.224777
C62   C     C_R   0.113322 0.204036 0.852927 -0.224777
C63   C     C_R   0.613349 0.295890 0.352961 -0.224704
C64   C     C_R   0.386651 0.704110 0.647039 -0.224704
H9    H     H_    0.885256 0.673558 0.174340 0.209861
H10   H     H_    0.114744 0.326442 0.825661 0.209861
H11   H     H_    0.614786 0.173446 0.325718 0.209942
H12   H     H_    0.385214 0.826554 0.674281 0.209942
C65   C     C_R   0.852957 0.943078 0.148682 -0.315326
C66   C     C_R   0.147043 0.056922 0.851318 -0.315327
C67   C     C_R   0.647049 0.443059 0.351320 -0.315409
C68   C     C_R   0.352951 0.556941 0.648680 -0.315409
C69   C     C_R   0.014757 0.992490 0.062341 -0.244526
C70   C     C_R   0.985243 0.007510 0.937659 -0.244527
C71   C     C_R   0.485228 0.491301 0.437678 -0.244721
C72   C     C_R   0.514772 0.508699 0.562322 -0.244720
H13   H     H_    0.026597 0.988716 0.110608 0.207686
H14   H     H_    0.973403 0.011284 0.889392 0.207686
H15   H     H_    0.473369 0.486615 0.389421 0.207810
H16   H     H_    0.526631 0.513385 0.610579 0.207810
C73   C     C_R   0.050765 0.012942 0.026441 0.777374
C74   C     C_R   0.949235 0.987058 0.973559 0.777374
C75   C     C_R   0.449211 0.511772 0.473563 0.777487
C76   C     C_R   0.550789 0.488228 0.526437 0.777489
C77   C     C_R   0.036252 0.021285 0.963691 -0.046019
C78   C     C_R   0.963748 0.978715 0.036309 -0.046019
C79   C     C_R   0.463737 0.521310 0.536296 -0.046177
C80   C     C_R   0.536262 0.478690 0.463704 -0.046178
F1    F     F_    0.099753 0.026703 0.052943 -0.569070
F2    F     F_    0.900247 0.973296 0.947057 -0.569070
F3    F     F_    0.400198 0.524415 0.447054 -0.568906
F4    F     F_    0.599801 0.475586 0.552946 -0.568907
F5    F     F_    0.909035 0.047091 0.357750 -0.702897
F6    F     F_    0.090965 0.952909 0.642250 -0.702897
F7    F     F_    0.590991 0.547437 0.142221 -0.702877
F8    F     F_    0.409009 0.452563 0.857779 -0.702877
F9    F     F_    0.778771 0.845514 0.452612 -0.563951
F10   F     F_    0.221229 0.154485 0.547388 -0.563951
F11   F     F_    0.721206 0.345067 0.047407 -0.563926
F12   F     F_    0.278794 0.654933 0.952593 -0.563926
Br1   Br    Br    0.169203 0.160920 0.418806 -0.266886
Br2   Br    Br    0.830797 0.839080 0.581194 -0.266886
Br3   Br    Br    0.330837 0.661766 0.081165 -0.266950
Br4   Br    Br    0.669163 0.338234 0.918835 -0.266950
F13   F     F_    0.823713 0.244441 0.111011 -0.571895
F14   F     F_    0.176287 0.755559 0.888989 -0.571896
F15   F     F_    0.676261 0.744517 0.388936 -0.571949
F16   F     F_    0.323739 0.255483 0.611064 -0.571949
F17   F     F_    0.893102 0.261579 0.041086 -0.549115
F18   F     F_    0.106898 0.738420 0.958914 -0.549115
F19   F     F_    0.606877 0.761663 0.458852 -0.548947
F20   F     F_    0.393123 0.238337 0.541148 -0.548947
Br5   Br    Br    0.966948 0.597361 0.111094 -0.365842
Br6   Br    Br    0.033052 0.402639 0.888906 -0.365841
Br7   Br    Br    0.533134 0.097110 0.388995 -0.365899
Br8   Br    Br    0.466865 0.902890 0.611004 -0.365899

loop_
_geom_bond_atom_site_label_1
_geom_bond_atom_site_label_2
_ccdc_geom_bond_type
O17   V3    S    
C51   C55   A    
C25   C29   A    
O1    C5    A    
C55   C59   A    
C60   Br8   S    
C9    C21   A    
C22   F5    S    
C47   F15   S    
C10   C18   A    
O1    V3    S    
C50   F18   S    
O15   V3    S    
C59   Br7   S    
C25   C33   A    
C23   F8    S    
C5    C12   S    
C15   Br3   S    
C20   F11   S    
O7    C3    A    
C6    C11   S    
C16   Br4   S    
C35   C40   A    
C26   C30   A    
C48   C68   A    
C36   C39   A    
C40   C44   A    
O9    V1    S    
C19   F12   S    
C45   F13   S    
C14   C18   A    
C70   H14   S    
C17   F10   S    
O4    C8    A    
C63   H11   S    
O19   V1    S    
C62   H10   S    
C60   C64   A    
O13   V1    S    
O2    V4    S    
C32   C44   A    
O3    V1    S    
C28   C36   A    
O3    C7    A    
C1    O15   A    
C15   C31   A    
C56   C60   A    
C2    O16   A    
C16   C32   A    
O2    C6    A    
C10   C22   A    
C21   C25   A    
C18   F9    S    
C11   C19   A    
C16   C20   A    
C43   H3    S    
C48   C52   A    
C13   C29   A    
C34   C37   A    
O11   C7    A    
C11   C23   A    
C35   C36   A    
O12   C8    A    
C57   C61   A    
C72   C79   A    
C47   C67   A    
O10   V2    S    
C46   F14   S    
C63   C67   A    
C58   C62   A    
O5    V1    S    
C39   C43   A    
O7    V3    S    
C38   C42   A    
O8    V4    S    
C33   C38   A    
C75   F3    S    
C54   C58   A    
C61   C65   A    
C53   C57   A    
O18   V4    S    
C15   C19   A    
C37   H5    S    
C48   F16   S    
C76   C80   A    
C44   H4    S    
C26   C34   A    
C57   Br5   S    
C4    C66   S    
C37   C41   A    
C46   C50   A    
C31   C43   A    
C14   C30   A    
C45   C49   A    
C21   F6    S    
O8    C4    A    
C7    C10   S    
C49   F17   S    
C51   F19   S    
C40   H8    S    
O9    C5    A    
C3    C65   S    
C56   C79   S    
C71   C75   A    
C74   C78   A    
C73   C77   A    
O6    V2    S    
C70   C74   A    
C75   C79   A    
C64   C68   A    
C70   C77   A    
O14   V2    S    
C13   Br1   S    
C69   C78   A    
C12   C20   A    
C27   C35   A    
C61   H9    S    
C71   C80   A    
C29   C41   A    
O16   V4    S    
C69   C73   A    
C69   H13   S    
C3    O13   A    
C76   F4    S    
C71   H15   S    
C52   C56   A    
O5    C1    A    
O6    C2    A    
C23   C27   A    
O11   V3    S    
C30   C42   A    
O12   V4    S    
C22   C26   A    
C8    C9    S    
C9    C17   A    
C72   C76   A    
O20   V2    S    
C55   C80   S    
C58   Br6   S    
C50   C54   A    
C24   F7    S    
C47   C51   A    
O10   C6    A    
C33   C34   A    
C42   H2    S    
C39   H7    S    
C41   H1    S    
C64   H12   S    
C2    C68   S    
C1    C67   S    
C45   C65   A    
C12   C24   A    
C54   C77   S    
C27   C31   A    
C14   Br2   S    
C13   C17   A    
C53   C78   S    
O4    V2    S    
C59   C63   A    
C74   F2    S    
C72   H16   S    
C24   C28   A    
C73   F1    S    
C62   C66   A    
C4    O14   A    
C52   F20   S    
C38   H6    S    
C46   C66   A    
C49   C53   A    
C28   C32   A    
