data_mof_unit_3326.cif
_audit_creation_date              2012-12-11T14:58:00-0500
_audit_creation_method            fapswitch 2.2
_symmetry_space_group_name_H-M    P1
_symmetry_Int_Tables_number       1
_space_group_crystal_system       triclinic
_cell_length_a                    6.931829
_cell_length_b                    16.765222
_cell_length_c                    17.027808
_cell_angle_alpha                 100.572898
_cell_angle_beta                  88.648365
_cell_angle_gamma                 91.855454
_cell_volume                      1943.93353337

loop_
_atom_site_label
_atom_site_type_symbol
_atom_type_description
_atom_site_fract_x
_atom_site_fract_y
_atom_site_fract_z
_atom_type_partial_charge
O1    O     O_R   0.506180 0.438940 0.579430 -0.537912
O2    O     O_R   0.170520 0.406230 0.413590 -0.537871
O3    O     O_R   0.005180 0.561060 0.420570 -0.542243
C1    C     C_R   0.339566 0.383286 0.385113 0.696917
O4    O     O_R   0.176140 0.429310 0.578370 -0.546429
O5    O     O_R   0.010830 0.584300 0.586530 -0.533869
C2    C     C_R   0.340990 0.413008 0.604997 0.698074
O6    O     O_R   0.500520 0.415700 0.413470 -0.534817
O7    O     O_3   0.340830 0.550820 0.502480 -0.366544
V1    V     V_3+5 0.064040 0.490570 0.499540 1.411622
O8    O     O_R   0.681400 0.593770 0.586410 -0.538106
C3    C     C_R   0.850734 0.616715 0.614557 0.698159
O9    O     O_R   0.675790 0.570690 0.421630 -0.542316
C4    C     C_R   0.849029 0.586223 0.394804 0.697487
V2    V     V_3+5 0.564650 0.509430 0.500460 1.414563
O10   O     O_3   0.837730 0.449180 0.497520 -0.367637
C5    C     C_R   0.886550 0.861668 0.166562 -0.071440
C6    C     C_R   0.879981 0.638598 0.333611 -0.071447
C7    C     C_R   0.101851 0.688303 0.238225 -0.204632
C8    C     C_R   0.056104 0.634394 0.289792 -0.159285
C9    C     C_R   0.747642 0.697176 0.322952 -0.252773
C10   C     C_R   0.793705 0.752195 0.271292 0.164292
C11   C     C_R   0.972741 0.748060 0.228881 0.161084
C12   C     C_R   0.018801 0.803043 0.177190 -0.251982
C13   C     C_R   0.710538 0.865971 0.210478 -0.157486
C14   C     C_R   0.664605 0.811963 0.261936 -0.217740
H1    H     H_    0.153962 0.798477 0.143528 0.126121
H2    H     H_    0.605591 0.910793 0.204199 0.127915
H3    H     H_    0.239253 0.683632 0.206220 0.121738
H4    H     H_    0.527339 0.816719 0.294044 0.122226
H5    H     H_    0.161200 0.589660 0.296150 0.127763
H6    H     H_    0.612421 0.701686 0.356570 0.121725
H7    H     H_    0.775243 0.629008 0.979930 0.117139
C15   C     C_R   0.968749 0.909088 0.722296 -0.239074
C16   C     C_R   0.988934 0.924819 0.644491 0.318619
C17   C     C_R   0.962144 0.861059 0.579089 0.274093
C18   C     C_R   0.923354 0.782101 0.592479 -0.255980
C19   C     C_R   0.904363 0.765214 0.670655 0.034863
C20   C     C_R   0.925416 0.830043 0.736847 0.007546
C21   C     C_R   0.863060 0.685163 0.683433 -0.136852
C22   C     C_R   0.839665 0.670138 0.762405 0.026074
C23   C     C_R   0.858822 0.735132 0.828675 0.068311
C24   C     C_R   0.902243 0.815080 0.815964 -0.137606
C25   C     C_R   0.797505 0.590839 0.776764 -0.160272
C26   C     C_R   0.773784 0.575618 0.854517 0.216710
C27   C     C_R   0.792754 0.639719 0.919307 -0.112005
C28   C     C_R   0.834854 0.718337 0.906766 -0.186105
H8    H     H_    0.987283 0.959840 0.771223 0.130441
H9    H     H_    0.905731 0.734381 0.540698 0.115423
H10   H     H_    0.782090 0.539865 0.727822 0.106940
H11   H     H_    0.848850 0.765700 0.959021 0.105709
H12   H     H_    0.574236 0.488167 0.148935 0.115558
C29   C     C_R   0.238527 0.216687 0.398395 -0.141767
C30   C     C_R   0.196399 0.137018 0.407574 -0.116470
C31   C     C_R   0.224616 0.073250 0.344022 -0.124200
C32   C     C_R   0.295585 0.088621 0.270833 -0.144622
C33   C     C_R   0.338584 0.168923 0.259402 0.073013
C34   C     C_R   0.309021 0.234333 0.324581 0.068381
C35   C     C_R   0.412961 0.184341 0.184972 -0.186199
C36   C     C_R   0.457695 0.265309 0.175909 0.066863
C37   C     C_R   0.428026 0.330715 0.241066 0.071540
C38   C     C_R   0.353629 0.315317 0.315484 -0.186343
C39   C     C_R   0.528411 0.282941 0.102129 -0.137750
C40   C     C_R   0.570655 0.362584 0.092975 -0.116503
C41   C     C_R   0.542170 0.426358 0.156488 -0.124194
C42   C     C_R   0.470967 0.411012 0.229629 -0.139627
H13   H     H_    0.215756 0.264027 0.449891 0.104930
H14   H     H_    0.142415 0.124676 0.464464 0.119018
H15   H     H_    0.192500 0.011437 0.351589 0.124801
H16   H     H_    0.318077 0.036742 0.223741 0.100972
H17   H     H_    0.551296 0.235625 0.050626 0.105928
H18   H     H_    0.624893 0.374889 0.036121 0.116049
H19   H     H_    0.448280 0.462914 0.276671 0.100836
C43   C     C_R   0.432681 0.142368 0.835552 -0.089613
C44   C     C_R   0.333615 0.358999 0.665766 -0.070335
C45   C     C_R   0.143521 0.297530 0.763365 -0.198720
C46   C     C_R   0.161617 0.352048 0.710318 -0.168795
C47   C     C_R   0.489121 0.310377 0.676513 -0.244078
C48   C     C_R   0.470636 0.254331 0.729136 0.146868
C49   C     C_R   0.296182 0.247622 0.772807 0.159694
C50   C     C_R   0.277555 0.191408 0.825281 -0.227728
C51   C     C_R   0.604616 0.149310 0.790927 -0.164598
C52   C     C_R   0.623015 0.204169 0.738263 -0.200129
H20   H     H_    0.144513 0.187185 0.859244 0.126096
H21   H     H_    0.726552 0.112144 0.796840 0.141186
H22   H     H_    0.009211 0.294018 0.796579 0.121833
H23   H     H_    0.757131 0.207532 0.704878 0.130652
H24   H     H_    0.039273 0.388780 0.703872 0.127406
H25   H     H_    0.622076 0.314456 0.642457 0.125114
O11   O     O_R   0.265840 0.084300 0.086750 -0.535001
O12   O     O_R   0.589750 0.070740 0.921690 -0.545741
O13   O     O_R   0.755020 0.915730 0.913400 -0.533781
C53   C     C_R   0.424875 0.087485 0.895519 0.694816
O14   O     O_R   0.595830 0.093740 0.086480 -0.538232
O15   O     O_R   0.761150 0.938890 0.079360 -0.541837
C54   C     C_R   0.426866 0.116466 0.115253 0.696788
O16   O     O_R   0.259710 0.061140 0.920790 -0.537585
O17   O     O_3   0.425260 0.949200 0.997610 -0.365957
V3    V     V_3+5 0.702060 0.009430 0.000450 1.414144
O18   O     O_R   0.090530 0.929220 0.078150 -0.542013
C55   C     C_R   0.917377 0.913871 0.105196 0.697480
O19   O     O_R   0.084440 0.906220 0.913360 -0.538220
C56   C     C_R   0.915059 0.883492 0.885009 0.697024
V4    V     V_3+5 0.201450 0.990520 0.999290 1.416536
O20   O     O_3   0.928380 0.050800 0.002390 -0.367639
N1    N     N_2   0.979698 0.875613 0.499492 -0.529393
H26   H     H_    0.049536 0.830332 0.461095 0.261114
C57   C     C_3   0.800080 0.895295 0.466956 -0.570785
H27   H     H_    0.698469 0.841896 0.459294 0.196473
H28   H     H_    0.828931 0.912777 0.407912 0.213443
H29   H     H_    0.731844 0.947044 0.506911 0.197847
C58   C     C_3   0.728331 0.490688 0.867350 -0.806750
H30   H     H_    0.712534 0.487959 0.931883 0.203347
H31   H     H_    0.591235 0.468056 0.837525 0.219294
H32   H     H_    0.846317 0.450251 0.841397 0.207844
N2    N     N_2   0.037743 0.005216 0.633227 -0.527707
H33   H     H_    0.990645 0.019838 0.580831 0.277079
C59   C     C_3   0.237762 0.029267 0.648087 -0.532829
H34   H     H_    0.260393 0.093986 0.642914 0.205641
H35   H     H_    0.333067 0.991661 0.603567 0.196186
H36   H     H_    0.277673 0.022313 0.709188 0.204218

loop_
_geom_bond_atom_site_label_1
_geom_bond_atom_site_label_2
_ccdc_geom_bond_type
C34   C38   A    
C52   H23   S    
C31   C32   A    
C2    C44   S    
C53   O16   A    
C6    C9    A    
C22   C23   A    
C4    C6    S    
O2    C1    A    
C7    C8    A    
C12   H1    S    
C1    O6    A    
C58   H31   S    
C26   C58   S    
C29   C30   A    
C32   C33   A    
C13   H2    S    
C36   C39   A    
C17   C18   A    
O5    C3    A    
C19   C20   A    
O15   V3    S    
C33   C35   A    
C30   H14   S    
N1    H26   S    
V2    O10   S    
C1    C38   S    
O18   V4    S    
C57   H27   S    
C15   C16   A    
C5    C55   S    
C59   H34   S    
C58   H30   S    
O13   C56   A    
C27   C28   A    
O8    V2    S    
C37   C42   A    
C16   C17   A    
C46   H24   S    
N2    C59   S    
C48   C52   A    
C11   C12   A    
O1    V2    S    
O7    V1    S    
O14   C54   A    
C35   C36   A    
O9    C4    A    
H7    C27   S    
C43   C53   S    
O19   C56   A    
C43   C51   A    
V4    O20   S    
C59   H35   S    
C47   H25   S    
V3    O20   S    
C9    H6    S    
C5    C12   A    
C17   N1    S    
C15   C20   A    
C45   C46   A    
O4    C2    A    
C47   C48   A    
C20   C24   A    
C13   C14   A    
C26   C27   A    
C42   H19   S    
O11   C54   A    
C48   C49   A    
C36   C37   A    
C59   H36   S    
C3    C21   S    
C7    C11   A    
C18   C19   A    
O12   C53   A    
C18   H9    S    
C29   C34   A    
C16   N2    S    
O19   V4    S    
C44   C46   A    
O11   V4    S    
C31   H15   S    
O3    C4    A    
C21   C22   A    
C39   H17   S    
C51   C52   A    
O6    V2    S    
C32   H16   S    
O9    V2    S    
C10   C14   A    
C22   C25   A    
C15   H8    S    
C35   C54   S    
C43   C50   A    
O2    V1    S    
C45   H22   S    
C50   H20   S    
C25   C26   A    
C25   H10   S    
C30   C31   A    
O1    C2    A    
C45   C49   A    
C49   C50   A    
O5    V1    S    
C28   H11   S    
O8    C3    A    
C14   H4    S    
C51   H21   S    
C57   H29   S    
C5    C13   A    
C40   C41   A    
O7    V2    S    
O4    V1    S    
C41   C42   A    
O3    V1    S    
V1    O10   S    
C19   C21   A    
C33   C34   A    
N1    C57   S    
O14   V3    S    
O17   V4    S    
O18   C55   A    
C57   H28   S    
N2    H33   S    
C6    C8    A    
C23   C28   A    
C40   H18   S    
C37   C38   A    
C29   H13   S    
C44   C47   A    
C24   C56   S    
O16   V4    S    
C39   C40   A    
O17   V3    S    
C23   C24   A    
C10   C11   A    
O12   V3    S    
C9    C10   A    
C58   H32   S    
H12   C41   S    
O15   C55   A    
O13   V3    S    
C8    H5    S    
C7    H3    S    
