data_mof_unit_4028.cif
_audit_creation_date              2012-12-11T16:35:22-0500
_audit_creation_method            fapswitch 2.2
_symmetry_space_group_name_H-M    P1
_symmetry_Int_Tables_number       1
_space_group_crystal_system       triclinic
_cell_length_a                    6.928715
_cell_length_b                    17.669919
_cell_length_c                    19.530061
_cell_angle_alpha                 109.135941
_cell_angle_beta                  90.397451
_cell_angle_gamma                 90.580331
_cell_volume                      2258.69128298

loop_
_atom_site_label
_atom_site_type_symbol
_atom_type_description
_atom_site_fract_x
_atom_site_fract_y
_atom_site_fract_z
_atom_type_partial_charge
O1    O     O_R   0.505700 0.440210 0.561730 -0.501610
O2    O     O_R   0.169350 0.406300 0.412660 -0.545094
O3    O     O_R   0.005650 0.559790 0.438270 -0.543755
C1    C     C_R   0.337968 0.383346 0.384728 0.674737
O4    O     O_R   0.175560 0.430650 0.559600 -0.549350
O5    O     O_R   0.011900 0.584320 0.586250 -0.541224
C2    C     C_R   0.344697 0.416289 0.581767 0.729709
O6    O     O_R   0.499450 0.415680 0.413750 -0.542380
O7    O     O_3   0.341370 0.550390 0.508570 -0.359539
V1    V     V_3+5 0.063940 0.490650 0.498410 1.467722
O8    O     O_R   0.682570 0.593700 0.587340 -0.533528
C3    C     C_R   0.852642 0.616472 0.615048 0.709566
O9    O     O_R   0.676370 0.569350 0.440400 -0.510952
C4    C     C_R   0.845120 0.584702 0.419033 0.725286
V2    V     V_3+5 0.564750 0.509350 0.501590 1.537874
O10   O     O_3   0.837190 0.449610 0.491430 -0.366621
C5    C     C_R   0.036436 0.678687 0.283027 -0.130994
H1    H     H_    0.166839 0.675124 0.251993 0.124147
C6    C     C_R   0.024258 0.633666 0.330021 -0.194409
C7    C     C_R   0.856014 0.633973 0.370079 -0.181241
C8    C     C_R   0.700146 0.681292 0.362213 0.596248
C9    C     C_R   0.713574 0.726923 0.315680 -0.224938
H2    H     H_    0.592604 0.763906 0.312397 0.134090
C10   C     C_R   0.881362 0.726125 0.275135 -0.003818
C11   C     C_R   0.729368 0.786526 0.187287 -0.145956
H3    H     H_    0.591500 0.759923 0.192903 0.101067
C12   C     C_R   0.740410 0.832235 0.140863 -0.164500
H4    H     H_    0.610360 0.840271 0.113062 0.121283
C13   C     C_R   0.916985 0.866237 0.129793 -0.046477
C14   C     C_R   0.082220 0.853620 0.166667 -0.178498
C15   C     C_R   0.070753 0.808721 0.213870 -0.143193
H5    H     H_    0.200243 0.802178 0.242634 0.106111
C16   C     C_R   0.894107 0.774326 0.224850 0.126602
H6    H     H_    0.132329 0.635381 0.922292 0.118313
C17   C     C_R   0.779711 0.905283 0.752838 -0.128353
C18   C     C_R   0.709787 0.917866 0.690457 -0.109596
C19   C     C_R   0.692102 0.854124 0.626125 -0.115618
C20   C     C_R   0.743935 0.777337 0.623745 -0.123144
C21   C     C_R   0.812940 0.762477 0.686519 0.062688
C22   C     C_R   0.831495 0.827819 0.752432 0.053480
C23   C     C_R   0.867267 0.684496 0.684056 -0.184206
C24   C     C_R   0.940280 0.671843 0.747481 0.057269
C25   C     C_R   0.958873 0.737214 0.813400 0.072090
C26   C     C_R   0.904606 0.815230 0.815879 -0.184468
C27   C     C_R   0.991971 0.594318 0.747053 -0.107936
C28   C     C_R   0.061764 0.581772 0.809460 -0.102738
C29   C     C_R   0.079510 0.645540 0.873780 -0.127119
C30   C     C_R   0.027853 0.722348 0.876155 -0.138936
H7    H     H_    0.794259 0.957131 0.801037 0.171615
H8    H     H_    0.670610 0.977548 0.691949 0.143572
H9    H     H_    0.639240 0.864278 0.577611 0.138337
H10   H     H_    0.730514 0.730178 0.572001 0.126745
H11   H     H_    0.977598 0.542339 0.698863 0.153636
H12   H     H_    0.587426 0.482715 0.195450 0.117649
C31   C     C_R   0.229168 0.219754 0.372383 -0.142182
C32   C     C_R   0.185219 0.141612 0.369433 -0.115109
C33   C     C_R   0.218362 0.077951 0.306537 -0.123435
C34   C     C_R   0.295864 0.091899 0.246073 -0.136712
C35   C     C_R   0.340156 0.170656 0.246950 0.073507
C36   C     C_R   0.305847 0.236031 0.311609 0.067377
C37   C     C_R   0.420642 0.184429 0.185199 -0.184038
C38   C     C_R   0.467028 0.263946 0.188565 0.067047
C39   C     C_R   0.432617 0.329322 0.253215 0.071232
C40   C     C_R   0.352216 0.315540 0.314968 -0.183785
C41   C     C_R   0.543790 0.280237 0.127801 -0.140193
C42   C     C_R   0.587691 0.358390 0.130749 -0.116027
C43   C     C_R   0.554347 0.422047 0.193627 -0.126397
C44   C     C_R   0.476735 0.408092 0.254081 -0.144053
H13   H     H_    0.202771 0.266951 0.422922 0.105534
H14   H     H_    0.126218 0.130376 0.416433 0.118429
H15   H     H_    0.185250 0.017292 0.304717 0.122325
H16   H     H_    0.322669 0.040071 0.199084 0.101443
H17   H     H_    0.570304 0.233046 0.077275 0.108936
H18   H     H_    0.646809 0.369639 0.083761 0.117719
H19   H     H_    0.449768 0.459931 0.301051 0.113354
C45   C     C_R   0.534264 0.323329 0.719283 -0.225533
H20   H     H_    0.665374 0.326426 0.750621 0.134622
C46   C     C_R   0.525051 0.368599 0.672514 0.606743
C47   C     C_R   0.355688 0.368370 0.631839 -0.177004
C48   C     C_R   0.196387 0.322179 0.640026 -0.236191
H21   H     H_    0.064047 0.320490 0.609691 0.180860
C49   C     C_R   0.206797 0.276342 0.686468 -0.140924
C50   C     C_R   0.376295 0.276027 0.726622 0.035181
C51   C     C_R   0.227943 0.214985 0.814663 -0.124568
H22   H     H_    0.091242 0.242266 0.810300 0.134753
C52   C     C_R   0.241394 0.169089 0.860887 -0.210358
H23   H     H_    0.114113 0.161851 0.890096 0.204343
C53   C     C_R   0.416916 0.134036 0.870209 -0.186478
C54   C     C_R   0.579193 0.146063 0.831640 0.586980
C55   C     C_R   0.564781 0.191287 0.784874 -0.224182
H24   H     H_    0.691394 0.197467 0.754872 0.129550
C56   C     C_R   0.389454 0.226726 0.775858 0.030382
O11   O     O_R   0.273230 0.084330 0.086440 -0.537879
O12   O     O_R   0.596660 0.069390 0.940470 -0.507571
O13   O     O_R   0.760270 0.915710 0.913690 -0.536129
C57   C     C_R   0.427634 0.084532 0.918979 0.739797
O14   O     O_R   0.603330 0.093680 0.087390 -0.540937
O15   O     O_R   0.766990 0.940160 0.061660 -0.543300
C58   C     C_R   0.434780 0.116633 0.115413 0.683937
O16   O     O_R   0.266510 0.059870 0.938470 -0.540067
O17   O     O_3   0.431050 0.949630 0.991510 -0.376461
V3    V     V_3+5 0.708490 0.009340 0.001580 1.468793
O18   O     O_R   0.096270 0.930570 0.059390 -0.549753
C59   C     C_R   0.927550 0.915466 0.080960 0.675493
O19   O     O_R   0.089600 0.906290 0.912460 -0.538151
C60   C     C_R   0.919419 0.883366 0.884897 0.701287
V4    V     V_3+5 0.207670 0.990600 0.998190 1.432070
O20   O     O_3   0.935250 0.050360 0.008480 -0.358081
H25   H     H_    0.100858 0.522088 0.807984 0.130251
H26   H     H_    0.041366 0.769537 0.927877 0.105068
H27   H     H_    0.146388 0.597548 0.334125 0.172761
F1    F     F_    0.681514 0.413799 0.668531 -0.709762
H28   H     H_    0.082706 0.240077 0.689867 0.127190
F2    F     F_    0.535585 0.685018 0.400426 -0.700196
F3    F     F_    0.751628 0.113057 0.837765 -0.726520
H29   H     H_    0.220237 0.879552 0.160015 0.115358

loop_
_geom_bond_atom_site_label_1
_geom_bond_atom_site_label_2
_ccdc_geom_bond_type
O17   V4    S    
C30   H26   S    
C31   C32   A    
C53   C57   S    
O17   V3    S    
C12   C13   A    
C23   C24   A    
C17   C18   A    
C1    O6    A    
C54   F3    S    
C55   H24   S    
C21   C23   A    
C14   H29   S    
C27   C28   A    
C44   H19   S    
C50   C56   S    
O19   V4    S    
C38   C39   A    
C8    C9    A    
C18   C19   A    
C19   C20   A    
C45   C46   A    
O5    C3    A    
C14   C15   A    
C19   H9    S    
C52   C53   A    
C20   H10   S    
V2    O10   S    
C42   H18   S    
C41   H17   S    
C32   C33   A    
C28   C29   A    
O8    V2    S    
C15   H5    S    
C17   H7    S    
V4    O20   S    
C15   C16   A    
V3    O20   S    
O1    V2    S    
C25   C30   A    
O11   C58   A    
O14   V3    S    
O13   V3    S    
C53   C54   A    
C42   C43   A    
C27   H11   S    
C35   C36   A    
C31   C36   A    
C37   C58   S    
C45   C50   A    
O14   C58   A    
C35   C37   A    
C5    C10   A    
C43   C44   A    
C4    C7    S    
C51   H22   S    
C48   C49   A    
C21   C22   A    
O4    C2    A    
C52   H23   S    
C48   H21   S    
H12   C43   S    
C11   H3    S    
O15   V3    S    
C33   H15   S    
C47   C48   A    
C13   C59   S    
C24   C27   A    
O2    C1    A    
C25   C26   A    
C13   C14   A    
O13   C60   A    
C55   C56   A    
C29   C30   A    
C5    H1    S    
C45   H20   S    
O12   C57   A    
C31   H13   S    
O3    C4    A    
C41   C42   A    
O6    V2    S    
C6    H27   S    
O9    V2    S    
C9    C10   A    
C24   C25   A    
O2    V1    S    
O18   C59   A    
C18   H8    S    
C3    C23   S    
C2    C47   S    
O7    V1    S    
C39   C44   A    
O16   V4    S    
C38   C41   A    
O1    C2    A    
C49   H28   S    
C51   C52   A    
C8    F2    S    
O5    V1    S    
C46   F1    S    
O8    C3    A    
C26   C60   S    
C11   C12   A    
O19   C60   A    
C1    C40   S    
C32   H14   S    
C10   C16   S    
C36   C40   A    
C6    C7    A    
C17   C22   A    
C34   C35   A    
O4    V1    S    
O3    V1    S    
V1    O10   S    
O11   V4    S    
C46   C47   A    
C34   H16   S    
C33   C34   A    
C20   C21   A    
O15   C59   A    
C57   O16   A    
C5    C6    A    
O7    V2    S    
C37   C38   A    
C39   C40   A    
C22   C26   A    
C7    C8    A    
O12   V3    S    
C49   C50   A    
C28   H25   S    
C12   H4    S    
C9    H2    S    
O18   V4    S    
H6    C29   S    
C51   C56   A    
C54   C55   A    
O9    C4    A    
C11   C16   A    
