data_mof_unit_2570.cif
_audit_creation_date              2013-03-05T16:06:16-0500
_audit_creation_method            fapswitch 2.2
_symmetry_space_group_name_H-M    P1
_symmetry_Int_Tables_number       1
_space_group_crystal_system       triclinic
_cell_length_a                    10.777246
_cell_length_b                    9.643841
_cell_length_c                    27.815537
_cell_angle_alpha                 89.402215
_cell_angle_beta                  92.600377
_cell_angle_gamma                 89.464897
_cell_volume                      2887.70788062

loop_
_atom_site_label
_atom_site_type_symbol
_atom_site_description
_atom_site_fract_x
_atom_site_fract_y
_atom_site_fract_z
_atom_type_partial_charge
O1    O     O_R   0.319640 0.618740 0.500000 -0.591133
O2    O     O_R   0.680360 0.381260 0.500000 -0.589435
O3    O     O_R   0.680360 0.618740 0.500000 -0.561787
O4    O     O_R   0.319640 0.381260 0.500000 -0.560094
C1    C     C_R   0.262949 0.500194 0.499693 0.837072
C2    C     C_R   0.737063 0.499842 0.500299 0.839977
O5    O     O_R   0.500020 0.618770 0.430260 -0.613127
O6    O     O_R   0.499980 0.381230 0.569740 -0.613846
O7    O     O_R   0.499980 0.618770 0.569740 -0.576410
O8    O     O_R   0.500020 0.381230 0.430260 -0.575090
C3    C     C_R   0.504217 0.500142 0.407746 0.862121
C4    C     C_R   0.495357 0.499873 0.592269 0.860484
Cu1   Cu    Cu3+1 0.500000 0.640660 0.500000 1.004586
Cu2   Cu    Cu3+1 0.500000 0.359340 0.500000 1.005205
C5    C     C_R   0.400786 0.455746 0.176706 0.579127
C6    C     C_R   0.600619 0.528874 0.823566 0.581474
O9    O     O_2   0.303803 0.405067 0.200195 -0.494221
O10   O     O_2   0.703865 0.561162 0.800257 -0.487942
N1    N     N_R   0.500888 0.506920 0.202169 -0.466355
N2    N     N_R   0.494578 0.495079 0.797936 -0.466750
C7    C     C_R   0.601712 0.557776 0.179922 0.585730
C8    C     C_R   0.387424 0.463870 0.820055 0.584306
C9    C     C_R   0.564601 0.397599 0.279071 -0.190128
C10   C     C_R   0.438696 0.607426 0.720783 -0.188362
C11   C     C_R   0.571840 0.394860 0.329472 -0.062960
C12   C     C_R   0.431926 0.609701 0.670403 -0.060882
C13   C     C_R   0.446500 0.606813 0.328772 -0.194224
C14   C     C_R   0.543488 0.388536 0.671458 -0.199184
C15   C     C_R   0.442859 0.610139 0.278677 0.213532
C16   C     C_R   0.545865 0.385375 0.721560 0.217757
C17   C     C_R   0.501570 0.504619 0.253713 0.296556
C18   C     C_R   0.494413 0.496097 0.746370 0.294425
C19   C     C_R   0.500957 0.507073 0.102142 -0.075210
C20   C     C_R   0.493475 0.499621 0.897937 -0.075824
C21   C     C_R   0.398460 0.455579 0.126379 -0.015629
C22   C     C_R   0.602565 0.530357 0.873885 -0.017932
C23   C     C_R   0.296161 0.403370 0.100082 -0.115523
C24   C     C_R   0.711739 0.561315 0.900378 -0.111569
C25   C     C_R   0.604915 0.559267 0.129105 -0.088052
C26   C     C_R   0.383096 0.467226 0.870799 -0.086911
C27   C     C_R   0.509674 0.500328 0.354851 -0.087984
C28   C     C_R   0.488316 0.499819 0.645178 -0.088877
H1    H     H_    0.397539 0.686633 0.347327 0.211864
H2    H     H_    0.586676 0.304225 0.653083 0.213407
H3    H     H_    0.217602 0.360780 0.117998 0.199178
H4    H     H_    0.797208 0.582195 0.882662 0.205210
C29   C     C_R   0.387369 0.465966 0.973357 0.006512
C30   C     C_R   0.604146 0.550602 0.026619 0.005441
C31   C     C_R   0.605291 0.540218 0.975662 0.065276
C32   C     C_R   0.391800 0.458814 0.024487 0.066043
C33   C     C_R   0.495314 0.501897 0.949127 0.076635
C34   C     C_R   0.499026 0.505603 0.050942 0.076755
C35   C     C_R   0.277269 0.440710 0.945628 -0.233234
C36   C     C_R   0.704607 0.606374 0.054060 -0.233788
C37   C     C_R   0.273606 0.441075 0.895540 0.215552
C38   C     C_R   0.706556 0.611033 0.104092 0.215085
O11   O     O_2   0.286849 0.428540 0.792600 -0.467242
O12   O     O_2   0.697559 0.606028 0.207365 -0.469297
C39   C     C_R   0.292784 0.404504 0.050218 -0.194325
C40   C     C_R   0.713500 0.565554 0.950192 -0.193788
H5    H     H_    0.396977 0.690713 0.740592 0.154726
H6    H     H_    0.611169 0.318133 0.259070 0.153641
H7    H     H_    0.189923 0.424712 0.962053 0.157955
H8    H     H_    0.783039 0.651627 0.037390 0.160512
H9    H     H_    0.212227 0.358019 0.032896 0.150260
H10   H     H_    0.802599 0.585644 0.967717 0.149590
C41   C     C_R   0.070847 0.446353 0.540407 -0.070928
C42   C     C_R   0.929236 0.554788 0.459742 -0.070120
C43   C     C_R   0.940681 0.450964 0.541361 -0.005155
C44   C     C_R   0.059366 0.549291 0.458674 -0.001728
C45   C     C_R   0.871384 0.500951 0.500388 -0.087276
C46   C     C_R   0.128644 0.499310 0.499638 -0.087328
C47   C     C_R   0.423955 0.076892 0.468346 0.048309
C48   C     C_R   0.576091 0.923076 0.531644 0.048013
C49   C     C_R   0.573694 0.071556 0.532823 0.078717
C50   C     C_R   0.426408 0.928444 0.467169 0.080361
N3    N     N_R   0.500000 0.852070 0.500000 -0.247875
N4    N     N_R   0.500000 0.147930 0.500000 -0.248041
C51   C     C_2   0.331440 0.154072 0.437537 0.577207
H11   H     H_    0.358364 0.205279 0.404857 0.097005
O13   O     O_2   0.222067 0.153309 0.447187 -0.498371
C52   C     C_2   0.668680 0.845786 0.562383 0.579027
H12   H     H_    0.641865 0.794552 0.595074 0.094407
O14   O     O_2   0.778009 0.846499 0.552668 -0.498116
C53   C     C_2   0.647745 0.141733 0.571575 0.391899
H13   H     H_    0.689509 0.240192 0.565876 0.129593
O15   O     O_2   0.661871 0.089430 0.611651 -0.571341
C54   C     C_2   0.352756 0.858323 0.428335 0.394951
H14   H     H_    0.309715 0.760574 0.434149 0.125695
O16   O     O_2   0.340440 0.909923 0.388095 -0.570284
I1    I     I_    0.348281 0.776665 0.242228 -0.180659
I2    I     I_    0.626336 0.210391 0.758098 -0.190210
C55   C     C_2   0.360362 0.725802 0.646810 0.407318
H15   H     H_    0.356092 0.825354 0.664562 0.102317
O17   O     O_2   0.299379 0.710038 0.609253 -0.530537
C56   C     C_2   0.649180 0.282855 0.352868 0.405026
H16   H     H_    0.661921 0.185831 0.334180 0.105305
O18   O     O_2   0.705104 0.299409 0.391475 -0.535625
I3    I     I_    0.092729 0.405515 0.863470 -0.205618
I4    I     I_    0.871399 0.700636 0.135575 -0.194677
C57   C     C_2   0.148829 0.393068 0.582396 0.428969
H17   H     H_    0.233355 0.446055 0.593480 0.087392
O19   O     O_2   0.123315 0.285816 0.603236 -0.516343
C58   C     C_2   0.851399 0.610588 0.418087 0.430351
H18   H     H_    0.765447 0.560212 0.407202 0.089400
O20   O     O_2   0.878628 0.717405 0.397347 -0.517102
C59   C     C_2   0.877840 0.416667 0.586569 0.361544
H19   H     H_    0.904818 0.326060 0.607962 0.162132
O21   O     O_2   0.795713 0.491715 0.600845 -0.556327
C60   C     C_2   0.122211 0.582666 0.413389 0.357288
H20   H     H_    0.096005 0.673443 0.391960 0.160999
O22   O     O_2   0.203560 0.506581 0.399097 -0.558441

loop_
_geom_bond_atom_site_label_1
_geom_bond_atom_site_label_2
_geom_bond_distance
_ccdc_geom_bond_type
C10   H5    1.084372 S    
C13   C15   1.392220 A    
O3    C2    1.294033 A    
N1    C17   1.433360 S    
C8    O11   1.345893 S    
C58   O20   1.220123 D    
C43   C59   1.490662 S    
C53   H13   1.068000 S    
C19   C34   1.423603 A    
C5    N1    1.362694 A    
C41   C57   1.491585 S    
C20   C33   1.423506 A    
C55   H15   1.085705 S    
C31   C40   1.413616 A    
O1    C1    1.301199 A    
C32   C39   1.413234 A    
C21   C23   1.396061 A    
C10   C12   1.399865 A    
C1    C46   1.447476 S    
C41   C46   1.411648 A    
C43   C45   1.411957 A    
O7    Cu1   1.949128 S    
C60   H20   1.081983 S    
C4    C28   1.477076 S    
C44   C60   1.490632 S    
C49   C53   1.484605 S    
C9    H6    1.084307 S    
C14   C16   1.392686 A    
C31   C33   1.421502 A    
C48   N3    1.368839 A    
C56   O18   1.220064 D    
C32   C34   1.421268 A    
C47   N4    1.368871 A    
C50   C54   1.483795 S    
O3    Cu1   1.953281 S    
O6    C4    1.311887 A    
C29   C35   1.410124 A    
C12   C55   1.483834 S    
C53   O15   1.221346 D    
C40   H10   1.077121 S    
C57   O19   1.220132 D    
Cu1   Cu2   2.713005 S    
C59   O21   1.221007 D    
O2    C2    1.301575 A    
C48   C52   1.475722 S    
C5    C21   1.398969 A    
C58   H18   1.082499 S    
O7    C4    1.303402 A    
O5    C3    1.311321 A    
C29   C32   1.421786 A    
C36   C38   1.392076 A    
C35   C37   1.391962 A    
C2    C45   1.447647 S    
Cu1   N3    2.038804 S    
C48   C49   1.432650 A    
C57   H17   1.082836 S    
C50   N3    1.383773 A    
C16   I2    2.118891 S    
O8    Cu2   1.949127 S    
C11   C27   1.423700 A    
C51   O13   1.220803 D    
C29   C33   1.414740 A    
C14   H2    1.078047 S    
C41   C43   1.404584 A    
C9    C17   1.397292 A    
C30   C36   1.410174 A    
C10   C18   1.397507 A    
C13   C27   1.403889 A    
C25   C38   1.416093 A    
C7    C25   1.415415 A    
C30   C34   1.414975 A    
C6    N2    1.363246 A    
C26   C37   1.416056 A    
C8    C26   1.415048 A    
C56   H16   1.085722 S    
C47   C51   1.475747 S    
C19   C25   1.418891 A    
C23   C39   1.385729 A    
C24   C40   1.385907 A    
C6    O10   1.350232 S    
C30   C31   1.422552 A    
C54   O16   1.221367 D    
C52   O14   1.220816 D    
C47   C50   1.432355 A    
C20   C26   1.418765 A    
O1    Cu1   1.957207 S    
C38   I4    2.138465 S    
C59   H19   1.082060 S    
C23   H3    1.083690 S    
C15   I1    2.118386 S    
C12   C28   1.423641 A    
N2    C18   1.434185 S    
C5    O9    1.350209 S    
O6    Cu2   1.953506 S    
N1    C7    1.367037 A    
C42   C58   1.492017 S    
N2    C8    1.367424 A    
O4    C1    1.294281 A    
C22   C24   1.396083 A    
C7    O12   1.345773 S    
C15   C17   1.400229 A    
C39   H9    1.077351 S    
C16   C18   1.401035 A    
C35   H7    1.076543 S    
C55   O17   1.220376 D    
C36   H8    1.076202 S    
C42   C45   1.412197 A    
C14   C28   1.404254 A    
C19   C21   1.411434 A    
C3    C27   1.475132 S    
C20   C22   1.411190 A    
Cu2   N4    2.038805 S    
O4    Cu2   1.953281 S    
O2    Cu2   1.957207 S    
C49   N4    1.384227 A    
C60   O22   1.220968 D    
C24   H4    1.083709 S    
O8    C3    1.303017 A    
C51   H11   1.082416 S    
C13   H1    1.078317 S    
O5    Cu1   1.953506 S    
C9    C11   1.400518 A    
C54   H14   1.068526 S    
C11   C56   1.484679 S    
C42   C44   1.404624 A    
C52   H12   1.082411 S    
C37   I3    2.138792 S    
C44   C46   1.411632 A    
C6    C22   1.399077 A    
