data_mof_unit_4177.cif
_audit_creation_date              2012-12-11T14:50:51-0500
_audit_creation_method            fapswitch 2.2
_symmetry_space_group_name_H-M    P1
_symmetry_Int_Tables_number       1
_space_group_crystal_system       triclinic
_cell_length_a                    10.909926
_cell_length_b                    10.889891
_cell_length_c                    18.833603
_cell_angle_alpha                 90.096273
_cell_angle_beta                  89.716023
_cell_angle_gamma                 60.29627
_cell_volume                      1943.51521392

loop_
_atom_site_label
_atom_site_type_symbol
_atom_type_description
_atom_site_fract_x
_atom_site_fract_y
_atom_site_fract_z
_atom_type_partial_charge
C1    C     C_R   0.235066 0.647342 0.609513 0.575473
C2    C     C_R   0.554888 0.243177 0.797981 0.364364
C3    C     C_R   0.537037 0.258379 0.725523 -0.098445
C4    C     C_R   0.653125 0.621772 0.601332 0.537978
C5    C     C_R   0.653469 0.198652 0.679401 -0.058504
C6    C     C_R   0.179716 0.559616 0.720484 0.290084
C7    C     C_R   0.172717 0.562530 0.794367 0.409404
C8    C     C_R   0.170424 0.675222 0.832230 -0.071276
C9    C     C_R   0.181482 0.780601 0.795396 -0.204055
C10   C     C_R   0.184757 0.780182 0.722388 0.268840
C11   C     C_R   0.189405 0.666648 0.683857 -0.035401
C12   C     C_3   0.665790 0.553505 0.800728 -0.250400
C13   C     C_R   0.720583 0.525570 0.271331 -0.156845
C14   C     C_R   0.719974 0.539298 0.198575 -0.093890
C15   C     C_R   0.650903 0.673490 0.168124 0.013619
C16   C     C_R   0.625807 0.232578 0.604339 0.535439
C17   C     C_R   0.571056 0.793284 0.211183 -0.033508
C18   C     C_R   0.568515 0.779012 0.284682 0.360039
C19   C     C_R   0.647497 0.644943 0.315216 0.017545
C20   C     C_R   0.524934 0.189806 0.282482 0.408193
C21   C     C_R   0.529868 0.183612 0.209853 -0.091010
C22   C     C_R   0.649618 0.165943 0.174143 -0.039702
C23   C     C_3   0.698491 0.674316 0.812128 0.024759
C24   C     C_R   0.761092 0.165232 0.211492 -0.160452
C25   C     C_R   0.755637 0.174173 0.284653 -0.205959
C26   C     C_R   0.637474 0.187300 0.320636 0.030541
C27   C     C_R   0.253713 0.715215 0.280996 -0.109775
C28   C     C_R   0.227045 0.647189 0.399688 0.540505
C29   C     C_R   0.235617 0.716303 0.209006 0.307612
C30   C     C_R   0.153127 0.662516 0.181549 0.034308
C31   C     C_R   0.102373 0.592881 0.225849 0.321263
C32   C     C_R   0.123597 0.589577 0.298325 -0.085793
C33   C     C_R   0.193425 0.656671 0.325905 -0.084979
C34   C     C_3   0.668657 0.647393 0.676676 0.025296
C35   C     C_R   0.702418 0.103130 0.896505 0.571332
C36   C     C_R   0.723548 0.688195 0.888032 0.530895
C37   C     C_R   0.117182 0.706840 0.905053 0.575061
C38   C     C_R   0.674153 0.109478 0.103184 0.553018
C39   C     C_R   0.694243 0.690064 0.097221 0.562249
C40   C     C_R   0.640411 0.620521 0.390819 0.571812
C41   C     C_R   0.094314 0.707538 0.112136 0.605177
C42   C     C_R   0.615375 0.231171 0.394114 0.562312
C43   C     C_3   0.574323 0.813658 0.781903 -0.219064
C44   C     C_3   0.555275 0.796798 0.702248 -0.228035
C45   C     C_3   0.815630 0.630127 0.690126 -0.234741
C46   C     C_3   0.834660 0.641136 0.770043 -0.210744
C47   C     C_3   0.651531 0.535286 0.720783 -0.221610
C48   C     C_R   0.790223 0.128688 0.707184 -0.161465
C49   C     C_R   0.808481 0.108807 0.780520 -0.196303
C50   C     C_R   0.689987 0.161984 0.825849 0.008686
Cr1   Cr    Cr6+3 0.392930 0.397900 0.502230 1.126238
Cr2   Cr    Cr6+3 0.398240 0.708600 0.501260 1.111860
Cr3   Cr    Cr6+3 0.708800 0.393470 0.496460 1.047937
Cr4   Cr    Cr6+3 0.937620 0.938540 0.007640 1.061532
Cr5   Cr    Cr6+3 0.625150 0.937450 0.994520 1.083183
Cr6   Cr    Cr6+3 0.937990 0.625080 0.001190 1.133664
F1    F     F_    0.439556 0.300067 0.840965 -0.565754
F2    F     F_    0.176297 0.452678 0.685019 -0.607992
F3    F     F_    0.162694 0.458075 0.828473 -0.536276
F4    F     F_    0.183893 0.892073 0.690083 -0.623117
F5    F     F_    0.493416 0.895607 0.325752 -0.574933
F6    F     F_    0.407667 0.201441 0.314500 -0.554696
F7    F     F_    0.291671 0.777019 0.166607 -0.620188
F8    F     F_    0.023865 0.537599 0.200226 -0.609756
H1    H     H_    0.595868 0.902712 0.789249 0.157862
H2    H     H_    0.443193 0.183413 0.182072 0.179738
H3    H     H_    0.855456 0.150646 0.184614 0.171978
H4    H     H_    0.447791 0.812464 0.693687 0.215904
H5    H     H_    0.082895 0.538408 0.332865 0.180379
H6    H     H_    0.563975 0.879415 0.671519 0.141390
H7    H     H_    0.751511 0.452858 0.822887 0.150966
H8    H     H_    0.566026 0.577954 0.828687 0.133387
H9    H     H_    0.546668 0.544950 0.710391 0.113932
H10   H     H_    0.923109 0.538418 0.787983 0.228153
H11   H     H_    0.900184 0.525739 0.670307 0.209812
H12   H     H_    0.733329 0.426614 0.704695 0.161418
H13   H     H_    0.474616 0.841355 0.810845 0.156465
H14   H     H_    0.842306 0.173406 0.312867 0.158387
H15   H     H_    0.315993 0.759582 0.301565 0.199464
H16   H     H_    0.863420 0.724500 0.780078 0.102778
H17   H     H_    0.826853 0.713306 0.661384 0.123038
H18   H     H_    0.881527 0.086625 0.672346 0.197535
H19   H     H_    0.913873 0.045123 0.801240 0.167320
H20   H     H_    0.431365 0.318487 0.705334 0.220191
H21   H     H_    0.177884 0.869977 0.822727 0.188946
H22   H     H_    0.778739 0.420400 0.293212 0.158264
H23   H     H_    0.781850 0.445518 0.166480 0.160682
H24   H     H_    0.518077 0.898371 0.188622 0.172398
O1    O     O_R   0.507430 0.255570 0.581420 -0.492030
O2    O     O_R   0.837200 0.593290 0.915250 -0.498793
O3    O     O_R   0.065330 0.635370 0.931590 -0.434070
O4    O     O_R   0.280190 0.527390 0.578910 -0.462733
O5    O     O_R   0.068300 0.828790 0.091860 -0.461829
O6    O     O_R   0.798730 0.057480 0.079370 -0.505009
O7    O     O_R   0.584680 0.080480 0.076790 -0.513858
O8    O     O_R   0.626790 0.809640 0.067050 -0.502479
O9    O     O_R   0.816010 0.596460 0.076500 -0.473246
O10   O     O_R   0.045680 0.638310 0.081070 -0.450907
O11   O     O_3   0.833590 0.833690 0.001120 -0.296154
O12   O     O_R   0.524460 0.695920 0.424060 -0.449402
O13   O     O_R   0.260310 0.739740 0.584580 -0.445958
O14   O     O_R   0.532250 0.695150 0.573830 -0.497079
O15   O     O_R   0.744930 0.503430 0.576380 -0.510996
O16   O     O_R   0.699250 0.276390 0.571950 -0.498764
O17   O     O_R   0.499020 0.256400 0.419850 -0.418461
O18   O     O_R   0.272400 0.528160 0.429140 -0.487303
O19   O     O_R   0.251910 0.740570 0.423020 -0.506422
O20   O     O_R   0.736530 0.504260 0.414810 -0.525250
O21   O     O_R   0.691460 0.277160 0.422180 -0.527493
O22   O     O_3   0.499990 0.499990 0.499980 -0.302555
O23   O     O_R   0.089490 0.825610 0.930610 -0.535626
O24   O     O_R   0.818370 0.054540 0.929880 -0.524428
O25   O     O_R   0.605870 0.077310 0.915530 -0.442581
O26   O     O_R   0.646440 0.806700 0.917570 -0.512504

loop_
_geom_bond_atom_site_label_1
_geom_bond_atom_site_label_2
_ccdc_geom_bond_type
Cr3   O22   S    
C29   F7    S    
C21   H2    S    
C27   C29   A    
C17   H24   S    
C6    F2    S    
C1    C11   S    
Cr6   O10   S    
C36   O26   A    
C2    F1    S    
C7    C8    A    
C45   C46   S    
C27   C33   A    
C12   C23   S    
Cr2   O14   S    
C42   O21   A    
C14   H23   S    
C27   H15   S    
C30   C31   A    
C39   O9    A    
Cr3   O16   S    
C36   O2    A    
C22   C38   S    
C4    O15   A    
C23   C43   S    
C18   C19   A    
Cr4   O5    S    
C2    C50   A    
C24   H3    S    
C9    H21   S    
C16   O16   A    
Cr6   O3    S    
C41   O5    A    
Cr2   O19   S    
C28   O18   A    
C8    C9    A    
C5    C16   S    
C4    O14   A    
C13   H22   S    
C30   C41   S    
C44   H6    S    
C9    C10   A    
Cr1   O17   S    
C40   O20   A    
Cr6   O2    S    
C12   H8    S    
C16   O1    A    
C23   C46   S    
C13   C14   A    
Cr6   O9    S    
C12   C47   S    
C7    F3    S    
C5    C48   A    
C4    C34   S    
Cr2   O13   S    
Cr4   O6    S    
C37   O3    A    
C25   H14   S    
C34   C44   S    
C24   C25   A    
C47   H9    S    
Cr5   O7    S    
C10   C11   A    
C6    C11   A    
C13   C19   A    
Cr5   O25   S    
C25   C26   A    
Cr2   O12   S    
C38   O7    A    
C10   F4    S    
C43   C44   S    
C40   O12   A    
C29   C30   A    
Cr1   O4    S    
C31   C32   A    
Cr2   O22   S    
C43   H1    S    
C38   O6    A    
C35   C50   S    
C17   C18   A    
Cr4   O24   S    
C34   C45   S    
C15   C39   S    
C6    C7    A    
C48   C49   A    
C12   H7    S    
C28   C33   S    
C23   C36   S    
C1    O4    A    
C22   C24   A    
Cr4   O11   S    
C44   H4    S    
C43   H13   S    
C8    C37   S    
C1    O13   A    
C46   H10   S    
C26   C42   S    
Cr3   O21   S    
C15   C17   A    
C14   C15   A    
C31   F8    S    
C45   H17   S    
Cr5   O8    S    
C3    C5    A    
C47   H12   S    
C18   F5    S    
C32   H5    S    
Cr5   O26   S    
Cr1   O22   S    
C45   H11   S    
C32   C33   A    
C49   H19   S    
C2    C3    A    
Cr1   O1    S    
C46   H16   S    
Cr3   O20   S    
C20   C26   A    
Cr3   O15   S    
Cr1   O18   S    
C48   H18   S    
Cr4   O23   S    
C35   O25   A    
C20   F6    S    
C42   O17   A    
C39   O8    A    
C37   O23   A    
C19   C40   S    
C20   C21   A    
C49   C50   A    
Cr5   O11   S    
C3    H20   S    
C41   O10   A    
C34   C47   S    
C28   O19   A    
Cr6   O11   S    
C21   C22   A    
C35   O24   A    
