data_mof_unit_2354.cif
_audit_creation_date              2012-12-11T15:53:47-0500
_audit_creation_method            fapswitch 2.2
_symmetry_space_group_name_H-M    P1
_symmetry_Int_Tables_number       1
_space_group_crystal_system       triclinic
_cell_length_a                    10.641494
_cell_length_b                    10.685429
_cell_length_c                    16.937601
_cell_angle_alpha                 80.823088
_cell_angle_beta                  99.501313
_cell_angle_gamma                 118.852555
_cell_volume                      1656.61693176

loop_
_atom_site_label
_atom_site_type_symbol
_atom_type_description
_atom_site_fract_x
_atom_site_fract_y
_atom_site_fract_z
_atom_type_partial_charge
C1    C     C_R   0.385204 0.285511 0.632088 0.535921
C2    C     C_1   0.334330 0.188438 0.781957 -0.025991
C3    C     C_1   0.317615 0.682319 0.280421 -0.055554
C4    C     C_R   0.415085 0.620949 0.602053 0.568384
C5    C     C_1   0.296862 0.706586 0.209709 -0.062313
C6    C     C_R   0.804258 0.655185 0.150217 0.020255
C7    C     C_R   0.774114 0.526723 0.198692 0.030986
C8    C     C_R   0.765341 0.519710 0.278749 0.033836
C9    C     C_R   0.786180 0.756609 0.262927 -0.151154
C10   C     C_R   0.792230 0.763332 0.180517 -0.149641
C11   C     C_3   0.844229 0.430461 0.214000 -0.263724
C12   C     C_R   0.517962 0.722719 0.736077 0.198143
C13   C     C_3   0.831995 0.422759 0.302446 -0.270208
C14   C     C_R   0.787360 0.639056 0.313691 0.016066
C15   C     C_R   0.261454 0.053255 0.179981 0.002385
C16   C     C_R   0.782549 0.621712 0.625859 0.543127
C17   C     C_R   0.154249 0.063279 0.211887 0.016869
C18   C     C_R   0.176216 0.101066 0.288585 0.024538
C19   C     C_R   0.404619 0.097493 0.309880 -0.150694
C20   C     C_R   0.380952 0.056620 0.231957 -0.164776
C21   C     C_3   0.078010 0.150846 0.180421 -0.258165
C22   C     C_3   0.099073 0.189797 0.264958 -0.261606
C23   C     C_R   0.494652 0.732020 0.813075 -0.099979
C24   C     C_R   0.307753 0.133052 0.335511 0.018350
C25   C     C_R   0.949613 0.725592 0.851941 0.561656
C26   C     C_R   0.316763 0.704766 0.899367 0.554089
C27   C     C_R   0.286940 0.119252 0.858627 0.558291
C28   C     C_R   0.348844 0.222122 0.401029 0.560439
C29   C     C_R   0.881943 0.688712 0.081447 0.543893
C30   C     C_R   0.284659 0.738899 0.125584 0.541479
C31   C     C_R   0.245949 0.037997 0.094860 0.551535
C32   C     C_R   0.361779 0.657065 0.361882 0.558335
C33   C     C_R   0.765628 0.619051 0.397204 0.545865
C34   C     C_3   0.099112 0.473966 0.775907 -0.241275
C35   C     C_R   0.357030 0.649230 0.840004 -0.024000
C36   C     C_R   0.257456 0.531635 0.798497 0.002042
C37   C     C_R   0.281713 0.517061 0.723575 -0.035155
C38   C     C_3   0.125137 0.457336 0.693658 -0.239434
C39   C     C_R   0.404583 0.621168 0.687130 0.001563
C40   C     C_1   0.853788 0.670357 0.702268 0.001145
C41   C     C_1   0.901230 0.704746 0.769235 -0.002008
C42   C     C_1   0.365816 0.235581 0.714699 -0.027980
Cl1   Cl    Cl    0.682176 0.857146 0.701520 -0.587343
Cr1   Cr    Cr6+3 0.608440 0.389080 0.519680 1.038583
Cr2   Cr    Cr6+3 0.288640 0.400090 0.490760 1.012530
Cr3   Cr    Cr6+3 0.602940 0.710800 0.489510 1.060921
Cr4   Cr    Cr6+3 0.052530 0.947560 0.964210 1.028091
Cr5   Cr    Cr6+3 0.059970 0.626800 0.992920 1.003549
Cr6   Cr    Cr6+3 0.373320 0.938440 0.995370 1.016145
H1    H     H_    0.775163 0.325973 0.188143 0.140729
H2    H     H_    0.035580 0.369752 0.810441 0.162483
H3    H     H_    0.076830 0.343440 0.680854 0.173334
H4    H     H_    0.102361 0.528912 0.644886 0.158922
H5    H     H_    0.802058 0.858196 0.142453 0.132206
H6    H     H_    0.958777 0.484501 0.201049 0.163689
H7    H     H_    0.754547 0.314529 0.327377 0.144016
H8    H     H_    0.578652 0.817964 0.846779 0.179038
H9    H     H_    0.786016 0.844658 0.286875 0.137796
H10   H     H_    0.938155 0.474205 0.338875 0.144173
H11   H     H_    0.504220 0.114534 0.346369 0.133463
H12   H     H_    0.461917 0.040314 0.210539 0.140201
H13   H     H_    0.963121 0.085856 0.158847 0.127247
H14   H     H_    0.139747 0.245162 0.138522 0.170546
H15   H     H_    0.169947 0.306589 0.270027 0.163661
H16   H     H_    0.996456 0.142992 0.293000 0.135238
H17   H     H_    0.062380 0.555527 0.774360 0.143108
O1    O     O_R   0.754020 0.497590 0.609930 -0.521690
O2    O     O_R   0.406180 0.826930 0.920660 -0.512790
O3    O     O_R   0.358620 0.062870 0.901950 -0.486772
O4    O     O_R   0.481420 0.271390 0.600630 -0.470559
O5    O     O_R   0.163910 0.085460 0.050210 -0.511305
O6    O     O_R   0.935200 0.815170 0.045770 -0.520365
O7    O     O_R   0.916120 0.596690 0.069430 -0.524423
O8    O     O_R   0.192310 0.631200 0.086170 -0.496589
O9    O     O_R   0.406770 0.819480 0.096420 -0.510106
O10   O     O_R   0.359170 0.055960 0.064880 -0.512107
O11   O     O_3   0.161940 0.837600 0.984160 -0.312430
O12   O     O_R   0.295080 0.533620 0.397890 -0.502504
O13   O     O_R   0.263810 0.254550 0.589590 -0.503084
O14   O     O_R   0.300820 0.531200 0.560890 -0.524608
O15   O     O_R   0.491480 0.744020 0.564270 -0.440984
O16   O     O_R   0.726290 0.693800 0.583010 -0.465973
O17   O     O_R   0.747830 0.500190 0.434090 -0.515351
O18   O     O_R   0.475680 0.273800 0.437630 -0.493288
O19   O     O_R   0.257620 0.257160 0.413750 -0.515502
O20   O     O_R   0.485280 0.746620 0.388440 -0.508377
O21   O     O_R   0.720550 0.696220 0.420010 -0.505492
O22   O     O_3   0.500010 0.499990 0.499980 -0.298809
O23   O     O_R   0.163320 0.092900 0.874450 -0.498602
O24   O     O_R   0.934650 0.822080 0.882840 -0.457750
O25   O     O_R   0.915520 0.604140 0.893670 -0.512943
O26   O     O_R   0.191760 0.638110 0.923230 -0.505456

loop_
_geom_bond_atom_site_label_1
_geom_bond_atom_site_label_2
_ccdc_geom_bond_type
C8    C13   S    
Cr6   O2    S    
C28   O18   A    
C19   C20   A    
Cr1   O17   S    
C34   H17   S    
C14   C33   S    
C7    C8    A    
C7    C11   S    
C12   C23   A    
C25   O24   A    
C18   C24   A    
C36   C37   A    
C4    O14   A    
C12   Cl1   S    
C30   O8    A    
C38   H3    S    
C26   O26   A    
C23   H8    S    
C9    H9    S    
C20   H12   S    
Cr3   O16   S    
C4    O15   A    
C35   C36   A    
Cr5   O25   S    
Cr6   O9    S    
Cr1   O4    S    
Cr2   O12   S    
C9    C10   A    
C27   O3    A    
C29   O6    A    
C31   O5    A    
Cr6   O3    S    
C21   C22   S    
Cr4   O23   S    
Cr3   O22   S    
C15   C20   A    
C25   O25   A    
Cr5   O8    S    
Cr2   O22   S    
C25   C41   S    
Cr1   O18   S    
C32   O12   A    
C17   C21   S    
C34   C38   S    
Cr5   O11   S    
Cr2   O19   S    
C9    C14   A    
C22   H16   S    
C37   C38   S    
Cr3   O15   S    
C1    C42   S    
C4    C39   S    
C32   O20   A    
C16   O16   A    
C17   C18   A    
C34   H2    S    
Cr6   O10   S    
Cr2   O13   S    
C16   O1    A    
C33   O17   A    
Cr4   O5    S    
C21   H13   S    
C2    C27   S    
C16   C40   S    
C40   C41   T    
C23   C35   A    
Cr5   O26   S    
C1    O13   A    
Cr4   O24   S    
Cr4   O11   S    
C11   H6    S    
Cr3   O21   S    
C15   C17   A    
C8    C14   A    
C18   C22   S    
Cr5   O7    S    
C24   C28   S    
C3    C5    T    
C6    C10   A    
C15   C31   S    
C6    C7    A    
C13   H10   S    
C19   H11   S    
C1    O4    A    
C26   O2    A    
C13   H7    S    
C12   C39   A    
C19   C24   A    
C33   O21   A    
C37   C39   A    
C11   H1    S    
C30   O9    A    
C11   C13   S    
C31   O10   A    
C38   H4    S    
C2    C42   T    
Cr6   O11   S    
C27   O23   A    
Cr2   O14   S    
C34   C36   S    
C3    C32   S    
C10   H5    S    
Cr4   O6    S    
C21   H14   S    
C22   H15   S    
C26   C35   S    
C6    C29   S    
C29   O7    A    
C5    C30   S    
C28   O19   A    
Cr1   O1    S    
Cr1   O22   S    
Cr3   O20   S    
