data_mof_unit_3996.cif
_audit_creation_date              2012-12-11T14:29:32-0500
_audit_creation_method            fapswitch 2.2
_symmetry_space_group_name_H-M    P1
_symmetry_Int_Tables_number       1
_space_group_crystal_system       triclinic
_cell_length_a                    6.936835
_cell_length_b                    14.726205
_cell_length_c                    16.304183
_cell_angle_alpha                 90.119806
_cell_angle_beta                  89.109968
_cell_angle_gamma                 89.572929
_cell_volume                      1665.27408811

loop_
_atom_site_label
_atom_site_type_symbol
_atom_type_description
_atom_site_fract_x
_atom_site_fract_y
_atom_site_fract_z
_atom_type_partial_charge
O1    O     O_R   0.494400 0.416610 0.413880 -0.548981
O2    O     O_R   0.823920 0.406790 0.585520 -0.530369
O3    O     O_R   0.994250 0.583390 0.586120 -0.519411
C1    C     C_R   0.654213 0.383759 0.612549 0.820557
O4    O     O_R   0.824110 0.405730 0.414490 -0.542137
O5    O     O_R   0.994440 0.582310 0.413870 -0.525303
C2    C     C_R   0.656348 0.381840 0.387676 0.748577
O6    O     O_R   0.494210 0.417690 0.586130 -0.537564
O7    O     O_3   0.660810 0.557940 0.500000 -0.360650
V1    V     V_3+5 0.935650 0.489250 0.500000 1.518561
O8    O     O_R   0.324160 0.593210 0.414480 -0.537753
C3    C     C_R   0.157389 0.608865 0.381977 0.815427
O9    O     O_R   0.323970 0.594270 0.585510 -0.532399
C4    C     C_R   0.151707 0.621245 0.610518 0.724440
V2    V     V_3+5 0.435660 0.510750 0.500000 1.513588
O10   O     O_3   0.160630 0.442060 0.500000 -0.384934
C5    C     C_R   0.201079 0.568375 0.783892 -0.007331
C6    C     C_R   0.281880 0.545352 0.859229 -0.139335
C7    C     C_R   0.314104 0.611405 0.917714 -0.128873
C8    C     C_R   0.260143 0.700547 0.902711 -0.115932
C9    C     C_R   0.188985 0.727346 0.825324 0.055310
C10   C     C_R   0.174355 0.661645 0.761541 0.019977
C11   C     C_R   0.132949 0.818279 0.812048 -0.154429
C12   C     C_R   0.094298 0.849333 0.731622 0.067359
C13   C     C_R   0.078093 0.784945 0.665670 -0.019730
C14   C     C_R   0.131621 0.690297 0.679529 -0.177619
C15   C     C_R   0.077330 0.944508 0.714073 0.121469
C16   C     C_R   0.992404 0.972886 0.642122 -0.150363
C17   C     C_R   0.951578 0.911955 0.580425 -0.053479
C18   C     C_R   0.007990 0.819833 0.589121 -0.157309
H1    H     H_    0.307193 0.474875 0.875202 0.133445
H2    H     H_    0.371081 0.592655 0.976821 0.133545
H3    H     H_    0.278521 0.748288 0.952393 0.120946
H4    H     H_    0.965694 0.044751 0.632403 0.152936
C19   C     C_2   0.991563 0.692302 0.270700 -0.147789
C20   C     C_2   0.154971 0.670596 0.310124 -0.252800
H5    H     H_    0.857310 0.662470 0.292273 0.175142
H6    H     H_    0.293033 0.694967 0.287571 0.161135
C21   C     C_2   0.983067 0.749177 0.194632 -0.000562
C22   C     C_2   0.119202 0.812592 0.176634 -0.337477
H7    H     H_    0.242414 0.819753 0.216171 0.160232
C23   C     C_2   0.777549 0.200878 0.774690 -0.128098
C24   C     C_2   0.613454 0.175117 0.812974 -0.303214
H8    H     H_    0.914236 0.174061 0.795393 0.137404
H9    H     H_    0.474689 0.198780 0.791796 0.133076
C25   C     C_2   0.786004 0.263688 0.703296 -0.112898
C26   C     C_2   0.638651 0.317120 0.679951 -0.255884
H10   H     H_    0.921930 0.266630 0.669864 0.121541
H11   H     H_    0.501251 0.313315 0.711574 0.158767
C27   C     C_2   0.772718 0.195279 0.222597 -0.167671
C28   C     C_2   0.609692 0.176466 0.181777 -0.322177
H12   H     H_    0.905630 0.162290 0.202126 0.170009
H13   H     H_    0.472027 0.203779 0.202806 0.168419
C29   C     C_2   0.783708 0.252464 0.298773 0.004425
C30   C     C_2   0.646223 0.315455 0.318892 -0.343191
H14   H     H_    0.520223 0.322430 0.280884 0.147282
O11   O     O_R   0.770210 0.079270 0.910680 -0.545306
O12   O     O_R   0.440150 0.091160 0.082270 -0.541660
O13   O     O_R   0.269970 0.914530 0.082860 -0.538474
C31   C     C_R   0.607304 0.112278 0.111369 0.759248
O14   O     O_R   0.440480 0.090100 0.911240 -0.547980
O15   O     O_R   0.270310 0.913460 0.910610 -0.549650
C32   C     C_R   0.609344 0.110770 0.882334 0.740412
O16   O     O_R   0.769870 0.080340 0.082930 -0.540140
O17   O     O_3   0.603660 0.938980 0.996790 -0.366448
V3    V     V_3+5 0.328750 0.007610 0.996740 1.423898
O18   O     O_R   0.940600 0.902510 0.911180 -0.531736
C33   C     C_R   0.112149 0.880562 0.883445 0.717277
O19   O     O_R   0.940270 0.903570 0.082200 -0.525828
C34   C     C_R   0.108781 0.879502 0.108602 0.777172
V4    V     V_3+5 0.828770 0.986010 0.996670 1.462427
O20   O     O_3   0.103730 0.054750 0.996710 -0.379953
C35   C     C_2   0.865931 0.949285 0.503936 0.794482
O21   O     O_2   0.911555 0.024874 0.479828 -0.546670
O22   O     O_R   0.729367 0.899735 0.460815 -0.645945
H15   H     H_    0.682004 0.932859 0.410441 0.314045
C36   C     C_2   0.818734 0.731780 0.139314 0.770718
O23   O     O_2   0.658668 0.716365 0.168321 -0.580365
O24   O     O_R   0.848623 0.729046 0.054268 -0.662194
H16   H     H_    0.726087 0.715971 0.023394 0.289619
C37   C     C_2   0.952258 0.235409 0.352095 0.816171
O25   O     O_2   0.111223 0.220593 0.321206 -0.579229
O26   O     O_R   0.927856 0.232355 0.437388 -0.643110
H17   H     H_    0.052960 0.219707 0.466766 0.303293
C38   C     C_2   0.111319 0.492804 0.740255 0.729226
O27   O     O_2   0.937210 0.493342 0.730018 -0.552842
O28   O     O_R   0.223440 0.418521 0.715826 -0.677572
H18   H     H_    0.148405 0.372348 0.683682 0.279221
C39   C     C_3   0.174356 0.018384 0.762662 -0.740224
H19   H     H_    0.322442 0.996352 0.778391 0.213930
H20   H     H_    0.192167 0.081741 0.726450 0.179600
H21   H     H_    0.088288 0.036907 0.817943 0.211814
C40   C     C_2   0.009961 0.766995 0.513537 0.788720
O29   O     O_2   0.154594 0.768385 0.470230 -0.544928
O30   O     O_R   0.842736 0.725289 0.486240 -0.607916
H22   H     H_    0.731120 0.731862 0.526769 0.288990

loop_
_geom_bond_atom_site_label_1
_geom_bond_atom_site_label_2
_ccdc_geom_bond_type
C30   H14   S    
C40   O29   D    
C35   O21   D    
O2    C1    A    
O30   H22   S    
C12   C15   A    
C2    C30   S    
C1    O6    A    
C37   O25   D    
C24   C32   S    
C26   H11   S    
C36   O23   D    
C27   C29   S    
C22   C34   S    
C5    C38   S    
C21   C36   S    
C16   C17   A    
C19   H5    S    
C18   C40   S    
O13   V3    S    
C38   O27   D    
C17   C35   S    
O12   C31   A    
V2    O10   S    
O14   C32   A    
C6    C7    A    
C23   C25   S    
O16   V4    S    
O19   V4    S    
C25   C26   D    
O8    V2    S    
O14   V3    S    
O12   V3    S    
V3    O20   S    
C7    C8    A    
C27   H12   S    
C11   C12   A    
O1    V2    S    
C3    C20   S    
O7    V1    S    
C38   O28   S    
C16   H4    S    
C40   O30   S    
O9    C4    A    
C35   O22   S    
C23   H8    S    
C7    H2    S    
C37   O26   S    
O11   C32   A    
C36   O24   S    
C25   H10   S    
O15   V3    S    
O18   C33   A    
C12   C13   A    
C21   C22   D    
O4    C2    A    
C27   C28   D    
C13   C14   A    
O17   V4    S    
O11   V4    S    
C28   H13   S    
C19   C20   D    
C11   C33   S    
C19   C21   S    
O22   H15   S    
C17   C18   A    
O26   H17   S    
C5    C6    A    
C4    C14   S    
C39   H21   S    
C24   H9    S    
O3    C4    A    
C8    H3    S    
C22   H7    S    
O6    V2    S    
O9    V2    S    
C39   H20   S    
C23   C24   D    
O2    V1    S    
C13   C18   A    
C29   C30   D    
O1    C2    A    
O5    V1    S    
O8    C3    A    
C28   C31   S    
C5    C10   A    
O15   C33   A    
C31   O16   A    
C9    C11   A    
O7    V2    S    
O4    V1    S    
O3    V1    S    
V1    O10   S    
O5    C3    A    
C20   H6    S    
C15   C39   S    
O18   V4    S    
O19   C34   A    
O13   C34   A    
O24   H16   S    
V4    O20   S    
C8    C9    A    
O28   H18   S    
O17   V3    S    
C10   C14   A    
C15   C16   A    
C6    H1    S    
C39   H19   S    
C9    C10   A    
C29   C37   S    
C1    C26   S    
