data_mof_unit_2044.cif
_audit_creation_date              2012-12-11T14:43:37-0500
_audit_creation_method            fapswitch 2.2
_symmetry_space_group_name_H-M    P1
_symmetry_Int_Tables_number       1
_space_group_crystal_system       triclinic
_cell_length_a                    8.272457
_cell_length_b                    15.085221
_cell_length_c                    18.87541
_cell_angle_alpha                 97.223499
_cell_angle_beta                  92.875178
_cell_angle_gamma                 99.383848
_cell_volume                      2299.51548773

loop_
_atom_site_label
_atom_site_type_symbol
_atom_type_description
_atom_site_fract_x
_atom_site_fract_y
_atom_site_fract_z
_atom_type_partial_charge
Ba1   Ba    Ba6+2 0.852920 0.542430 0.466290 1.689594
Ba2   Ba    Ba6+2 0.336920 0.457650 0.533720 1.667688
C1    C     C_3   0.772294 0.824949 0.208483 -0.131693
C2    C     C_3   0.699191 0.760717 0.259494 0.331996
C3    C     C_3   0.431916 0.320090 0.317350 0.250358
C4    C     C_3   0.346503 0.285071 0.243370 -0.325399
C5    C     C_3   0.012725 0.236962 0.730649 0.256498
C6    C     C_3   0.097846 0.272337 0.805384 -0.182361
C7    C     C_3   0.610659 0.236878 0.746310 0.338012
C8    C     C_3   0.557487 0.144241 0.773028 -0.142446
C9    C     C_2   0.281825 0.540729 0.301578 -0.210606
C10   C     C_3   0.390008 0.599419 0.257948 -0.065788
C11   C     C_2   0.344612 0.581276 0.178354 -0.083016
C12   C     C_3   0.231806 0.828980 0.290691 0.358747
C13   C     C_2   0.206402 0.524430 0.151056 -0.068741
C14   C     C_2   0.107074 0.470341 0.201565 -0.068173
C15   C     C_1   0.149477 0.483785 0.272582 0.018010
C16   C     C_R   0.039213 0.515651 0.932527 0.508331
C17   C     C_R   0.149678 0.520377 0.072999 0.475462
C18   C     C_R   0.084972 0.536467 0.802300 -0.127349
C19   C     C_R   0.033140 0.521928 0.728561 0.080473
C20   C     C_R   0.764828 0.447616 0.756274 -0.095442
C21   C     C_R   0.811043 0.468444 0.830492 -0.095438
C22   C     C_R   0.977215 0.507556 0.854489 -0.092863
C23   C     C_3   0.254816 0.931919 0.290870 -0.358979
C24   C     C_R   0.877227 0.472904 0.706497 -0.269943
C25   C     C_R   0.755407 0.234098 0.533325 -0.252560
C26   C     C_R   0.846473 0.176256 0.563872 -0.065258
C27   C     C_R   0.780023 0.083047 0.560086 -0.075474
C28   C     C_R   0.635740 0.045168 0.513257 -0.016946
C29   C     C_R   0.558298 0.105926 0.477246 -0.112596
C30   C     C_R   0.612818 0.199403 0.489532 0.030804
C31   C     C_R   0.399229 0.913765 0.471153 -0.134983
C32   C     C_R   0.336190 0.820854 0.454914 -0.009518
C33   C     C_R   0.584785 0.785955 0.508324 0.068328
C34   C     C_3   0.263458 0.735086 0.625075 0.303723
C35   C     C_R   0.657486 0.876929 0.513235 -0.085899
C36   C     C_R   0.564512 0.944433 0.499025 0.017708
C37   C     C_R   0.428747 0.757386 0.474524 -0.285988
C38   C     C_3   0.317063 0.835858 0.650041 -0.370847
C39   C     C_3   0.896405 0.253405 0.350426 0.299831
C40   C     C_3   0.994168 0.218059 0.407492 -0.318998
C41   C     C_3   0.743011 0.664929 0.682920 0.288186
C42   C     C_3   0.765953 0.694524 0.763351 -0.346879
H1    H     H_    0.744081 0.789068 0.315626 0.065037
H2    H     H_    0.408934 0.846445 0.696612 0.151833
H3    H     H_    0.373565 0.869917 0.606736 0.068771
H4    H     H_    0.209150 0.866971 0.665807 0.135108
H5    H     H_    0.807812 0.293128 0.375375 0.028588
H6    H     H_    0.918868 0.160613 0.428209 0.045298
H7    H     H_    0.035989 0.274102 0.451468 0.138802
H8    H     H_    0.100739 0.191979 0.384213 0.142010
H9    H     H_    0.859540 0.647614 0.663695 0.010837
H10   H     H_    0.644143 0.604576 0.671844 0.054080
H11   H     H_    0.906410 0.844139 0.220549 0.083906
H12   H     H_    0.865275 0.754515 0.775729 0.138969
H13   H     H_    0.799700 0.639238 0.791206 0.072266
H14   H     H_    0.649947 0.712352 0.783566 0.142536
H15   H     H_    0.563970 0.756866 0.253814 -0.070938
H16   H     H_    0.343613 0.352411 0.349833 0.037898
H17   H     H_    0.540415 0.371968 0.312507 0.083930
H18   H     H_    0.233497 0.235783 0.247848 0.146759
H19   H     H_    0.314052 0.342566 0.217834 0.088385
H20   H     H_    0.426534 0.250707 0.208029 0.128566
H21   H     H_    0.749097 0.790271 0.152476 0.117987
H22   H     H_    0.375298 0.957248 0.270921 0.135732
H23   H     H_    0.950499 0.291647 0.713409 -0.068455
H24   H     H_    0.919027 0.175709 0.732170 0.011341
H25   H     H_    0.116665 0.347571 0.813796 0.071370
H26   H     H_    0.220891 0.253271 0.810142 0.173416
H27   H     H_    0.714466 0.275066 0.783163 -0.026853
H28   H     H_    0.654826 0.225121 0.691797 -0.073864
H29   H     H_    0.656361 0.103759 0.761719 0.098384
H30   H     H_    0.418130 0.622144 0.144322 0.120163
H31   H     H_    0.208299 0.571793 0.818893 0.117463
H32   H     H_    0.310619 0.552946 0.359027 0.064247
H33   H     H_    0.838639 0.460176 0.649995 0.063255
H34   H     H_    0.316320 0.960491 0.463543 0.078564
H35   H     H_    0.785985 0.892333 0.529236 0.122835
H36   H     H_    0.343498 0.811233 0.316717 -0.126325
H37   H     H_    0.456512 0.081900 0.437836 0.068319
H38   H     H_    0.375509 0.686164 0.467558 0.062274
H39   H     H_    0.803604 0.305903 0.538310 0.060731
H40   H     H_    0.155959 0.950386 0.256511 0.099923
H41   H     H_    0.250393 0.966863 0.345707 0.092809
H42   H     H_    0.371917 0.705470 0.609156 0.015429
H43   H     H_    0.170902 0.725641 0.578858 0.050613
N1    N     N_R   0.198127 0.550889 0.955709 -0.232749
N2    N     N_R   0.251763 0.553521 0.024287 -0.232463
N3    N     N_R   0.991506 0.486105 0.049782 -0.194520
N4    N     N_R   0.938636 0.483237 0.981601 -0.180296
O1    O     O_2   0.864880 0.449170 0.328210 -0.433908
O2    O     O_3   0.700876 0.737085 0.650401 -0.625936
O3    O     O_3   0.086685 0.800605 0.323958 -0.580197
O4    O     O_2   0.324830 0.550860 0.671840 -0.461137
O5    O     O_3   0.072140 0.549400 0.584410 -0.501552
O6    O     O_3   0.531230 0.386060 0.627150 -0.466377
O7    O     O_3   0.195728 0.695553 0.682118 -0.633314
O8    O     O_3   0.606300 0.390910 0.463140 -0.481828
O9    O     O_3   0.106650 0.339290 0.591370 -0.469233
O10   O     O_2   0.184096 0.180340 0.549014 -0.454314
O11   O     O_3   0.129454 0.212532 0.683729 -0.553462
O12   O     O_3   0.117570 0.450680 0.415600 -0.499393
O13   O     O_3   0.583420 0.609160 0.536870 -0.498536
O14   O     O_2   0.332740 0.278830 0.463690 -0.458320
O15   O     O_3   0.483799 0.247898 0.347412 -0.656622
O16   O     O_2   0.428273 0.451261 0.750826 -0.462374
O17   O     O_3   0.480489 0.286086 0.744488 -0.542281
O18   O     O_3   0.658480 0.614010 0.372860 -0.483377
O19   O     O_2   0.651895 0.502531 0.250982 -0.433122
O20   O     O_3   0.006999 0.304953 0.311530 -0.647927
O21   O     O_3   0.745666 0.675207 0.242179 -0.532574
O22   O     O_2   0.856970 0.721200 0.536350 -0.460872
O23   O     O_3   0.083060 0.660780 0.408640 -0.461622
O24   O     O_2   0.998096 0.819088 0.454411 -0.472692
P1    P     P_3+3 0.032340 0.422550 0.338860 0.997140
P2    P     P_3+3 0.682000 0.708060 0.557320 0.994464
P3    P     P_3+3 0.128992 0.778526 0.411474 0.993676
P4    P     P_3+3 0.157370 0.577530 0.661150 0.990197
P5    P     P_3+3 0.063433 0.223982 0.596671 1.021530
P6    P     P_3+3 0.610866 0.595901 0.280400 1.008387
P7    P     P_3+3 0.512193 0.276746 0.440456 0.933280
P8    P     P_3+3 0.553531 0.393529 0.720585 1.021301
C43   C     C_3   0.801885 0.171049 0.299932 -0.181485
C44   C     C_3   0.734415 0.196858 0.230373 -0.274701
H44   H     H_    0.693289 0.263070 0.240583 0.169681
H45   H     H_    0.831285 0.201424 0.191889 0.143885
H46   H     H_    0.629263 0.144749 0.206372 0.101854
H47   H     H_    0.883965 0.120879 0.285986 0.139253
H48   H     H_    0.698761 0.137293 0.327855 0.120300
C45   C     C_2   0.698027 0.909506 0.215147 0.817852
O25   O     O_2   0.707069 0.957274 0.273000 -0.661940
O26   O     O_R   0.617870 0.932771 0.155014 -0.692210
H49   H     H_    0.567145 0.989140 0.166403 0.313688
C46   C     C_2   0.001459 0.235883 0.863693 0.850328
O27   O     O_2   0.986042 0.155183 0.869519 -0.546461
O28   O     O_R   0.933030 0.294588 0.912011 -0.735133
H50   H     H_    0.873753 0.262599 0.949811 0.344997
C47   C     C_3   0.396747 0.088474 0.735207 -0.195509
C48   C     C_3   0.402185 0.072417 0.654168 -0.351966
H51   H     H_    0.506238 0.038252 0.640403 0.152791
H52   H     H_    0.289523 0.027096 0.629932 0.186601
H53   H     H_    0.413595 0.136972 0.631085 0.177846
H54   H     H_    0.375098 0.021214 0.754657 0.112081
H55   H     H_    0.290821 0.121653 0.749190 0.191064
C49   C     C_2   0.215088 0.782294 0.214571 0.828956
O29   O     O_2   0.322807 0.801136 0.174240 -0.614632
O30   O     O_R   0.076957 0.717072 0.190050 -0.714009
H56   H     H_    0.076696 0.693685 0.137307 0.312970
C50   C     C_2   0.544082 0.154868 0.852997 0.916227
O31   O     O_2   0.447522 0.199739 0.880411 -0.549840
O32   O     O_R   0.639654 0.110811 0.895496 -0.715809
H57   H     H_    0.619615 0.122325 0.948150 0.324641
C51   C     C_2   0.988662 0.389685 0.168930 0.874773
O33   O     O_2   0.843011 0.384717 0.178801 -0.573734
O34   O     O_R   0.042612 0.323260 0.121856 -0.752123
H58   H     H_    0.949254 0.274903 0.098277 0.316009
C52   C     C_2   0.681140 0.459077 0.881486 0.926427
O35   O     O_2   0.604665 0.384405 0.887669 -0.550327
O36   O     O_R   0.647020 0.536565 0.922764 -0.740520
H59   H     H_    0.556754 0.521945 0.955984 0.342558
C53   C     C_2   0.857718 0.030019 0.608764 0.801113
O37   O     O_2   0.999903 0.019917 0.602687 -0.619564
O38   O     O_R   0.767060 0.988349 0.659674 -0.786073
H60   H     H_    0.833367 0.952823 0.688702 0.329599

loop_
_geom_bond_atom_site_label_1
_geom_bond_atom_site_label_2
_ccdc_geom_bond_type
C32   P3    S    
C38   H3    S    
C19   C24   A    
C39   C40   S    
O5    P4    S    
C33   C37   A    
C7    H28   S    
O16   P8    D    
Ba1   O8    S    
O26   H49   S    
C20   P8    S    
C7    O17   S    
C13   C17   S    
C35   H35   S    
C6    H25   S    
C35   C36   A    
Ba1   O22   S    
C16   C22   S    
C16   N4    A    
C39   C43   S    
O38   H60   S    
C33   C35   A    
C48   H52   S    
C53   O37   D    
C9    H32   S    
O19   P6    D    
C28   C29   A    
C8    H29   S    
C31   H34   S    
C47   H55   S    
Ba1   O23   S    
C13   C14   S    
C21   C52   S    
C49   O30   S    
C28   C36   S    
C46   O28   S    
Ba1   Ba2   S    
C4    H20   S    
Ba1   O18   S    
C5    H24   S    
C1    H11   S    
C41   H9    S    
C9    C15   D    
C10   P6    S    
C18   C22   A    
Ba2   O6    S    
C42   H14   S    
C14   C15   D    
C5    O11   S    
C43   H47   S    
C44   H46   S    
C21   C22   A    
C48   H53   S    
O20   P1    S    
O9    P5    S    
Ba1   P1    S    
C12   H36   S    
C7    C8    S    
Ba1   O12   S    
C51   O34   S    
C40   H7    S    
C3    O15   S    
C46   O27   D    
C2    O21   S    
Ba2   O9    S    
C6    C46   S    
C52   O36   S    
C1    H21   S    
O2    P2    S    
C39   H5    S    
C53   O38   S    
C2    H1    S    
C34   H43   S    
C24   H33   S    
C43   H48   S    
C32   C37   A    
C30   P7    S    
C34   C38   S    
C48   H51   S    
C26   P5    S    
O4    P4    D    
C16   N1    A    
C18   H31   S    
O34   H58   S    
C4    H19   S    
C38   H2    S    
C41   C42   S    
C27   C28   A    
C17   N2    A    
C23   H40   S    
C2    H15   S    
C47   H54   S    
C42   H12   S    
C41   H10   S    
C29   C30   A    
Ba2   O13   S    
C42   H13   S    
C47   C48   S    
O24   P3    D    
O15   P7    S    
C23   H41   S    
C31   C32   A    
C3    H17   S    
Ba1   P2    S    
C10   C11   S    
O1    P1    D    
Ba1   O13   S    
O7    P4    S    
C51   O33   D    
O23   P3    S    
C40   H6    S    
O8    P7    S    
O22   P2    D    
O6    P8    S    
Ba2   O8    S    
Ba1   O1    S    
C11   C13   D    
C52   O35   D    
C39   O20   S    
C44   H44   S    
C1    C45   S    
C33   P2    S    
C8    C47   S    
O17   P8    S    
C45   O25   D    
O11   P5    S    
C49   O29   D    
C38   H4    S    
C12   C49   S    
C26   C27   A    
C3    H16   S    
C25   C30   A    
C20   C21   A    
O10   P5    D    
C27   C53   S    
C23   H22   S    
C7    H27   S    
C37   H38   S    
C45   O26   S    
Ba2   O4    S    
C9    C10   S    
O28   H50   S    
O13   P2    S    
Ba2   O14   S    
C6    H26   S    
C31   C36   A    
C29   H37   S    
C34   H42   S    
O36   H59   S    
C4    H18   S    
Ba2   O5    S    
O12   P1    S    
O21   P6    S    
C19   P4    S    
C17   N3    A    
C8    C50   S    
C14   C51   S    
O3    P3    S    
O18   P6    S    
N3    N4    A    
C3    C4    S    
Ba2   O12   S    
Ba1   O5    S    
Ba2   P4    S    
C25   H39   S    
C41   O2    S    
O14   P7    D    
C50   O32   S    
O30   H56   S    
C12   C23   S    
C5    C6    S    
C5    H23   S    
N1    N2    A    
C11   H30   S    
C18   C19   A    
C20   C24   A    
C25   C26   A    
C44   H45   S    
C50   O31   D    
C34   O7    S    
O32   H57   S    
C12   O3    S    
C1    C2    S    
C15   P1    S    
C40   H8    S    
C43   C44   S    
