data_mof_unit_3426.cif
_audit_creation_date              2012-12-11T16:28:01-0500
_audit_creation_method            fapswitch 2.2
_symmetry_space_group_name_H-M    P1
_symmetry_Int_Tables_number       1
_space_group_crystal_system       triclinic
_cell_length_a                    30.177328
_cell_length_b                    22.48211
_cell_length_c                    18.03409
_cell_angle_alpha                 90.234603
_cell_angle_beta                  123.10626
_cell_angle_gamma                 90.151422
_cell_volume                      10248.6900424

loop_
_atom_site_label
_atom_site_type_symbol
_atom_type_description
_atom_site_fract_x
_atom_site_fract_y
_atom_site_fract_z
_atom_type_partial_charge
C1    C     C_R   0.532560 0.607496 0.707939 -0.086498
C2    C     C_R   0.636444 0.284528 0.421445 -0.136264
C3    C     C_R   0.738676 0.778583 0.826457 0.532449
C4    C     C_R   0.250995 0.754468 0.862645 0.526663
C5    C     C_R   0.757821 0.269477 0.161498 0.532552
C6    C     C_R   0.702284 0.882646 0.944437 0.528939
C7    C     C_R   0.295556 0.119847 0.052621 0.528358
C8    C     C_R   0.847458 0.358486 0.082167 -0.365505
C9    C     C_R   0.157916 0.648949 0.918469 -0.366299
C10   C     C_R   0.205398 0.213727 0.127672 -0.367453
C11   C     C_R   0.792762 0.790578 0.868341 -0.367591
C12   C     C_R   0.304854 0.742576 0.902556 -0.366968
C13   C     C_R   0.680808 0.640414 0.415407 -0.160922
C14   C     C_R   0.704161 0.282534 0.122105 -0.367558
C15   C     C_R   0.648471 0.867396 0.904276 -0.362870
C16   C     C_R   0.348829 0.136306 0.089825 -0.363082
C17   C     C_R   0.593854 0.582947 0.424119 -0.112423
C18   C     C_R   0.404517 0.418181 0.574094 -0.112319
C19   C     C_R   0.405195 0.581576 0.575179 -0.115823
C20   C     C_R   0.581399 0.394942 0.425910 -0.108484
C21   C     C_R   0.081032 0.106990 0.428072 -0.125218
C22   C     C_R   0.920850 0.892839 0.573690 -0.119205
C23   C     C_R   0.906203 0.083009 0.575985 -0.118572
C24   C     C_R   0.303436 0.401219 0.572311 -0.155431
C25   C     C_R   0.076851 0.892295 0.423840 -0.126832
C26   C     C_R   0.385519 0.592546 0.265921 -0.152107
C27   C     C_R   0.616029 0.412889 0.739577 -0.169407
C28   C     C_R   0.606016 0.609269 0.705581 -0.141968
C29   C     C_R   0.391517 0.393583 0.288147 -0.142095
C30   C     C_R   0.890875 0.104815 0.285695 -0.138454
C31   C     C_R   0.113014 0.903472 0.728721 -0.148944
C32   C     C_R   0.116413 0.086414 0.740874 -0.165547
C33   C     C_R   0.883071 0.914285 0.258833 -0.171644
C34   C     C_R   0.577622 0.641555 0.732691 0.106753
C35   C     C_R   0.819088 0.140024 0.584549 -0.160939
C36   C     C_R   0.417612 0.363969 0.254696 0.106012
C37   C     C_R   0.409381 0.612924 0.222119 0.115038
C38   C     C_R   0.593301 0.394396 0.785929 0.112824
C39   C     C_R   0.093923 0.104449 0.787794 0.113525
C40   C     C_R   0.904759 0.897340 0.210455 0.119275
C41   C     C_R   0.916650 0.133421 0.250755 0.106261
C42   C     C_R   0.087648 0.876635 0.765480 0.103323
C43   C     C_R   0.643811 0.596444 0.495873 0.040445
C44   C     C_R   0.354604 0.404828 0.500634 0.041615
C45   C     C_R   0.355603 0.595413 0.503101 0.040860
C46   C     C_R   0.133343 0.783258 0.418286 -0.148124
C47   C     C_R   0.618244 0.362495 0.498970 0.034778
C48   C     C_R   0.118865 0.138416 0.503137 0.033888
C49   C     C_R   0.884151 0.859946 0.500168 0.034759
C50   C     C_R   0.856412 0.096490 0.504150 0.038491
C51   C     C_R   0.114605 0.860241 0.496144 0.036746
C52   C     C_R   0.215039 0.619082 0.436072 -0.173978
C53   C     C_R   0.681067 0.211897 0.570776 -0.177670
C54   C     C_R   0.783797 0.617708 0.557657 -0.178772
C55   C     C_R   0.220190 0.344294 0.421977 -0.166142
C56   C     C_R   0.716239 0.119251 0.439278 -0.177721
C57   C     C_R   0.112953 0.237172 0.436627 -0.163969
C58   C     C_R   0.178394 0.710130 0.567204 -0.169841
C59   C     C_R   0.212237 0.268359 0.583927 -0.155361
C60   C     C_R   0.818545 0.709806 0.425076 -0.178355
C61   C     C_R   0.258127 0.597588 0.435729 -0.159757
C62   C     C_R   0.658156 0.265645 0.570021 -0.157689
C63   C     C_R   0.740938 0.597372 0.559834 -0.163975
C64   C     C_R   0.263440 0.364885 0.421946 -0.163503
C65   C     C_R   0.759137 0.098142 0.438162 -0.163419
C66   C     C_R   0.154125 0.763004 0.565922 -0.154953
C67   C     C_R   0.189375 0.214449 0.582233 -0.162808
C68   C     C_R   0.867887 0.780549 0.577873 -0.144193
C69   C     C_R   0.842315 0.763308 0.426596 -0.159331
C70   C     C_R   0.309760 0.610048 0.507303 0.133942
C71   C     C_R   0.637989 0.303562 0.496907 0.145768
C72   C     C_R   0.689218 0.611136 0.490447 0.138086
C73   C     C_R   0.306574 0.390676 0.498584 0.138371
C74   C     C_R   0.810871 0.111145 0.509013 0.138932
C75   C     C_R   0.133982 0.801266 0.493290 0.123639
C76   C     C_R   0.140695 0.197327 0.506963 0.140427
C77   C     C_R   0.864738 0.800434 0.501554 0.143852
C78   C     C_R   0.274656 0.660208 0.583056 -0.161007
C79   C     C_R   0.659363 0.231010 0.422271 -0.170904
C80   C     C_R   0.723486 0.660828 0.413362 -0.159781
C81   C     C_R   0.462743 0.397655 0.280077 -0.084022
C82   C     C_R   0.259907 0.380534 0.572321 -0.174504
C83   C     C_R   0.776341 0.161144 0.585587 -0.159459
C84   C     C_R   0.157368 0.730484 0.419365 -0.157883
C85   C     C_R   0.135836 0.291419 0.438361 -0.181784
C86   C     C_R   0.844125 0.727331 0.576278 -0.169450
C87   C     C_R   0.223303 0.653558 0.507638 0.115872
C88   C     C_R   0.684375 0.195917 0.498738 0.115345
C89   C     C_R   0.775232 0.652560 0.486648 0.117134
C90   C     C_R   0.219645 0.348599 0.499048 0.114829
C91   C     C_R   0.724827 0.153998 0.510778 0.117189
C92   C     C_R   0.459992 0.589654 0.266611 -0.059909
C93   C     C_R   0.182563 0.695166 0.495651 0.102943
C94   C     C_R   0.186931 0.305835 0.510084 0.117491
C95   C     C_R   0.816579 0.693341 0.498176 0.115617
C96   C     C_R   0.383474 0.643317 0.135890 -0.016294
C97   C     C_R   0.621156 0.368869 0.876455 -0.013333
C98   C     C_R   0.592496 0.702058 0.773710 0.001492
C99   C     C_R   0.402278 0.304598 0.210901 0.001103
C100  C     C_R   0.900526 0.191388 0.203839 0.003693
C101  C     C_R   0.104840 0.820507 0.816102 0.002367
C102  C     C_R   0.121967 0.128854 0.879401 -0.014306
C103  C     C_R   0.541423 0.414301 0.737416 -0.059832
C104  C     C_R   0.876246 0.873136 0.118592 -0.015372
C105  C     C_R   0.385920 0.704855 0.027748 -0.345950
C106  C     C_R   0.621979 0.316934 0.995369 -0.343980
C107  C     C_R   0.576621 0.795536 0.824485 -0.348243
C108  C     C_R   0.419173 0.210540 0.163067 -0.348147
C109  C     C_R   0.916630 0.284000 0.152127 -0.348092
C110  C     C_R   0.087838 0.722770 0.853744 -0.350131
C111  C     C_R   0.122994 0.180295 0.999318 -0.342074
C112  C     C_R   0.875064 0.822571 0.997990 -0.342265
C113  C     C_R   0.412824 0.675548 0.109387 0.534727
C114  C     C_R   0.041788 0.085041 0.738389 -0.061662
C115  C     C_R   0.593427 0.342039 0.910563 0.533191
C116  C     C_R   0.557820 0.739823 0.781659 0.537519
C117  C     C_R   0.437237 0.267031 0.203404 0.539384
C118  C     C_R   0.934643 0.227980 0.192544 0.534261
C119  C     C_R   0.069464 0.779810 0.817639 0.540041
C120  C     C_R   0.094379 0.156004 0.913557 0.533458
C121  C     C_R   0.903728 0.846420 0.083974 0.533537
C122  C     C_R   0.328338 0.640329 0.079956 -0.258292
C123  C     C_R   0.676669 0.369961 0.928488 -0.258736
C124  C     C_R   0.643460 0.722888 0.803671 -0.240601
C125  C     C_R   0.956832 0.917038 0.259275 -0.077474
C126  C     C_R   0.351834 0.283265 0.182702 -0.244734
C127  C     C_R   0.850317 0.212635 0.176555 -0.244773
C128  C     C_R   0.156741 0.803005 0.849899 -0.256453
C129  C     C_R   0.177430 0.126476 0.932387 -0.258657
C130  C     C_R   0.820679 0.875005 0.066019 -0.259320
C131  C     C_R   0.301061 0.670723 0.999403 0.123001
C132  C     C_R   0.705520 0.343988 0.012665 0.121343
C133  C     C_R   0.660316 0.780323 0.837699 0.120476
C134  C     C_R   0.336137 0.224991 0.152484 0.121367
C135  C     C_R   0.834519 0.270455 0.145304 0.118761
C136  C     C_R   0.962376 0.100657 0.278220 -0.094201
C137  C     C_R   0.172460 0.744164 0.872735 0.115098
C138  C     C_R   0.206401 0.152051 0.017385 0.122351
C139  C     C_R   0.791589 0.850153 0.980314 0.122464
C140  C     C_R   0.330674 0.705056 0.975400 0.105545
C141  C     C_R   0.677211 0.315408 0.044256 0.106976
C142  C     C_R   0.628179 0.814818 0.855081 0.106215
C143  C     C_R   0.368336 0.190250 0.135440 0.106247
C144  C     C_R   0.866474 0.304645 0.126872 0.107329
C145  C     C_R   0.139204 0.705021 0.881641 0.108240
C146  C     C_R   0.178237 0.181001 0.049038 0.106575
C147  C     C_R   0.039399 0.904999 0.729118 -0.080556
C148  C     C_R   0.819819 0.822008 0.948141 0.105881
C149  C     C_R   0.245133 0.675102 0.949141 -0.088965
C150  C     C_R   0.761470 0.338533 0.060620 -0.088528
C151  C     C_R   0.711188 0.801086 0.863953 -0.092702
C152  C     C_R   0.286279 0.203265 0.129879 -0.091267
C153  C     C_R   0.784930 0.292343 0.123508 -0.090224
C154  C     C_R   0.222561 0.725148 0.893943 -0.088047
C155  C     C_R   0.262473 0.157032 0.066226 -0.088494
C156  C     C_R   0.735350 0.845764 0.930363 -0.089164
C157  C     C_R   0.644687 0.581007 0.571035 -0.111545
C158  C     C_R   0.317599 0.638735 0.582754 -0.163831
C159  C     C_R   0.355256 0.419321 0.427095 -0.114272
C160  C     C_R   0.355494 0.581204 0.428158 -0.117387
C161  C     C_R   0.628832 0.393705 0.573419 -0.128320
C162  C     C_R   0.129365 0.105938 0.575590 -0.115499
C163  C     C_R   0.872329 0.892215 0.426115 -0.124684
C164  C     C_R   0.855602 0.081216 0.428868 -0.106248
C165  C     C_R   0.128224 0.892929 0.571326 -0.127283
C166  C     C_R   0.794711 0.375453 0.046901 0.527742
C167  C     C_R   0.211139 0.633781 0.954390 0.525349
C168  C     C_R   0.259235 0.226545 0.167725 0.533659
H1    H     H_    0.501701 0.617824 0.718772 0.161222
H2    H     H_    0.306735 0.618058 0.103388 0.190640
H3    H     H_    0.736561 0.736026 0.729915 0.312551
H4    H     H_    0.250581 0.807737 0.777011 0.307664
H5    H     H_    0.760227 0.225530 0.256806 0.311559
H6    H     H_    0.693373 0.955833 0.993315 0.312971
H7    H     H_    0.305009 0.045479 0.006909 0.313687
H8    H     H_    0.323283 0.313335 0.180150 0.172730
H9    H     H_    0.671914 0.692720 0.806272 0.173361
H10   H     H_    0.185348 0.835886 0.858636 0.183085
H11   H     H_    0.822080 0.182736 0.175650 0.176254
H12   H     H_    0.800276 0.891801 0.095219 0.191115
H13   H     H_    0.198004 0.108995 0.903905 0.190176
H14   H     H_    0.408047 0.731051 0.008113 0.134440
H15   H     H_    0.600905 0.295078 0.020835 0.133781
H16   H     H_    0.551222 0.823480 0.834845 0.136011
H17   H     H_    0.488218 0.392054 0.256211 0.144814
H18   H     H_    0.444716 0.182554 0.153112 0.135284
H19   H     H_    0.941703 0.311369 0.140135 0.133326
H20   H     H_    0.061742 0.691893 0.858191 0.134708
H21   H     H_    0.102061 0.202419 0.024856 0.133997
H22   H     H_    0.895997 0.800961 0.972059 0.133679
H23   H     H_    0.679326 0.577566 0.637519 0.088270
H24   H     H_    0.321067 0.424439 0.360461 0.086131
H25   H     H_    0.321455 0.578655 0.360875 0.086772
H26   H     H_    0.656855 0.382173 0.641606 0.095350
H27   H     H_    0.156824 0.117027 0.644355 0.094776
H28   H     H_    0.486982 0.588631 0.244897 0.142794
H29   H     H_    0.844440 0.880237 0.357794 0.095329
H30   H     H_    0.821131 0.077950 0.362108 0.088451
H31   H     H_    0.158883 0.881896 0.638104 0.116932
H32   H     H_    0.582096 0.580007 0.355825 0.094352
H33   H     H_    0.415795 0.420254 0.642167 0.093969
H34   H     H_    0.415900 0.577415 0.642752 0.087231
H35   H     H_    0.567732 0.385488 0.358320 0.108674
H36   H     H_    0.067263 0.118356 0.361042 0.116444
H37   H     H_    0.936775 0.881672 0.641450 0.117886
H38   H     H_    0.917851 0.080265 0.644202 0.097708
H39   H     H_    0.514318 0.417161 0.758721 0.149900
H40   H     H_    0.057548 0.879962 0.355044 0.117285
H41   H     H_    0.344658 0.596726 0.245257 0.101282
H42   H     H_    0.657418 0.412873 0.762854 0.100576
H43   H     H_    0.642042 0.621932 0.710677 0.122700
H44   H     H_    0.355150 0.381225 0.282134 0.123519
H45   H     H_    0.854112 0.116520 0.278545 0.123615
H46   H     H_    0.153465 0.897817 0.748704 0.123625
H47   H     H_    0.157894 0.085951 0.764757 0.100003
H48   H     H_    0.841713 0.914584 0.235860 0.100398
H49   H     H_    0.175585 0.612844 0.377745 0.117072
H50   H     H_    0.014763 0.081630 0.759812 0.148720
H51   H     H_    0.699693 0.185006 0.630004 0.121899
H52   H     H_    0.823502 0.610265 0.614368 0.116077
H53   H     H_    0.190088 0.319299 0.364825 0.114519
H54   H     H_    0.676654 0.112704 0.381418 0.116817
H55   H     H_    0.197072 0.683083 0.626284 0.132819
H56   H     H_    0.252006 0.277756 0.639554 0.119533
H57   H     H_    0.798094 0.683689 0.364571 0.120707
H58   H     H_    0.250930 0.573482 0.378068 0.109031
H59   H     H_    0.657851 0.278226 0.627729 0.117424
H60   H     H_    0.748480 0.572882 0.617101 0.110254
H61   H     H_    0.982654 0.922330 0.235663 0.147850
H62   H     H_    0.264527 0.356605 0.363812 0.114041
H63   H     H_    0.751646 0.073874 0.380447 0.110216
H64   H     H_    0.152641 0.774860 0.622702 0.173021
H65   H     H_    0.211508 0.184820 0.637801 0.110827
H66   H     H_    0.841250 0.776497 0.368004 0.116230
H67   H     H_    0.357009 0.648443 0.639169 0.124655
H68   H     H_    0.620632 0.312378 0.363657 0.118457
H69   H     H_    0.641300 0.651202 0.360699 0.124501
H70   H     H_    0.335321 0.423078 0.631101 0.112253
H71   H     H_    0.858578 0.150143 0.640408 0.123228
H72   H     H_    0.988199 0.105379 0.254839 0.152550
H73   H     H_    0.117519 0.811647 0.360981 0.119794
H74   H     H_    0.074404 0.225745 0.379429 0.160608
H75   H     H_    0.885377 0.807677 0.637116 0.121629
H76   H     H_    0.784168 0.188392 0.641223 0.119545
H77   H     H_    0.160584 0.720448 0.363692 0.119550
H78   H     H_    0.115440 0.320046 0.381064 0.116711
H79   H     H_    0.842765 0.716150 0.633368 0.114896
H80   H     H_    0.282234 0.687183 0.638785 0.120413
H81   H     H_    0.661964 0.220174 0.366189 0.115252
H82   H     H_    0.715605 0.688237 0.358211 0.119436
H83   H     H_    0.013265 0.902052 0.752245 0.142290
H84   H     H_    0.259790 0.384976 0.632046 0.119867
H85   H     H_    0.872925 0.386156 0.071469 0.139010
H86   H     H_    0.131703 0.617778 0.922100 0.139663
H87   H     H_    0.184006 0.232967 0.154407 0.136911
H88   H     H_    0.814338 0.772016 0.841510 0.137105
H89   H     H_    0.327308 0.766228 0.881167 0.138431
H90   H     H_    0.682724 0.263629 0.148953 0.136783
H91   H     H_    0.623080 0.895267 0.914752 0.140155
H92   H     H_    0.374290 0.108278 0.079725 0.140366
H93   H     H_    0.526178 0.317197 0.892580 0.314947
H94   H     H_    0.697297 0.386864 0.899831 0.189696
H95   H     H_    0.481116 0.705242 0.137167 0.313795
H96   H     H_    0.507318 0.253642 0.225979 0.311950
H97   H     H_    0.487872 0.753760 0.759295 0.313603
H98   H     H_    0.998404 0.761682 0.788059 0.311075
H99   H     H_    0.003128 0.239856 0.207826 0.306777
H100  H     H_    0.970699 0.820599 0.102177 0.314051
H101  H     H_    0.027380 0.182106 0.894909 0.314463
H102  H     H_    0.804925 0.449839 0.002615 0.312478
H103  H     H_    0.200309 0.554513 0.985583 0.312706
H104  H     H_    0.261875 0.270948 0.263320 0.306939
N1    N     N_R   0.532910 0.558440 0.665240 -0.059474
N2    N     N_R   0.402970 0.441090 0.454460 -0.037784
N3    N     N_R   0.402970 0.558910 0.454460 -0.036190
N4    N     N_R   0.597030 0.441090 0.545540 -0.038176
N5    N     N_R   0.097030 0.058910 0.545540 -0.038735
N6    N     N_R   0.902970 0.941090 0.454460 -0.038718
N7    N     N_R   0.902970 0.058910 0.454460 -0.039498
N8    N     N_R   0.097030 0.941090 0.545540 -0.038958
N9    N     N_R   0.566200 0.559270 0.454460 -0.041561
N10   N     N_R   0.433800 0.440730 0.545540 -0.041979
N11   N     N_R   0.433800 0.559270 0.545540 -0.041603
N12   N     N_R   0.467090 0.441560 0.334760 -0.057203
N13   N     N_R   0.566200 0.440730 0.454460 -0.045379
N14   N     N_R   0.066200 0.059270 0.454460 -0.043443
N15   N     N_R   0.933800 0.940730 0.545540 -0.045224
N16   N     N_R   0.933800 0.059270 0.545540 -0.042138
N17   N     N_R   0.066200 0.940730 0.454460 -0.043316
N18   N     N_R   0.421050 0.559750 0.334770 -0.041162
N19   N     N_R   0.578950 0.440250 0.665230 -0.038628
N20   N     N_R   0.578950 0.559750 0.665230 -0.043278
N21   N     N_R   0.421050 0.440250 0.334770 -0.044160
N22   N     N_R   0.921050 0.059750 0.334770 -0.042944
N23   N     N_R   0.467090 0.558440 0.334760 -0.058952
N24   N     N_R   0.078950 0.940250 0.665230 -0.041552
N25   N     N_R   0.078950 0.059750 0.665230 -0.039702
N26   N     N_R   0.921050 0.940250 0.334770 -0.038373
N27   N     N_R   0.532910 0.441560 0.665240 -0.058013
N28   N     N_R   0.032910 0.058440 0.665240 -0.058498
N29   N     N_R   0.967090 0.941560 0.334760 -0.056924
N30   N     N_R   0.967090 0.058440 0.334760 -0.055857
N31   N     N_R   0.032910 0.941560 0.665240 -0.056047
N32   N     N_R   0.597030 0.558910 0.545540 -0.038852
Ni1   Ni    Ni4+2 0.483090 0.500000 0.604440 0.211017
Ni2   Ni    Ni4+2 0.516910 0.500000 0.395560 0.212591
Ni3   Ni    Ni4+2 0.983090 1.000000 0.604440 0.212180
Ni4   Ni    Ni4+2 0.016910 0.000000 0.395560 0.215929
Ni5   Ni    Ni4+2 0.586780 0.500000 0.604440 0.220943
Ni6   Ni    Ni4+2 0.413220 0.500000 0.395560 0.218488
Ni7   Ni    Ni4+2 0.086780 1.000000 0.604440 0.223277
Ni8   Ni    Ni4+2 0.913220 0.000000 0.395560 0.219916
O1    O     O_3   0.538960 0.337276 0.858739 -0.790329
O2    O     O_3   0.229061 0.577469 0.987602 -0.774939
O3    O     O_3   0.286563 0.258811 0.245932 -0.771248
O4    O     O_3   0.711534 0.748128 0.746604 -0.767942
O5    O     O_3   0.225117 0.792026 0.790737 -0.808633
O6    O     O_3   0.784957 0.237620 0.239445 -0.771794
O7    O     O_3   0.721625 0.935619 0.990590 -0.775227
O8    O     O_3   0.276814 0.065709 0.009779 -0.773436
O9    O     O_3   0.467046 0.681164 0.165910 -0.787178
O10   O     O_3   0.488329 0.285565 0.235609 -0.797619
O11   O     O_3   0.506442 0.722009 0.748399 -0.792151
O12   O     O_3   0.017535 0.795604 0.782701 -0.799560
O13   O     O_3   0.984811 0.208821 0.220586 -0.812767
O14   O     O_3   0.958049 0.840484 0.136434 -0.795396
O15   O     O_3   0.040079 0.161963 0.860897 -0.791585
O16   O     O_3   0.776691 0.429830 0.005812 -0.774603

loop_
_geom_bond_atom_site_label_1
_geom_bond_atom_site_label_2
_ccdc_geom_bond_type
C61   C70   A    
N24   N31   A    
C31   C42   A    
C100  C127  A    
C132  C150  A    
C36   C99   S    
N2    N10   A    
N7    Ni8   S    
C31   H46   S    
C124  C133  A    
C57   C76   A    
C108  H18   S    
C52   C61   A    
C48   C162  A    
C54   C63   A    
C62   H59   S    
N30   Ni4   S    
H7    O8    S    
C101  C128  A    
N14   Ni4   S    
C131  C140  A    
N26   Ni8   S    
C134  C143  A    
C32   H47   S    
C122  H2    S    
C133  C151  A    
C105  H14   S    
C97   C115  A    
C110  C145  A    
C21   C48   A    
C45   C160  A    
C42   C147  A    
C109  C118  A    
N13   Ni2   S    
C147  N31   A    
N6    N15   A    
C50   C164  A    
C10   H87   S    
H5    O6    S    
C35   H71   S    
C28   N20   A    
N10   Ni1   S    
C13   H69   S    
C83   H76   S    
C37   C96   S    
C157  H23   S    
C57   H74   S    
C18   C44   A    
C15   C142  A    
C11   H88   S    
C41   C100  S    
C160  N3    A    
C47   C71   S    
C22   C49   A    
C46   C84   A    
N21   Ni6   S    
C111  H21   S    
C136  H72   S    
C166  O16   S    
C131  C149  A    
C2    C71   A    
C19   N11   A    
C31   N24   A    
C29   H44   S    
C68   C77   A    
C159  H24   S    
C26   N18   A    
C20   H35   S    
C92   H28   S    
C58   H55   S    
H99   O13   S    
C13   C72   A    
C83   C91   A    
N8    N17   A    
C106  C115  A    
C105  C140  A    
C57   C85   A    
C18   H33   S    
C84   C93   A    
C106  H15   S    
C20   C47   A    
C3    C11   A    
C86   C95   A    
C60   C95   A    
N23   Ni2   S    
C126  C134  A    
C10   C168  A    
C44   C159  A    
C84   H77   S    
C123  H94   S    
C46   H73   S    
C30   H45   S    
C78   C87   A    
H96   O10   S    
C86   H79   S    
C123  C132  A    
C48   C76   S    
C69   C77   A    
H6    O7    S    
C69   H66   S    
C139  C156  A    
H97   O11   S    
C109  H19   S    
N8    Ni7   S    
C98   C124  A    
C92   N23   A    
C110  H20   S    
C52   H49   S    
C105  C113  A    
C103  H39   S    
C55   C90   A    
C125  H61   S    
C50   C74   S    
C16   H92   S    
C121  O14   S    
C40   C104  S    
C150  C166  A    
C85   C94   A    
C59   C67   A    
N12   Ni2   S    
C78   C158  A    
C162  H27   S    
C78   H80   S    
C64   C73   A    
C30   C41   A    
C2    C79   A    
C109  C144  A    
C25   H40   S    
N3    N11   A    
C21   N14   A    
C125  N29   A    
C23   N16   A    
C80   H82   S    
C114  H50   S    
C46   C75   A    
C162  N5    A    
C1    C34   A    
C99   C126  A    
C139  C148  A    
C33   C40   A    
C59   H56   S    
C111  C146  A    
C29   N21   A    
N5    Ni7   S    
N27   Ni1   S    
N6    Ni8   S    
C117  O10   S    
C65   C74   A    
H104  O3    S    
C38   C103  A    
C99   C117  A    
C88   C91   S    
C36   C81   A    
N24   Ni7   S    
C7    C155  A    
C124  H9    S    
C130  H12   S    
C10   C146  A    
N28   Ni3   S    
C2    H68   S    
C51   C165  A    
C4    C12   A    
C12   H89   S    
C165  N8    A    
C42   C101  S    
C122  C131  A    
C27   C38   A    
C39   C102  S    
C132  C141  A    
C37   C92   A    
C167  O2    S    
C108  C117  A    
C43   C157  A    
C110  C119  A    
C19   C45   A    
C61   H58   S    
C107  H16   S    
C127  H11   S    
C112  C121  A    
C97   C123  A    
C64   H62   S    
C60   C69   A    
C138  C146  A    
C40   C125  A    
C87   C93   S    
C49   C77   S    
C62   C71   A    
C20   N13   A    
C107  C116  A    
C49   C163  A    
C22   N15   A    
N2    Ni6   S    
C112  H22   S    
C120  O15   S    
C163  H29   S    
C27   N19   A    
C116  O11   S    
C113  O9    S    
C6    C156  A    
C160  H25   S    
C138  C155  A    
C53   H51   S    
C4    C154  A    
C35   C74   A    
N19   Ni5   S    
C149  C167  A    
C15   H91   S    
C103  N27   A    
C147  H83   S    
C137  C145  A    
C58   C93   A    
C127  C135  A    
H4    O5    S    
C136  N30   A    
C24   C73   A    
C68   H75   S    
C8    H85   S    
C32   C39   A    
C80   C89   A    
N20   Ni5   S    
C118  O13   S    
C56   C91   A    
C150  C153  A    
C12   C140  A    
C164  N7    A    
C59   C94   A    
N4    N13   A    
C17   N9    A    
C13   C80   A    
C28   C34   A    
C104  C130  A    
C114  N28   A    
C130  C139  A    
C79   C88   A    
C152  C168  A    
C164  H30   S    
C5    O6    S    
C90   C94   S    
N32   Ni5   S    
C7    O8    S    
C65   H63   S    
C16   C143  A    
C14   H90   S    
C35   C83   A    
C23   C50   A    
C27   H42   S    
C28   H43   S    
N26   N29   A    
C89   C95   S    
C149  C154  A    
C152  C155  A    
C134  C152  A    
C133  C142  A    
C151  C156  A    
N9    N32   A    
C5    C14   A    
C33   N26   A    
C7    C16   A    
N18   Ni6   S    
H103  O2    S    
C96   C113  A    
C100  C118  A    
C157  N32   A    
C102  C120  A    
C30   N22   A    
C106  C141  A    
C82   H84   S    
H100  O14   S    
C45   C70   S    
C159  N2    A    
H102  O16   S    
N15   Ni3   S    
C26   C37   A    
C63   H60   S    
H98   O12   S    
C82   C90   A    
C96   C122  A    
N7    N16   A    
C56   H54   S    
C66   C75   A    
C9    C145  A    
C34   C98   S    
C137  C154  A    
C44   C73   S    
C11   C148  A    
N22   N30   A    
C47   C161  A    
N22   Ni8   S    
C63   C72   A    
C70   C158  A    
C4    O5    S    
C108  C143  A    
C6    O7    S    
C43   C72   S    
C68   C86   A    
C9    H86   S    
C102  C129  A    
C17   C43   A    
N17   Ni4   S    
C29   C36   A    
H3    O4    S    
C51   C75   S    
C165  H31   S    
C56   C65   A    
C66   H64   S    
C17   H32   S    
C60   H57   S    
C24   C82   A    
N9    Ni2   S    
N25   Ni7   S    
C6    C15   A    
C58   C66   A    
C129  C138  A    
N1    N20   A    
C53   C88   A    
N19   N27   A    
C1    N1    A    
C55   H53   S    
C14   C141  A    
C126  H8    S    
C79   H81   S    
C21   H36   S    
C81   N12   A    
C38   C97   S    
C81   H17   S    
C33   H48   S    
N18   N23   A    
C101  C119  A    
C9    C167  A    
C54   C89   A    
N1    Ni1   S    
N31   Ni3   S    
C104  C121  A    
H101  O15   S    
N29   Ni4   S    
C19   H34   S    
C112  C148  A    
C22   H37   S    
C25   N17   A    
C111  C120  A    
C128  C137  A    
C25   C51   A    
N16   Ni3   S    
C161  N4    A    
C158  H67   S    
H95   O9    S    
C53   C62   A    
C98   C116  A    
C18   N10   A    
C39   C114  A    
C55   C64   A    
C8    C144  A    
C168  O3    S    
C107  C142  A    
C8    C166  A    
N3    Ni6   S    
C135  C144  A    
C23   H38   S    
C85   H78   S    
N25   N28   A    
C128  H10   S    
C24   H70   S    
C129  H13   S    
C67   H65   S    
C52   C87   A    
N4    Ni5   S    
C32   N25   A    
C54   H52   S    
C163  N6    A    
N5    N14   A    
C3    C151  A    
C135  C153  A    
H93   O1    S    
C3    O4    S    
N12   N21   A    
C5    C153  A    
C1    H1    S    
C161  H26   S    
C26   H41   S    
C115  O1    S    
C119  O12   S    
C67   C76   A    
C41   C136  A    
N11   Ni1   S    
