data_mof_unit_1941.cif
_audit_creation_date              2012-12-10T17:01:26-0500
_audit_creation_method            fapswitch 2.2
_symmetry_space_group_name_H-M    P1
_symmetry_Int_Tables_number       1
_space_group_crystal_system       triclinic
_cell_length_a                    12.913736
_cell_length_b                    10.034339
_cell_length_c                    10.015105
_cell_angle_alpha                 90.617646
_cell_angle_beta                  97.903433
_cell_angle_gamma                 91.144655
_cell_volume                      1285.06177865

loop_
_atom_site_label
_atom_site_type_symbol
_atom_type_description
_atom_site_fract_x
_atom_site_fract_y
_atom_site_fract_z
_atom_type_partial_charge
C1    C     C_R   0.480531 0.259615 0.496037 0.820468
C2    C     C_2   0.392686 0.160839 0.479832 0.232468
C3    C     C_2   0.557803 0.580513 0.936718 0.437323
C4    C     C_R   0.298152 0.506038 0.472588 0.908576
C5    C     C_2   0.539818 0.595099 0.080908 -0.058399
C6    C     C_R   0.503889 0.744260 0.501677 0.875877
C7    C     C_R   0.701972 0.498718 0.527649 0.905620
C8    C     C_R   0.814787 0.497744 0.546972 -0.150177
C9    C     C_R   0.185499 0.516110 0.455009 -0.113363
C10   C     C_R   0.019295 0.580267 0.333097 -0.026125
C11   C     C_R   0.127804 0.569923 0.338895 -0.071370
C12   C     C_R   0.029941 0.485412 0.560462 0.051276
C13   C     C_R   0.136316 0.475342 0.563295 -0.118452
C14   C     C_1   0.823886 0.393858 0.774051 0.382547
C15   C     C_1   0.958841 0.633340 0.212848 0.217847
C16   C     C_1   0.178933 0.618718 0.228026 0.321307
C17   C     C_R   0.970635 0.537994 0.444240 0.072417
C18   C     C_R   0.863610 0.545845 0.441144 -0.220903
C19   C     C_R   0.873449 0.446720 0.663843 -0.124291
C20   C     C_R   0.981928 0.442407 0.671433 0.354718
C21   C     C_2   0.470679 0.960555 0.393777 -0.369807
C22   C     C_2   0.499762 0.890877 0.506944 0.195377
C23   C     C_2   0.385763 0.056513 0.393507 0.390244
Cl1   Cl    Cl    0.283855 0.196213 0.562359 -0.477572
Cl2   Cl    Cl    0.654769 0.682544 0.881017 -0.508965
Cl3   Cl    Cl    0.509537 0.337243 0.093119 -0.453236
Cl4   Cl    Cl    0.055829 0.380582 0.820041 -0.540715
Cl5   Cl    Cl    0.506367 0.964483 0.669695 -0.479045
Cl6   Cl    Cl    0.261683 0.990067 0.325668 -0.484182
H1    H     H_    0.816728 0.587903 0.354379 0.180264
H2    H     H_    0.434075 0.462288 0.882810 0.210035
H3    H     H_    0.562387 0.689119 0.132221 0.147085
H4    H     H_    0.182399 0.434213 0.650831 0.242239
H5    H     H_    0.472093 0.910559 0.297294 0.202793
N1    N     N_2   0.501130 0.501330 0.852280 -0.181033
N2    N     N_2   0.501160 0.501360 0.147950 0.034959
N3    N     N_1   0.784482 0.351616 0.862157 -0.093349
N4    N     N_1   0.910783 0.675444 0.117043 -0.096602
N5    N     N_1   0.219541 0.657696 0.139561 -0.108736
O1    O     O_R   0.499980 0.319060 0.613040 -0.539146
O2    O     O_R   0.500020 0.319100 0.386900 -0.555892
O3    O     O_R   0.346340 0.499960 0.594380 -0.605898
O4    O     O_R   0.346380 0.500000 0.368250 -0.604051
O5    O     O_R   0.499980 0.680900 0.613100 -0.528028
O6    O     O_R   0.500020 0.680940 0.386960 -0.651209
O7    O     O_R   0.653620 0.500000 0.631750 -0.582889
O8    O     O_R   0.653660 0.500040 0.405620 -0.598304
Zn1   Zn    Zn3+2 0.499980 0.499970 0.650990 1.095819
Zn2   Zn    Zn3+2 0.500020 0.500030 0.349010 1.062478

loop_
_geom_bond_atom_site_label_1
_geom_bond_atom_site_label_2
_ccdc_geom_bond_type
C12   C17   A    
C7    O7    A    
C15   N4    T    
C13   H4    S    
C18   H1    S    
C6    O6    A    
O6    Zn2   S    
C11   C16   S    
C19   C20   A    
C3    N1    D    
C5    H3    S    
C12   C20   A    
C17   C18   A    
C7    C8    S    
O8    Zn2   S    
O3    Zn1   S    
C21   C22   D    
C14   N3    T    
C9    C11   A    
C4    O3    A    
N1    Zn1   S    
C23   Cl6   S    
C1    O2    A    
C20   Cl4   S    
C4    O4    A    
O7    Zn1   S    
C10   C15   S    
C21   C23   S    
C2    Cl1   S    
H2    N1    S    
C8    C19   A    
C10   C11   A    
C16   N5    T    
C6    C22   S    
C5    N2    D    
C3    Cl2   S    
C12   C13   A    
C6    O5    A    
C1    C2    S    
Cl3   N2    S    
C2    C23   D    
O1    Zn1   S    
C9    C13   A    
O4    Zn2   S    
C22   Cl5   S    
C21   H5    S    
C10   C17   A    
C1    O1    A    
C4    C9    S    
C14   C19   S    
O2    Zn2   S    
C8    C18   A    
N2    Zn2   S    
O5    Zn1   S    
C3    C5    S    
C7    O8    A    
