data_mof_unit_3528.cif
_audit_creation_date              2013-03-05T15:41:44-0500
_audit_creation_method            fapswitch 2.2
_symmetry_space_group_name_H-M    P1
_symmetry_Int_Tables_number       1
_space_group_crystal_system       triclinic
_cell_length_a                    6.951992
_cell_length_b                    13.840843
_cell_length_c                    20.397066
_cell_angle_alpha                 101.949496
_cell_angle_beta                  90.017421
_cell_angle_gamma                 90.519929
_cell_volume                      1920.02167672

loop_
_atom_site_label
_atom_site_type_symbol
_atom_site_description
_atom_site_fract_x
_atom_site_fract_y
_atom_site_fract_z
_atom_type_partial_charge
O1    O     O_R   0.506860 0.599390 0.449240 -0.550743
O2    O     O_R   0.180220 0.594600 0.586780 -0.540627
O3    O     O_R   0.004500 0.400610 0.550760 -0.546546
C1    C     C_R   0.350042 0.619356 0.612383 0.866911
O4    O     O_R   0.177490 0.611290 0.451970 -0.561998
O5    O     O_R   0.001750 0.417420 0.414990 -0.572519
C2    C     C_R   0.347126 0.638272 0.436161 0.895869
O6    O     O_R   0.509610 0.582580 0.585010 -0.504501
O7    O     O_3   0.337420 0.436370 0.488020 -0.277211
V1    V     V_3+5 0.064680 0.511800 0.502220 1.287620
O8    O     O_R   0.671710 0.405400 0.413220 -0.539948
C3    C     C_R   0.841333 0.388225 0.386183 0.829484
O9    O     O_R   0.674440 0.388710 0.548030 -0.552399
C4    C     C_R   0.843600 0.362885 0.565079 0.945004
V2    V     V_3+5 0.564010 0.488200 0.497780 1.302148
O10   O     O_3   0.841140 0.563630 0.511980 -0.243823
C5    C     C_R   0.979148 0.129747 0.617714 0.017504
H1    H     H_    0.034495 0.058391 0.593668 0.196785
C6    C     C_R   0.858066 0.288742 0.606753 -0.137825
C7    C     C_R   0.752311 0.302011 0.926342 0.320025
C8    C     C_R   0.675280 0.361610 0.885558 -0.081685
C9    C     C_R   0.709336 0.341193 0.816999 -0.071093
C10   C     C_R   0.836529 0.265977 0.787523 0.084334
C11   C     C_R   0.905057 0.200620 0.827573 -0.071956
C12   C     C_R   0.882057 0.248273 0.717860 0.007834
C13   C     C_R   0.970380 0.158085 0.687898 -0.035720
C14   C     C_R   0.054109 0.099934 0.728799 0.296806
C15   C     C_R   0.019462 0.120276 0.797524 -0.080584
C16   C     C_R   0.854093 0.318761 0.677189 0.162617
C17   C     C_R   0.914149 0.192446 0.577318 0.202316
C18   C     C_R   0.855429 0.216647 0.896581 -0.154166
H2    H     H_    0.630789 0.383768 0.787339 0.145533
H3    H     H_    0.585314 0.423709 0.906710 0.139327
H4    H     H_    0.085168 0.073072 0.827130 0.095487
C19   C     C_2   0.928605 0.248920 0.297982 0.027087
C20   C     C_2   0.858587 0.341177 0.315412 0.186212
H5    H     H_    0.964454 0.209965 0.337374 0.141556
C21   C     C_2   0.966340 0.195580 0.228183 -0.072324
C22   C     C_2   0.839776 0.188431 0.177237 0.245139
H6    H     H_    0.092321 0.149735 0.221027 0.145588
C23   C     C_2   0.223795 0.815360 0.775173 -0.008112
C24   C     C_2   0.350966 0.808462 0.824109 -0.172482
H7    H     H_    0.117229 0.873396 0.785777 0.134557
H8    H     H_    0.454688 0.749498 0.817787 0.124098
C25   C     C_2   0.217764 0.750118 0.706184 0.259034
C26   C     C_2   0.367580 0.694207 0.676971 0.161915
C27   C     C_R   0.402933 0.888953 0.394157 -0.023298
H9    H     H_    0.428954 0.964410 0.420096 0.185983
C28   C     C_R   0.360166 0.717949 0.399462 -0.155275
C29   C     C_R   0.304251 0.695073 0.077604 -0.130212
C30   C     C_R   0.267361 0.623695 0.114556 0.344993
C31   C     C_R   0.284216 0.646474 0.183879 -0.032255
C32   C     C_R   0.335428 0.742861 0.218807 -0.015048
C33   C     C_R   0.361374 0.818797 0.181209 -0.058138
C34   C     C_R   0.354283 0.766000 0.290205 0.024970
C35   C     C_R   0.387453 0.865075 0.323765 -0.102616
C36   C     C_R   0.405570 0.939775 0.287204 0.347654
C37   C     C_R   0.391778 0.917864 0.217178 0.150317
C38   C     C_R   0.343953 0.693269 0.329667 -0.111102
C39   C     C_R   0.389798 0.816663 0.432513 0.293534
C40   C     C_R   0.350758 0.791842 0.109395 -0.107824
H10   H     H_    0.327822 0.615800 0.307899 0.097171
H11   H     H_    0.289737 0.675697 0.023516 0.089782
H12   H     H_    0.249081 0.587347 0.208809 0.133500
O11   O     O_R   0.203230 0.917310 0.915020 -0.581615
O12   O     O_R   0.535500 0.888690 0.048040 -0.554735
O13   O     O_R   0.711080 0.082610 0.085000 -0.505785
C41   C     C_R   0.365748 0.862772 0.065267 0.879085
O14   O     O_R   0.532630 0.905370 0.913230 -0.555358
O15   O     O_R   0.708190 0.099410 0.949230 -0.557574
C42   C     C_R   0.362643 0.882597 0.887491 0.824144
O16   O     O_R   0.206120 0.900510 0.050790 -0.556961
O17   O     O_3   0.375360 0.063570 0.011990 -0.225174
V3    V     V_3+5 0.648170 0.988200 0.997780 1.249165
O18   O     O_R   0.038240 0.111390 0.951940 -0.553896
C43   C     C_R   0.869739 0.136320 0.933903 0.881293
O19   O     O_R   0.041120 0.094710 0.086750 -0.533709
C44   C     C_R   0.869934 0.117783 0.112460 0.846523
V4    V     V_3+5 0.148810 0.011930 0.002180 1.249828
O20   O     O_3   0.871750 0.936430 0.988010 -0.294743
Br1   Br    Br    0.926899 0.147853 0.481793 -0.466429
Br2   Br    Br    0.849943 0.430036 0.254188 -0.450655
N1    N     N_R   0.654412 0.236230 0.187167 0.133136
O21   O     O_R   0.573576 0.267818 0.138125 -0.213505
O22   O     O_R   0.554888 0.236984 0.241326 -0.285039
Br3   Br    Br    0.999191 0.770468 0.653112 -0.306306
N2    N     N_R   0.557673 0.716894 0.703211 0.084058
O23   O     O_R   0.672131 0.646703 0.711336 -0.295941
O24   O     O_R   0.617380 0.808274 0.718067 -0.286296
N3    N     N_R   0.407170 0.845330 0.504362 0.101338
O25   O     O_R   0.489816 0.787990 0.538765 -0.328614
O26   O     O_R   0.360507 0.934102 0.534881 -0.284552
N4    N     N_R   0.439696 0.039893 0.321547 0.114878
O27   O     O_R   0.297413 0.094094 0.348829 -0.310955
O28   O     O_R   0.614140 0.075410 0.327721 -0.309965
Br4   Br    Br    0.245982 0.004008 0.694834 -0.473264
Br5   Br    Br    0.183006 0.494925 0.070223 -0.363883
Br6   Br    Br    0.400917 0.031825 0.177338 -0.460097
Br7   Br    Br    0.887294 0.458056 0.714890 -0.528439
N5    N     N_R   0.722165 0.327463 0.997668 0.114707
O29   O     O_R   0.581781 0.385108 0.022384 -0.265737
O30   O     O_R   0.849922 0.304756 0.038467 -0.305593

loop_
_geom_bond_atom_site_label_1
_geom_bond_atom_site_label_2
_geom_bond_distance
_ccdc_geom_bond_type
C30   Br5   1.910874 S    
O12   C41   1.299846 A    
N2    O23   1.298094 A    
N4    O27   1.300694 A    
O11   V4    2.015966 S    
C34   C38   1.414442 A    
O17   V3    2.163393 S    
C19   C20   1.348061 D    
C37   Br6   1.918660 S    
C1    O6    1.301671 A    
C36   C37   1.400479 A    
C1    C26   1.502055 S    
C32   C33   1.433771 A    
C13   C14   1.403164 A    
C28   C39   1.406061 A    
C9    H2    1.079201 S    
C5    C13   1.405291 A    
C19   H5    1.086316 S    
O16   V4    2.040616 S    
O5    C3    1.282707 A    
C21   C22   1.348725 D    
C8    H3    1.082792 S    
V2    O10   2.173385 S    
O12   V3    2.031510 S    
C35   C36   1.399248 A    
C23   C24   1.351845 D    
O14   C42   1.302242 A    
N5    O29   1.300407 A    
C27   C39   1.394294 A    
O8    V2    2.011631 S    
N1    O21   1.301075 A    
C20   Br2   1.926908 S    
O15   V3    2.035635 S    
C10   C11   1.423433 A    
O1    V2    2.036743 S    
C3    C20   1.460986 S    
O7    V1    2.163342 S    
C32   C34   1.430579 A    
C15   H4    1.081124 S    
N4    O28   1.300652 A    
V3    O20   1.711824 S    
C8    C9    1.388958 A    
C29   H11   1.084505 S    
C23   H7    1.086195 S    
C14   Br4   1.916725 S    
O13   C44   1.283456 A    
C24   H8    1.081560 S    
C5    H1    1.081870 S    
O19   V4    2.011644 S    
C12   C16   1.419965 A    
C16   Br7   1.933792 S    
C30   C31   1.388198 A    
C22   C44   1.488195 S    
C19   C21   1.486355 S    
C2    C28   1.457674 S    
C31   H12   1.075516 S    
O4    C2    1.294724 A    
C12   C13   1.416672 A    
O19   C44   1.315761 A    
O2    C1    1.304653 A    
O18   C43   1.298568 A    
N3    O26   1.301163 A    
C27   H9    1.082166 S    
C7    N5    1.440093 S    
C41   O16   1.290625 A    
C34   C35   1.416915 A    
N5    O30   1.301176 A    
C29   C30   1.383376 A    
O17   V4    1.718019 S    
O14   V3    2.024196 S    
O13   V3    2.022435 S    
O3    C4    1.289143 A    
N1    O22   1.301912 A    
O6    V2    2.015452 S    
N2    O24   1.302110 A    
O15   C43   1.294592 A    
C5    C17   1.392540 A    
N3    O25   1.300410 A    
C6    C16   1.410862 A    
C31   C32   1.418361 A    
C26   N2    1.433153 S    
C33   C37   1.428677 A    
C38   H10   1.077061 S    
O1    C2    1.289971 A    
C4    C6    1.465870 S    
C11   C15   1.406740 A    
O5    V1    2.022424 S    
O8    C3    1.304751 A    
C33   C40   1.436462 A    
C39   N3    1.441502 S    
C28   C38   1.397823 A    
C17   Br1   1.920490 S    
O9    V2    2.034518 S    
C25   Br3   1.921736 S    
O7    V2    1.719254 S    
C11   C18   1.421916 A    
C22   N1    1.448958 S    
O4    V1    2.031534 S    
O3    V1    2.035488 S    
V1    O10   1.711899 S    
C21   H6    1.078337 S    
C40   C41   1.465908 S    
C18   C43   1.475795 S    
C24   C42   1.476465 S    
C10   C12   1.427145 A    
V4    O20   2.173368 S    
C25   C26   1.364812 D    
O11   C42   1.293304 A    
C7    C8    1.396832 A    
C14   C15   1.392953 A    
C29   C40   1.396888 A    
C23   C25   1.506792 S    
C9    C10   1.408902 A    
C36   N4    1.434977 S    
O9    C4    1.300202 A    
C6    C17   1.402532 A    
O18   V4    2.034433 S    
C27   C35   1.408933 A    
C7    C18   1.413159 A    
O2    V1    2.024186 S    
