data_mof_unit_3631.cif
_audit_creation_date              2012-12-10T16:49:25-0500
_audit_creation_method            fapswitch 2.2
_symmetry_space_group_name_H-M    P1
_symmetry_Int_Tables_number       1
_space_group_crystal_system       triclinic
_cell_length_a                    19.338969
_cell_length_b                    8.67898
_cell_length_c                    7.42514
_cell_angle_alpha                 103.022713
_cell_angle_beta                  93.869778
_cell_angle_gamma                 92.470626
_cell_volume                      1209.25133907

loop_
_atom_site_label
_atom_site_type_symbol
_atom_type_description
_atom_site_fract_x
_atom_site_fract_y
_atom_site_fract_z
_atom_type_partial_charge
C1    C     C_R   0.498172 0.199621 0.453116 0.880269
C2    C     C_R   0.502050 0.800382 0.546806 0.888060
C3    C     C_2   0.497664 0.031756 0.426539 -0.371979
C4    C     C_2   0.502729 0.968197 0.573072 -0.383789
C5    C     C_R   0.367706 0.498642 0.502898 0.787207
C6    C     C_R   0.632830 0.500684 0.496898 0.783565
C7    C     C_R   0.252831 0.421387 0.610065 0.086744
C8    C     C_R   0.745647 0.468980 0.332015 0.081196
C9    C     C_R   0.181417 0.440744 0.611662 -0.223353
C10   C     C_R   0.818361 0.485475 0.348289 -0.231219
C11   C     C_R   0.148772 0.543242 0.515441 0.017938
C12   C     C_R   0.856269 0.538907 0.520744 0.028908
C13   C     C_R   0.188981 0.631006 0.416372 0.186165
C14   C     C_R   0.820496 0.579475 0.683007 0.174339
C15   C     C_R   0.260263 0.610945 0.413679 -0.215421
C16   C     C_R   0.748050 0.564046 0.667702 -0.216335
C17   C     C_R   0.292548 0.508589 0.509817 -0.080811
C18   C     C_R   0.709578 0.509344 0.495414 -0.098757
C19   C     C_R   0.932741 0.549043 0.524347 0.419612
C20   C     C_R   0.072913 0.552401 0.520636 0.419748
Cu1   Cu    Cu3+1 0.507710 0.517380 0.684380 0.928585
Cu2   Cu    Cu3+1 0.492290 0.482620 0.315620 0.932342
H1    H     H_    0.150512 0.371761 0.685250 0.159798
H2    H     H_    0.846074 0.452488 0.224507 0.156835
H3    H     H_    0.291428 0.677907 0.338267 0.151123
H4    H     H_    0.721358 0.597100 0.793182 0.158468
H5    H     H_    0.493138 0.960161 0.285273 0.178170
H6    H     H_    0.506757 0.039725 0.714200 0.175979
H7    H     H_    0.446528 0.376476 0.948313 0.219360
H8    H     H_    0.553946 0.622552 0.051552 0.218912
N1    N     N_R   0.033049 0.577675 0.373931 -0.228136
N2    N     N_R   0.972584 0.522303 0.670213 -0.229814
N3    N     N_R   0.964338 0.576403 0.375840 -0.242495
N4    N     N_R   0.041275 0.524237 0.668642 -0.242252
N5    N     N_2   0.480680 0.456420 0.038530 -0.221466
N6    N     N_2   0.519320 0.543580 0.961470 -0.225908
O1    O     O_R   0.505010 0.286130 0.619770 -0.586464
O2    O     O_R   0.494990 0.713870 0.380230 -0.580869
O3    O     O_R   0.491990 0.256780 0.308370 -0.588483
O4    O     O_R   0.508010 0.743220 0.691630 -0.584206
O5    O     O_R   0.406650 0.514660 0.655750 -0.581843
O6    O     O_R   0.593350 0.485340 0.344250 -0.587558
O7    O     O_R   0.393640 0.485310 0.344340 -0.581490
O8    O     O_R   0.606360 0.514690 0.655660 -0.587938
C21   C     C_3   0.283671 0.303047 0.710309 -0.403377
C22   C     C_3   0.302958 0.153480 0.573393 -0.349753
C23   C     C_3   0.329352 0.030509 0.675173 -0.816572
H9    H     H_    0.374935 0.081221 0.772902 0.248643
H10   H     H_    0.287778 0.990528 0.753385 0.255108
H11   H     H_    0.345239 0.926250 0.573343 0.238853
H12   H     H_    0.256568 0.100696 0.479572 0.223187
H13   H     H_    0.343979 0.183465 0.487276 0.211209
H14   H     H_    0.329386 0.358622 0.803934 0.208687
H15   H     H_    0.245717 0.267119 0.801587 0.198413
C24   C     C_3   0.710247 0.405338 0.139055 -0.383583
C25   C     C_3   0.682497 0.232688 0.112750 -0.325708
C26   C     C_3   0.643242 0.172723 0.922852 -0.803875
H16   H     H_    0.597565 0.243817 0.910009 0.276956
H17   H     H_    0.677582 0.180954 0.810899 0.248848
H18   H     H_    0.624888 0.046930 0.906231 0.230443
H19   H     H_    0.726749 0.157036 0.124917 0.212261
H20   H     H_    0.647188 0.220432 0.221176 0.225203
H21   H     H_    0.669111 0.482997 0.108768 0.212631
H22   H     H_    0.747644 0.408704 0.032297 0.187436
C27   C     C_3   0.158359 0.749750 0.318284 -0.829733
H23   H     H_    0.199234 0.820595 0.269113 0.215489
H24   H     H_    0.124194 0.687657 0.194926 0.258987
H25   H     H_    0.128432 0.833753 0.414369 0.237307
C28   C     C_3   0.857397 0.643643 0.872756 -0.835473
H26   H     H_    0.820536 0.686351 0.978984 0.215305
H27   H     H_    0.886075 0.549166 0.918012 0.253708
H28   H     H_    0.893795 0.745367 0.869727 0.246659

loop_
_geom_bond_atom_site_label_1
_geom_bond_atom_site_label_2
_ccdc_geom_bond_type
C28   H28   S    
C2    C4    S    
C24   C25   S    
N1    N3    A    
C7    C9    A    
C22   H13   S    
Cu1   O8    S    
C11   C13   A    
C2    O2    A    
C1    O3    A    
N5    N6    D    
H8    N6    S    
C27   H25   S    
C20   N4    A    
C24   H22   S    
C7    C17   A    
C3    H5    S    
C5    O7    A    
C21   H14   S    
C23   H10   S    
Cu1   N6    S    
C13   C27   S    
C21   C22   S    
C6    O8    A    
Cu2   N5    S    
C9    C11   A    
C26   H16   S    
Cu2   O6    S    
Cu1   O4    S    
C10   C12   A    
Cu1   O5    S    
C19   N2    A    
C7    C21   S    
C8    C24   S    
C16   C18   A    
C4    H6    S    
C12   C14   A    
C21   H15   S    
Cu2   O7    S    
C23   H11   S    
C25   H20   S    
C13   C15   A    
C16   H4    S    
C28   H26   S    
C6    C18   S    
C14   C28   S    
C14   C16   A    
C11   C20   S    
C15   H3    S    
C26   H17   S    
Cu2   O3    S    
C3    C4    D    
Cu2   O2    S    
C2    O4    A    
C5    C17   S    
C25   C26   S    
C12   C19   S    
Cu1   O1    S    
C15   C17   A    
C27   H23   S    
C19   N3    A    
C1    C3    S    
C28   H27   S    
H7    N5    S    
C25   H19   S    
C9    H1    S    
C26   H18   S    
C5    O5    A    
C10   H2    S    
Cu1   Cu2   S    
C22   C23   S    
C6    O6    A    
C22   H12   S    
C8    C10   A    
C8    C18   A    
C23   H9    S    
C24   H21   S    
C1    O1    A    
C27   H24   S    
C20   N1    A    
N2    N4    A    
