data_mof_unit_3662.cif
_audit_creation_date              2013-03-05T15:58:55-0500
_audit_creation_method            fapswitch 2.2
_symmetry_space_group_name_H-M    P1
_symmetry_Int_Tables_number       1
_space_group_crystal_system       triclinic
_cell_length_a                    10.860563
_cell_length_b                    12.624401
_cell_length_c                    13.123123
_cell_angle_alpha                 83.03285
_cell_angle_beta                  91.508498
_cell_angle_gamma                 103.820663
_cell_volume                      1734.28581228

loop_
_atom_site_label
_atom_site_type_symbol
_atom_site_description
_atom_site_fract_x
_atom_site_fract_y
_atom_site_fract_z
_atom_type_partial_charge
O1    O     O_R   0.468120 0.366740 0.627160 -0.585268
O2    O     O_R   0.510770 0.544830 0.662520 -0.644331
C1    C     C_R   0.488362 0.438758 0.691906 0.925637
O3    O     O_R   0.663880 0.410950 0.482330 -0.590798
O4    O     O_R   0.706530 0.589040 0.517700 -0.593476
C2    C     C_R   0.742510 0.503015 0.497938 0.985939
Zn1   Zn    Zn3+2 0.471520 0.381090 0.476390 1.077467
Zn2   Zn    Zn3+2 0.528480 0.618910 0.523610 1.057625
O5    O     O_R   0.489230 0.455170 0.337480 -0.579840
O6    O     O_R   0.531880 0.633260 0.372840 -0.598055
O7    O     O_R   0.293470 0.410960 0.482300 -0.569519
O8    O     O_R   0.336120 0.589050 0.517670 -0.582250
C3    C     C_R   0.521515 0.560043 0.308063 0.954847
C4    C     C_R   0.257298 0.497823 0.503899 1.008589
C5    C     C_3   0.900617 0.401973 0.570392 0.063430
H1    H     H_    0.865035 0.331390 0.526003 0.185675
C6    C     C_3   0.044499 0.408024 0.587259 0.064163
H2    H     H_    0.060354 0.327373 0.574900 0.197519
C7    C     C_3   0.924565 0.495134 0.385036 0.308827
C8    C     C_3   0.960627 0.618556 0.540003 0.366649
C9    C     C_3   0.879597 0.507281 0.498278 -0.413510
C10   C     C_3   0.120848 0.499913 0.504417 -0.436512
C11   C     C_3   0.059430 0.467913 0.395396 0.356172
C12   C     C_3   0.106555 0.619065 0.533819 0.357495
C13   C     C_R   0.724681 0.694860 0.074952 0.325748
H3    H     H_    0.713960 0.728378 0.228833 0.232893
H4    H     H_    0.796289 0.701569 0.874499 0.234558
C14   C     C_R   0.564895 0.590924 0.200548 -0.099135
C15   C     C_R   0.420990 0.292118 0.841562 0.247639
C16   C     C_R   0.430229 0.255391 0.945359 -0.092771
C17   C     C_R   0.495373 0.326551 0.012254 0.249305
C18   C     C_R   0.548552 0.437150 0.975311 0.030360
C19   C     C_R   0.568153 0.465176 0.869605 0.007472
C20   C     C_R   0.586885 0.520428 0.039559 0.080128
C21   C     C_R   0.680382 0.616385 0.005997 0.019022
C22   C     C_R   0.723890 0.630728 0.904349 -0.069574
C23   C     C_R   0.665827 0.557206 0.836457 -0.096388
C24   C     C_R   0.524008 0.514033 0.132008 -0.127864
C25   C     C_R   0.667803 0.679064 0.172215 -0.143880
C26   C     C_R   0.492750 0.398009 0.801642 -0.162672
H5    H     H_    0.442959 0.447311 0.151354 0.216156
H6    H     H_    0.387900 0.170699 0.973948 0.246783
H7    H     H_    0.700344 0.570641 0.758728 0.205351
C27   C     C_R   0.347801 0.084208 0.332129 0.220192
N1    N     N_R   0.433240 0.222190 0.444680 -0.144114
C28   C     C_R   0.609503 0.789616 0.651979 0.050634
C29   C     C_R   0.611835 0.885400 0.695902 0.249145
C30   C     C_R   0.567146 0.969544 0.640570 -0.136703
C31   C     C_R   0.525688 0.959987 0.539211 -0.005510
C32   C     C_R   0.531047 0.862520 0.496798 0.140948
C33   C     C_R   0.477172 0.041946 0.478013 -0.033643
C34   C     C_R   0.419916 0.015765 0.382888 -0.112998
C35   C     C_R   0.444557 0.925946 0.338161 0.306919
C36   C     C_R   0.519491 0.863096 0.391943 0.190409
C37   C     C_R   0.484547 0.148624 0.505810 -0.001971
C38   C     C_R   0.361592 0.189823 0.361138 0.360654
N2    N     N_R   0.566070 0.776970 0.554790 -0.128727
H8    H     H_    0.537117 0.176624 0.572254 0.168503
H9    H     H_    0.639577 0.724016 0.697201 0.154283
H10   H     H_    0.564279 0.040198 0.678449 0.189535
N3    N     N_R   0.174968 0.713429 0.461093 0.232384
O9    O     O_R   0.168686 0.713043 0.362661 -0.272337
O10   O     O_R   0.223832 0.807745 0.494087 -0.328047
Br1   Br    Br    0.920881 0.617666 0.279859 -0.262684
Br2   Br    Br    0.171172 0.524855 0.274720 -0.203227
N4    N     N_R   0.831782 0.786037 0.051355 0.238164
O11   O     O_R   0.835496 0.879289 0.085546 -0.220900
O12   O     O_R   0.934557 0.770708 0.012996 -0.259156
Br3   Br    Br    0.313400 0.189972 0.760541 -0.327727
Br4   Br    Br    0.547119 0.262606 0.141260 -0.313889
Br5   Br    Br    0.789304 0.342180 0.690353 -0.352501
Br6   Br    Br    0.285912 0.288183 0.275062 -0.276036
N5    N     N_R   0.422484 0.914007 0.231330 0.259706
O13   O     O_R   0.469069 0.995693 0.162101 -0.269733
O14   O     O_R   0.383126 0.816085 0.203321 -0.261516
N6    N     N_R   0.254739 0.043853 0.257068 0.261478
O15   O     O_R   0.257676 0.094172 0.164251 -0.261749
O16   O     O_R   0.171075 0.951756 0.280013 -0.204063
Br7   Br    Br    0.668517 0.898991 0.833725 -0.330546
Br8   Br    Br    0.679760 0.880127 0.328859 -0.295171
Br9   Br    Br    0.104353 0.396055 0.729465 -0.235161
Br10  Br    Br    0.801107 0.385899 0.313270 -0.286655
Br11  Br    Br    0.039258 0.308209 0.386163 -0.307206
Br12  Br    Br    0.929223 0.756881 0.461171 -0.183226
N7    N     N_R   0.922055 0.624927 0.647058 0.225173
O17   O     O_R   0.889049 0.711599 0.670640 -0.345752
O18   O     O_R   0.934356 0.552068 0.722777 -0.289345
Br13  Br    Br    0.192968 0.653416 0.667881 -0.217440

loop_
_geom_bond_atom_site_label_1
_geom_bond_atom_site_label_2
_geom_bond_distance
_ccdc_geom_bond_type
N4    O12   1.301220 A    
C12   N3    1.490207 S    
C28   H9    1.069819 S    
N5    O13   1.300931 A    
C21   C22   1.403275 A    
C29   Br7   1.909422 S    
C35   C36   1.390123 A    
Zn1   O7    2.061764 S    
C32   C36   1.377735 A    
C11   Br11  1.993596 S    
Zn1   N1    2.040851 S    
C22   C23   1.394402 A    
C7    C9    1.612377 S    
N6    O16   1.301083 A    
O4    C2    1.294523 A    
O7    C4    1.313120 A    
H3    C25   1.065107 S    
C5    H1    1.110055 S    
N3    O10   1.303040 A    
C20   C21   1.413846 A    
C27   N6    1.440380 S    
O5    C3    1.298535 A    
C17   Br4   1.915397 S    
C29   C30   1.389910 A    
N1    C38   1.373410 A    
C38   Br6   1.895227 S    
C3    C14   1.475974 S    
C7    Br10  1.987894 S    
C36   Br8   1.901363 S    
C27   C34   1.399978 A    
N4    O11   1.301300 A    
C20   C24   1.392212 A    
N5    O14   1.302128 A    
O3    Zn1   2.033464 S    
C30   H10   1.079506 S    
C15   Br3   1.925114 S    
N7    O18   1.296625 A    
O2    Zn2   1.937430 S    
C19   C26   1.413634 A    
C33   C34   1.419603 A    
C8    C12   1.587503 S    
N6    O15   1.301088 A    
C24   H5    1.074447 S    
O3    C2    1.302467 A    
C14   C25   1.397434 A    
C31   C33   1.424712 A    
N7    O17   1.302645 A    
C2    C9    1.476813 S    
C19   C23   1.406128 A    
O1    C1    1.295744 A    
C18   C20   1.406039 A    
C23   H7    1.075906 S    
C7    C11   1.581336 S    
C15   C16   1.393664 A    
Zn2   N2    2.028756 S    
C27   C38   1.403513 A    
C17   C18   1.408328 A    
C14   C24   1.390445 A    
C7    Br1   1.951471 S    
Zn2   O8    2.033464 S    
C6    Br9   1.960284 S    
C8    N7    1.493388 S    
C6    H2    1.103597 S    
C12   Br13  2.016862 S    
C13   C21   1.413725 A    
C30   C31   1.402849 A    
O8    C4    1.289639 A    
C1    C26   1.472791 S    
C8    Br12  2.015872 S    
C28   N2    1.362510 A    
C10   C12   1.640482 S    
C34   C35   1.420074 A    
C5    C6    1.557405 S    
C28   C29   1.395992 A    
O1    Zn1   1.965358 S    
C32   N2    1.368181 A    
C35   N5    1.435957 S    
C13   N4    1.437571 S    
O6    C3    1.313592 A    
O4    Zn2   2.061765 S    
H4    C22   1.080177 S    
C5    Br5   1.971178 S    
C6    C10   1.580223 S    
C18   C19   1.398321 A    
C11   Br2   1.976281 S    
O2    C1    1.313426 A    
C13   C25   1.404087 A    
C4    C10   1.488650 S    
C16   C17   1.390394 A    
C15   C26   1.422230 A    
C33   C37   1.421017 A    
N3    O9    1.292280 A    
Zn1   O5    1.937430 S    
C5    C9    1.594846 S    
C8    C9    1.618114 S    
N1    C37   1.363659 A    
Zn2   O6    1.965356 S    
C31   C32   1.424544 A    
C37   H8    1.078597 S    
C10   C11   1.617481 S    
C16   H6    1.082669 S    
