data_mof_unit_1153.cif
_audit_creation_date              2012-12-10T19:27:37-0500
_audit_creation_method            fapswitch 2.2
_symmetry_space_group_name_H-M    P1
_symmetry_Int_Tables_number       1
_space_group_crystal_system       triclinic
_cell_length_a                    23.230902
_cell_length_b                    10.736011
_cell_length_c                    9.917633
_cell_angle_alpha                 90.056439
_cell_angle_beta                  89.718561
_cell_angle_gamma                 89.809187
_cell_volume                      2473.4844719

loop_
_atom_site_label
_atom_site_type_symbol
_atom_type_description
_atom_site_fract_x
_atom_site_fract_y
_atom_site_fract_z
_atom_type_partial_charge
C1    C     C_R   0.500296 0.257477 0.500191 0.854831
C2    C     C_R   0.709976 0.532512 0.590660 0.147537
C3    C     C_R   0.229066 0.466045 0.562031 -0.052911
C4    C     C_R   0.769927 0.517426 0.575426 -0.052629
C5    C     C_R   0.208213 0.532485 0.449188 0.208339
C6    C     C_R   0.792567 0.464463 0.455826 0.216634
C7    C     C_3   0.524692 0.036698 0.609275 0.306078
C8    C     C_3   0.472327 0.960910 0.390529 0.307023
C9    C     C_3   0.553092 0.954959 0.500804 -0.289959
C10   C     C_3   0.444053 0.042987 0.499513 -0.254973
C11   C     C_3   0.497770 0.876864 0.498832 -0.056600
C12   C     C_R   0.498721 0.741950 0.499770 0.863621
C13   C     C_3   0.499725 0.121533 0.500866 -0.063733
C14   C     C_3   0.469853 0.957028 0.610004 -0.181830
C15   C     C_3   0.527465 0.040045 0.389751 -0.236157
C16   C     C_R   0.389486 0.503229 0.500124 0.894741
C17   C     C_R   0.610514 0.496649 0.499027 0.892681
C18   C     C_3   0.494541 0.388881 0.048042 -0.017406
C19   C     C_3   0.506532 0.611037 0.952495 -0.053293
C20   C     C_3   0.542056 0.432879 0.951650 -0.029765
C21   C     C_3   0.459189 0.568132 0.047959 -0.050004
C22   C     C_3   0.453294 0.456790 0.954076 0.202705
C23   C     C_R   0.246575 0.598851 0.366567 0.266428
C24   C     C_3   0.547323 0.543349 0.048047 0.221351
C25   C     C_R   0.875980 0.589971 0.409894 0.505856
C26   C     C_R   0.125494 0.411303 0.386262 0.523245
C27   C     C_R   0.885293 0.368600 0.412075 0.566999
C28   C     C_R   0.115650 0.631011 0.410519 0.563262
C29   C     C_R   0.944348 0.377300 0.382749 -0.111120
C30   C     C_R   0.056562 0.623222 0.383395 -0.110086
C31   C     C_R   0.970206 0.495755 0.384414 -0.056160
C32   C     C_R   0.030710 0.505079 0.381060 -0.061333
C33   C     C_R   0.935747 0.604707 0.390921 -0.074222
C34   C     C_R   0.755494 0.414463 0.358316 0.255936
C35   C     C_R   0.065375 0.396635 0.377157 -0.067465
C36   C     C_R   0.978549 0.271608 0.355585 -0.037544
C37   C     C_R   0.022465 0.729499 0.362281 -0.033087
C38   C     C_R   0.038584 0.278907 0.363720 0.152337
C39   C     C_R   0.962540 0.722837 0.376066 0.158593
C40   C     C_1   0.953466 0.161218 0.297024 0.304820
C41   C     C_1   0.047411 0.838383 0.300042 0.292104
C42   C     C_1   0.591633 0.365208 0.895652 0.204459
C43   C     C_1   0.410766 0.645174 0.091872 0.196980
C44   C     C_1   0.486360 0.263921 0.101145 0.196123
C45   C     C_R   0.304876 0.596652 0.396305 -0.351609
C46   C     C_1   0.519787 0.734377 0.900434 0.199583
C47   C     C_3   0.363387 0.348598 0.002580 -0.795760
C48   C     C_3   0.646386 0.622999 0.027312 -0.814373
C49   C     C_3   0.084565 0.117451 0.498428 -0.619541
C50   C     C_3   0.923079 0.893602 0.506165 -0.635786
C51   C     C_3   0.219760 0.588418 0.132532 -0.745562
C52   C     C_3   0.793242 0.444283 0.132860 -0.742610
C53   C     C_3   0.329155 0.251248 0.629835 -0.723684
C54   C     C_3   0.675002 0.734456 0.656801 -0.723471
C55   C     C_1   0.188883 0.406567 0.653493 0.185221
C56   C     C_R   0.696386 0.420418 0.379568 -0.334991
C57   C     C_1   0.808664 0.562122 0.678571 0.193315
C58   C     C_3   0.522270 0.112075 0.842788 -0.699781
C59   C     C_3   0.388149 0.969398 0.241248 -0.738193
C60   C     C_R   0.326805 0.518409 0.496010 -0.107068
C61   C     C_R   0.673228 0.482497 0.492126 -0.102378
C62   C     C_R   0.288888 0.453226 0.581486 0.132003
H1    H     H_    0.333909 0.652405 0.337498 0.197394
H2    H     H_    0.377037 0.249700 0.008545 0.254736
H3    H     H_    0.587110 0.669081 0.175883 0.248085
H4    H     H_    0.680708 0.666976 0.088434 0.246285
H5    H     H_    0.634038 0.688315 0.946198 0.252868
H6    H     H_    0.664015 0.535764 0.984173 0.251344
H7    H     H_    0.100852 0.153194 0.291199 0.281043
H8    H     H_    0.131919 0.117782 0.513018 0.263755
H9    H     H_    0.069040 0.020279 0.507236 0.232829
H10   H     H_    0.064173 0.173196 0.580494 0.226065
H11   H     H_    0.896127 0.840788 0.311089 0.283830
H12   H     H_    0.668282 0.380450 0.304154 0.185687
H13   H     H_    0.899399 0.830273 0.575226 0.259667
H14   H     H_    0.898081 0.981331 0.495948 0.258765
H15   H     H_    0.965587 0.916164 0.550659 0.218628
H16   H     H_    0.250337 0.744433 0.230793 0.242825
H17   H     H_    0.202257 0.645996 0.049224 0.241427
H18   H     H_    0.189075 0.511540 0.152717 0.254635
H19   H     H_    0.261893 0.548766 0.100171 0.239743
H20   H     H_    0.752276 0.286339 0.202786 0.234234
H21   H     H_    0.811408 0.391977 0.045795 0.243704
H22   H     H_    0.826328 0.510746 0.168203 0.250781
H23   H     H_    0.597879 0.919237 0.503028 0.152543
H24   H     H_    0.754823 0.496758 0.098704 0.235526
H25   H     H_    0.284699 0.361932 0.764831 0.228598
H26   H     H_    0.360926 0.263751 0.547289 0.223460
H27   H     H_    0.291599 0.198303 0.591430 0.239608
H28   H     H_    0.349897 0.197082 0.711759 0.243245
H29   H     H_    0.709834 0.603065 0.785299 0.228933
H30   H     H_    0.654010 0.785639 0.740934 0.239198
H31   H     H_    0.645472 0.736197 0.569263 0.225401
H32   H     H_    0.715666 0.782814 0.629614 0.248612
H33   H     H_    0.590387 0.132687 0.705360 0.233990
H34   H     H_    0.399061 0.076509 0.497773 0.148407
H35   H     H_    0.550952 0.116102 0.931681 0.236929
H36   H     H_    0.487545 0.044661 0.864980 0.238982
H37   H     H_    0.501965 0.203882 0.826441 0.254541
H38   H     H_    0.470951 0.905584 0.188231 0.235606
H39   H     H_    0.375295 0.946565 0.136543 0.244313
H40   H     H_    0.388979 0.072391 0.250590 0.245099
H41   H     H_    0.355497 0.931405 0.312120 0.239846
H42   H     H_    0.445585 0.920352 0.697960 0.152103
H43   H     H_    0.552702 0.072751 0.301547 0.169056
H44   H     H_    0.376314 0.484538 0.857123 0.255161
H45   H     H_    0.317495 0.350467 0.973254 0.228915
H46   H     H_    0.366418 0.392804 0.103729 0.251007
N1    N     N_R   0.852973 0.473985 0.426704 -0.331937
N2    N     N_1   0.532128 0.831361 0.860095 -0.208244
N3    N     N_2   0.398473 0.413609 0.903931 -0.270774
N4    N     N_2   0.597553 0.596255 0.112372 -0.274232
N5    N     N_2   0.070439 0.165689 0.365992 -0.290913
N6    N     N_2   0.930862 0.836404 0.375030 -0.292403
N7    N     N_2   0.226936 0.665085 0.251268 -0.270042
N8    N     N_2   0.777507 0.357930 0.238580 -0.275700
N9    N     N_2   0.310754 0.370859 0.681311 -0.293699
N10   N     N_2   0.686943 0.607364 0.696809 -0.290039
N11   N     N_1   0.156751 0.359069 0.726499 -0.209863
N12   N     N_R   0.148402 0.525450 0.414045 -0.334161
N13   N     N_1   0.839637 0.597812 0.760973 -0.208877
N14   N     N_2   0.556147 0.075342 0.726968 -0.293843
N15   N     N_2   0.443959 0.915379 0.270413 -0.286482
N16   N     N_3   0.499960 0.500030 0.863290 -0.141254
N17   N     N_3   0.500040 0.499970 0.136710 -0.143156
N18   N     N_1   0.933320 0.074877 0.246271 -0.186463
N19   N     N_1   0.067564 0.923197 0.246179 -0.190341
N20   N     N_1   0.631344 0.313344 0.852252 -0.228743
N21   N     N_1   0.371684 0.706512 0.120400 -0.247287
N22   N     N_1   0.479265 0.164102 0.140443 -0.245191
O1    O     O_R   0.500000 0.313960 0.616610 -0.619707
O2    O     O_2   0.161374 0.313577 0.369446 -0.583907
O3    O     O_2   0.860636 0.256366 0.431564 -0.564679
O4    O     O_2   0.139659 0.742099 0.439549 -0.562118
O5    O     O_R   0.500000 0.686040 0.383390 -0.626391
O6    O     O_R   0.500030 0.313950 0.383350 -0.607842
O7    O     O_R   0.499970 0.686050 0.616650 -0.610455
O8    O     O_R   0.416140 0.499970 0.616650 -0.601595
O9    O     O_R   0.583860 0.500030 0.383350 -0.619966
O10   O     O_R   0.416170 0.499960 0.383400 -0.617109
O11   O     O_R   0.583830 0.500040 0.616600 -0.580519
O12   O     O_2   0.840449 0.689421 0.413082 -0.582707
Zn1   Zn    Zn3+2 0.499980 0.500010 0.655740 0.975977
Zn2   Zn    Zn3+2 0.500020 0.499990 0.344260 0.959532

loop_
_geom_bond_atom_site_label_1
_geom_bond_atom_site_label_2
_ccdc_geom_bond_type
C49   N5    S    
C45   C60   A    
C34   C56   A    
C23   C45   A    
C27   C29   A    
C41   N19   T    
C25   O12   S    
C24   N4    S    
C2    N10   S    
C19   C46   S    
O1    Zn1   S    
C55   N11   T    
C29   C36   A    
H7    N5    S    
C33   C39   A    
C28   O4    S    
C17   O11   A    
C19   C21   S    
C26   N12   A    
H25   N9    S    
C18   C44   S    
O8    Zn1   S    
O11   Zn1   S    
C18   N17   S    
C11   C14   S    
C53   N9    S    
N17   Zn2   S    
C34   N8    S    
C60   C62   A    
C16   C60   S    
C52   H22   S    
C51   H18   S    
C54   H31   S    
C17   C61   S    
C21   C43   S    
C3    C55   S    
C7    C14   S    
C20   C24   S    
C62   N9    S    
C49   H10   S    
C58   H36   S    
C4    C57   S    
C31   C33   A    
N16   Zn1   S    
C10   H34   S    
C1    O6    A    
C51   H19   S    
C2    C61   A    
C42   N20   T    
C9    H23   S    
O7    Zn1   S    
C21   C22   S    
C16   O10   A    
C58   H35   S    
H44   N3    S    
C52   N8    S    
C59   N15   S    
C37   C39   A    
C19   N16   S    
C58   N14   S    
C56   H12   S    
C5    N12   S    
C59   H39   S    
C32   C35   A    
C43   N21   T    
C35   C38   A    
H16   N7    S    
C4    C6    A    
C28   N12   A    
C47   H2    S    
C38   N5    S    
C1    O1    A    
C57   N13   T    
C45   H1    S    
C51   N7    S    
H11   N6    S    
C6    C34   A    
C30   C37   A    
C50   N6    S    
C27   O3    S    
C52   H21   S    
C2    C4    A    
H3    N4    S    
C54   H30   S    
C54   H32   S    
C50   H14   S    
C12   O5    A    
O9    Zn2   S    
C14   H42   S    
C31   C32   A    
C5    C23   A    
C36   C40   S    
C54   N10   S    
C39   N6    S    
C40   N18   T    
H29   N10   S    
C17   O9    A    
C48   H6    S    
C9    C11   S    
H33   N14   S    
C8    C10   S    
O5    Zn2   S    
C48   N4    S    
C47   H46   S    
C8    C15   S    
C47   H45   S    
C49   H8    S    
C13   C15   S    
C53   H27   S    
C24   N17   S    
C6    N1    S    
C1    C13   S    
C7    N14   S    
C21   N17   S    
C50   H15   S    
C26   O2    S    
C3    C62   A    
C7    C9    S    
C18   C22   S    
C59   H40   S    
C12   O7    A    
C16   O8    A    
C58   H37   S    
O10   Zn2   S    
C3    C5    A    
C10   C13   S    
C20   C42   S    
C11   C12   S    
C8    N15   S    
C22   N16   S    
C25   N1    A    
H38   N15   S    
C59   H41   S    
C15   H43   S    
C36   C38   A    
C19   C24   S    
C9    C15   S    
H20   N8    S    
C28   C30   A    
O6    Zn2   S    
C46   N2    T    
C50   H13   S    
C30   C32   A    
C8    C11   S    
C47   N3    S    
C52   H24   S    
C53   H26   S    
C18   C20   S    
C48   H5    S    
C37   C41   S    
C51   H17   S    
C20   N16   S    
C23   N7    S    
C26   C35   A    
C7    C13   S    
C27   N1    A    
C29   C31   A    
C22   N3    S    
C49   H9    S    
C25   C33   A    
C53   H28   S    
C56   C61   A    
C48   H4    S    
C44   N22   T    
C10   C14   S    
