data_mof_unit_3246.cif
_audit_creation_date              2012-12-10T16:43:25-0500
_audit_creation_method            fapswitch 2.2
_symmetry_space_group_name_H-M    P1
_symmetry_Int_Tables_number       1
_space_group_crystal_system       triclinic
_cell_length_a                    10.7665
_cell_length_b                    8.724339
_cell_length_c                    7.440106
_cell_angle_alpha                 102.991595
_cell_angle_beta                  94.546186
_cell_angle_gamma                 92.707951
_cell_volume                      677.297997898

loop_
_atom_site_label
_atom_site_type_symbol
_atom_type_description
_atom_site_fract_x
_atom_site_fract_y
_atom_site_fract_z
_atom_type_partial_charge
C1    C     C_R   0.502066 0.200288 0.452665 0.772984
C2    C     C_R   0.078498 0.630822 0.653043 0.015109
C3    C     C_R   0.130054 0.526369 0.507415 -0.077560
C4    C     C_R   0.053328 0.437406 0.355997 -0.222790
C5    C     C_R   0.925728 0.438452 0.353682 -0.216077
C6    C     C_R   0.871899 0.531159 0.501056 -0.075459
C7    C     C_2   0.513883 0.033188 0.424132 0.236825
C8    C     C_2   0.504025 0.967560 0.568838 -0.421000
C9    C     C_R   0.263066 0.509526 0.503275 0.768724
C10   C     C_R   0.504720 0.800277 0.546164 0.879546
C11   C     C_R   0.737585 0.512058 0.500292 0.779869
C12   C     C_R   0.153642 0.735743 0.798371 -0.251876
C13   C     C_R   0.100683 0.835533 0.941521 0.501591
C14   C     C_R   0.971067 0.843279 0.932413 -0.242901
C15   C     C_R   0.895285 0.745935 0.786836 -0.250063
C16   C     C_R   0.947117 0.634708 0.648432 0.096720
Cu1   Cu    Cu3+1 0.513920 0.517380 0.684380 0.952989
Cu2   Cu    Cu3+1 0.486080 0.482620 0.315620 0.974390
H1    H     H_    0.092209 0.361266 0.241090 0.170186
H2    H     H_    0.598208 0.621773 0.051820 0.250217
H3    H     H_    0.253972 0.746802 0.801942 0.189601
H4    H     H_    0.929155 0.927871 0.035956 0.148966
H5    H     H_    0.796549 0.763288 0.781934 0.177393
H6    H     H_    0.868762 0.361553 0.238967 0.162260
H7    H     H_    0.491383 0.037322 0.706154 0.141398
H8    H     H_    0.401855 0.378149 0.948128 0.229897
N1    N     N_2   0.465100 0.456430 0.038520 -0.212940
N2    N     N_2   0.534900 0.543570 0.961480 -0.203145
O1    O     O_R   0.509050 0.286130 0.619770 -0.596554
O2    O     O_R   0.485540 0.256780 0.308360 -0.583838
O3    O     O_R   0.331410 0.514680 0.655740 -0.591610
O4    O     O_R   0.307900 0.485330 0.344330 -0.584409
O5    O     O_R   0.514460 0.743220 0.691640 -0.603084
O6    O     O_R   0.490950 0.713870 0.380230 -0.516917
O7    O     O_R   0.692100 0.514670 0.655670 -0.585473
O8    O     O_R   0.668590 0.485320 0.344260 -0.591368
O9    O     O_3   0.178317 0.938858 0.076891 -0.609429
C17   C     C_3   0.163393 0.910106 0.254239 0.066610
H9    H     H_    0.250899 0.863431 0.303217 0.186828
H10   H     H_    0.085436 0.821914 0.258121 0.130771
C18   C     C_3   0.142749 0.065854 0.387083 -0.366994
H11   H     H_    0.219728 0.154263 0.383618 0.231453
H12   H     H_    0.053034 0.109310 0.341347 0.218092
C19   C     C_3   0.137947 0.047484 0.585263 -0.881641
H13   H     H_    0.058080 0.964655 0.592786 0.265090
H14   H     H_    0.125140 0.163703 0.677496 0.263495
H15   H     H_    0.226354 0.002970 0.634266 0.250845
O10   O     O_3   0.536669 0.943703 0.251811 -0.711592
H16   H     H_    0.552448 0.013000 0.166264 0.334869

loop_
_geom_bond_atom_site_label_1
_geom_bond_atom_site_label_2
_ccdc_geom_bond_type
O9    C17   S    
C3    C9    S    
Cu1   O1    S    
C18   H11   S    
C13   O9    S    
C4    H1    S    
C19   H15   S    
C2    C12   A    
C7    O10   S    
C14   H4    S    
C15   H5    S    
C2    C3    A    
C7    C8    D    
C10   O6    A    
C13   C14   A    
C19   H13   S    
C17   H10   S    
C8    H7    S    
C18   H12   S    
H8    N1    S    
C5    C6    A    
C5    H6    S    
Cu1   O5    S    
Cu2   O2    S    
C11   O7    A    
O10   H16   S    
C19   H14   S    
Cu1   Cu2   S    
C10   O5    A    
Cu2   O6    S    
C1    O2    A    
C17   H9    S    
Cu1   O3    S    
C18   C19   S    
Cu2   O4    S    
C1    O1    A    
C6    C16   A    
C15   C16   A    
N1    N2    D    
C2    C16   A    
C12   C13   A    
C17   C18   S    
C8    C10   S    
C6    C11   S    
C9    O3    A    
C14   C15   A    
C11   O8    A    
Cu1   O7    S    
H2    N2    S    
C9    O4    A    
C1    C7    S    
Cu1   N2    S    
Cu2   O8    S    
C12   H3    S    
Cu2   N1    S    
C3    C4    A    
C4    C5    A    
