data_mof_unit_3559.cif
_audit_creation_date              2013-03-05T15:45:32-0500
_audit_creation_method            fapswitch 2.2
_symmetry_space_group_name_H-M    P1
_symmetry_Int_Tables_number       1
_space_group_crystal_system       triclinic
_cell_length_a                    11.03119
_cell_length_b                    10.94667
_cell_length_c                    18.782214
_cell_angle_alpha                 89.797248
_cell_angle_beta                  89.884118
_cell_angle_gamma                 59.983007
_cell_volume                      1963.83356495

loop_
_atom_site_label
_atom_site_type_symbol
_atom_site_description
_atom_site_fract_x
_atom_site_fract_y
_atom_site_fract_z
_atom_type_partial_charge
O1    O     O_R   0.507430 0.255570 0.581420 -0.499619
O2    O     O_R   0.280190 0.527390 0.578910 -0.463430
C1    C     C_R   0.287601 0.625002 0.615673 0.541257
O3    O     O_R   0.260310 0.739740 0.584580 -0.503792
O4    O     O_R   0.532250 0.695150 0.573830 -0.527680
C2    C     C_R   0.651139 0.614691 0.602997 0.595175
O5    O     O_R   0.744930 0.503430 0.576380 -0.428549
O6    O     O_R   0.699250 0.276390 0.571950 -0.496391
C3    C     C_R   0.626243 0.231797 0.604001 0.540018
O7    O     O_R   0.499020 0.256400 0.419850 -0.510300
O8    O     O_R   0.272400 0.528160 0.429140 -0.502919
C4    C     C_R   0.219206 0.650586 0.401976 0.548036
O9    O     O_R   0.251910 0.740570 0.423020 -0.508598
O10   O     O_R   0.524460 0.695920 0.424060 -0.502098
C5    C     C_R   0.641864 0.625178 0.393031 0.563862
O11   O     O_R   0.736530 0.504260 0.414810 -0.508512
O12   O     O_R   0.691460 0.277160 0.422180 -0.508689
C6    C     C_R   0.618422 0.227440 0.396048 0.551712
Cr1   Cr    Cr6+3 0.392930 0.397900 0.502230 1.078400
Cr2   Cr    Cr6+3 0.398240 0.708600 0.501260 1.051141
Cr3   Cr    Cr6+3 0.708800 0.393470 0.496460 1.094630
O13   O     O_3   0.499990 0.499990 0.499980 -0.305771
C7    C     C_3   0.576286 0.804933 0.778769 0.092151
H1    H     H_    0.480902 0.814237 0.802022 0.202492
C8    C     C_3   0.570725 0.788375 0.698588 -0.216731
H2    H     H_    0.461483 0.818925 0.684752 0.129064
H3    H     H_    0.590124 0.864005 0.668625 0.236461
H4    H     H_    0.865352 0.713906 0.778321 0.188960
C9    C     C_3   0.839125 0.629802 0.771552 -0.180466
C10   C     C_3   0.667902 0.548640 0.803046 -0.291432
C11   C     C_3   0.700784 0.669585 0.812384 -0.048076
H5    H     H_    0.758462 0.446409 0.819960 0.171998
H6    H     H_    0.577677 0.566953 0.837155 0.136731
C12   C     C_3   0.674395 0.633995 0.677401 -0.006135
C13   C     C_3   0.833424 0.592183 0.692298 0.400596
C14   C     C_3   0.631645 0.543105 0.724178 -0.275539
H7    H     H_    0.517131 0.585762 0.720105 0.081808
H8    H     H_    0.675778 0.434309 0.704941 0.198755
H9    H     H_    0.927174 0.539203 0.798888 0.159300
C15   C     C_R   0.789472 0.120044 0.706589 -0.013978
H10   H     H_    0.878706 0.067582 0.671258 0.184723
C16   C     C_R   0.808044 0.101575 0.780174 -0.047922
H11   H     H_    0.908533 0.020490 0.798739 0.197532
C17   C     C_R   0.692075 0.166511 0.826816 0.041347
C18   C     C_R   0.559445 0.255479 0.799041 -0.089093
H12   H     H_    0.468266 0.303731 0.833349 0.145388
C19   C     C_R   0.541120 0.265001 0.726050 -0.093739
H13   H     H_    0.437955 0.321490 0.705173 0.135439
C20   C     C_R   0.654327 0.198364 0.679361 0.052491
C21   C     C_R   0.219470 0.551535 0.725813 -0.099436
H14   H     H_    0.222629 0.466689 0.696385 0.228898
C22   C     C_R   0.191096 0.565296 0.797975 -0.186818
H15   H     H_    0.171569 0.488394 0.824009 0.175913
C23   C     C_R   0.180804 0.680797 0.835175 -0.007550
C24   C     C_R   0.204469 0.782612 0.798708 0.206120
C25   C     C_R   0.234296 0.763227 0.726445 -0.120102
H16   H     H_    0.250489 0.839554 0.697931 0.180162
C26   C     C_R   0.244247 0.647109 0.690110 0.003776
C27   C     C_R   0.783543 0.595626 0.288521 -0.157138
H17   H     H_    0.878300 0.530799 0.318731 0.152782
C28   C     C_R   0.792044 0.599348 0.215934 -0.186074
H18   H     H_    0.895573 0.539926 0.193046 0.153788
C29   C     C_R   0.671689 0.678749 0.173812 0.004529
C30   C     C_R   0.539462 0.756724 0.206733 0.214885
C31   C     C_R   0.532047 0.749660 0.280799 -0.123989
H19   H     H_    0.430737 0.803089 0.306586 0.191802
C32   C     C_R   0.653614 0.666222 0.321224 -0.026496
C33   C     C_R   0.605527 0.077986 0.302695 -0.125644
H20   H     H_    0.553924 0.040750 0.338630 0.142293
C34   C     C_R   0.616567 0.043614 0.231299 -0.132450
H21   H     H_    0.577938 0.976536 0.212663 0.153738
C35   C     C_R   0.677641 0.095980 0.184226 0.029414
C36   C     C_R   0.729589 0.181806 0.208445 -0.134613
H22   H     H_    0.777145 0.223475 0.172537 0.148506
C37   C     C_R   0.720985 0.214193 0.279668 -0.144184
H23   H     H_    0.757633 0.284440 0.297065 0.147247
C38   C     C_R   0.656519 0.164623 0.326679 0.028162
C39   C     C_R   0.064107 0.815355 0.309596 -0.089337
H24   H     H_    0.047115 0.905053 0.341322 0.143318
C40   C     C_R   0.021163 0.836622 0.239157 -0.094042
H25   H     H_    0.971988 0.942142 0.217560 0.124830
C41   C     C_R   0.053513 0.721387 0.195137 0.036416
C42   C     C_R   0.116396 0.585101 0.223985 -0.129057
H26   H     H_    0.140915 0.494410 0.191213 0.146930
C43   C     C_R   0.158174 0.563588 0.294678 -0.134781
H27   H     H_    0.215387 0.456306 0.314586 0.148359
C44   C     C_R   0.139382 0.677936 0.336502 0.027676
O14   O     O_R   0.089490 0.825610 0.930610 -0.400497
O15   O     O_R   0.818370 0.054540 0.929880 -0.485059
C45   C     C_R   0.701912 0.104835 0.897111 0.563352
O16   O     O_R   0.605870 0.077310 0.915530 -0.444479
O17   O     O_R   0.646440 0.806700 0.917570 -0.434081
C46   C     C_R   0.723240 0.687376 0.888403 0.560616
O18   O     O_R   0.837200 0.593290 0.915250 -0.534295
O19   O     O_R   0.065330 0.635370 0.931590 -0.515860
C47   C     C_R   0.117136 0.709053 0.905579 0.574187
O20   O     O_R   0.068300 0.828790 0.091860 -0.447838
O21   O     O_R   0.798730 0.057480 0.079370 -0.538519
C48   C     C_R   0.698030 0.050201 0.111373 0.508885
O22   O     O_R   0.584680 0.080480 0.076790 -0.464043
O23   O     O_R   0.626790 0.809640 0.067050 -0.446137
C49   C     C_R   0.698122 0.691081 0.098810 0.565874
O24   O     O_R   0.816010 0.596460 0.076500 -0.541452
O25   O     O_R   0.045680 0.638310 0.081070 -0.504545
C50   C     C_R   0.027907 0.745704 0.119029 0.530959
Cr4   Cr    Cr6+3 0.937620 0.938540 0.007640 1.100573
Cr5   Cr    Cr6+3 0.625150 0.937450 0.994520 1.168872
Cr6   Cr    Cr6+3 0.937990 0.625080 0.001190 1.031085
O26   O     O_3   0.833590 0.833690 0.001120 -0.335723
N1    N     N_R   0.578746 0.933812 0.792142 0.095063
O27   O     O_R   0.679243 0.946555 0.764435 -0.381462
O28   O     O_R   0.463666 0.046458 0.810872 -0.252292
S1    S     S_3+6 0.963324 0.400026 0.682533 0.061666
O29   O     O_2   0.002214 0.356888 0.606275 -0.162620
O30   O     O_2   0.095953 0.363474 0.721060 -0.319122
O31   O     O_3   0.910376 0.293769 0.717576 -0.570994
H28   H     H_    0.960637 0.259607 0.763421 0.376903
S2    S     S_3+6 0.207755 0.930809 0.838764 -0.005839
O32   O     O_2   0.316112 0.876355 0.896837 -0.262325
O33   O     O_2   0.244066 0.007065 0.783585 -0.277233
O34   O     O_3   0.055558 0.051952 0.875307 -0.522303
H29   H     H_    0.073677 0.125663 0.894255 0.365287
S3    S     S_3+6 0.382589 0.859012 0.158180 0.020373
O35   O     O_2   0.379194 0.988737 0.129025 -0.281373
O36   O     O_2   0.375335 0.773548 0.097606 -0.220379
O37   O     O_3   0.243297 0.909609 0.211560 -0.551166
H30   H     H_    0.165448 0.991666 0.187157 0.363120
S4    S     S_3+6 0.886152 0.692130 0.632525 0.035451
O38   O     O_2   0.768683 0.790698 0.584358 -0.330240
O39   O     O_2   0.933113 0.778648 0.673473 -0.304167
O40   O     O_3   0.018191 0.582019 0.579415 -0.440648
H31   H     H_    0.012324 0.638909 0.537018 0.364589

loop_
_geom_bond_atom_site_label_1
_geom_bond_atom_site_label_2
_geom_bond_distance
_ccdc_geom_bond_type
C39   C44   1.397977 A    
O23   Cr5   1.942902 S    
C24   C25   1.387736 A    
O14   C47   1.247529 A    
C46   O18   1.264455 A    
Cr5   O26   1.994894 S    
C36   H22   1.083482 S    
O19   C47   1.293490 A    
C31   H19   1.082350 S    
S4    O38   1.503575 D    
S3    O35   1.503054 D    
C19   C20   1.396168 A    
O4    Cr2   1.963116 S    
C18   H12   1.083573 S    
C25   H16   1.078243 S    
O8    Cr1   1.944806 S    
O37   H30   0.990603 S    
H4    C9    1.102249 S    
C10   C11   1.548402 S    
C39   C40   1.385263 A    
S3    O36   1.502940 D    
C5    O11   1.274685 A    
Cr6   O26   1.977323 S    
C12   C13   1.600925 S    
C41   C50   1.455268 S    
C28   C29   1.410279 A    
N1    O27   1.292722 A    
Cr4   O26   1.992146 S    
C27   C32   1.385782 A    
S2    O32   1.503868 D    
C42   H26   1.082872 S    
O6    C3    1.280058 A    
C31   C32   1.408130 A    
O15   Cr4   1.949192 S    
C21   C22   1.382110 A    
C7    H1    1.095202 S    
C34   H21   1.076453 S    
C23   C47   1.455794 S    
O9    Cr2   2.080465 S    
C8    C12   1.546414 S    
C35   C36   1.400261 A    
S1    O31   1.673333 S    
O20   C50   1.299005 A    
C15   C16   1.396690 A    
C27   H17   1.084237 S    
C10   H6    1.113519 S    
Cr3   O13   1.995606 S    
C36   C37   1.375994 A    
C28   H18   1.081170 S    
C16   C17   1.413966 A    
C29   C49   1.457415 S    
O18   Cr6   2.088321 S    
C11   C46   1.479724 S    
O25   C50   1.305199 A    
C22   C23   1.400693 A    
O12   C6    1.276124 A    
N1    O28   1.300351 A    
C43   C44   1.404841 A    
C27   C28   1.368232 A    
O1    Cr1   2.063337 S    
C21   C26   1.378166 A    
O23   C49   1.278295 A    
O10   Cr2   1.964759 S    
Cr1   O13   1.991334 S    
C3    C20   1.455335 S    
C40   C41   1.399256 A    
C39   H24   1.083458 S    
C33   H20   1.083687 S    
S3    O37   1.679047 S    
C21   H14   1.067947 S    
C8    H2    1.108605 S    
C43   H27   1.083324 S    
O12   Cr3   1.965039 S    
C2    C12   1.456427 S    
S2    O34   1.680069 S    
C7    C11   1.562359 S    
C37   H23   1.083925 S    
O16   Cr5   2.061482 S    
O14   Cr4   2.087783 S    
O17   Cr5   1.967111 S    
C19   H13   1.061730 S    
O7    Cr1   2.087796 S    
C5    C32   1.445998 S    
C9    H9    1.106896 S    
O6    Cr3   1.945680 S    
O1    C3    1.275005 A    
C37   C38   1.399983 A    
C15   C20   1.392940 A    
O34   H29   0.990642 S    
O24   Cr6   2.078573 S    
O20   Cr4   2.070423 S    
C15   H10   1.083314 S    
C42   C43   1.386543 A    
Cr2   O13   1.977622 S    
C41   C42   1.400307 A    
C16   H11   1.073866 S    
C1    O3    1.275312 A    
S4    O40   1.677951 S    
O25   Cr6   1.965717 S    
C17   C45   1.460060 S    
C22   H15   1.082697 S    
S1    O29   1.502712 D    
C33   C38   1.398765 A    
C7    N1    1.447413 S    
C23   C24   1.436814 A    
C14   H7    1.108871 S    
O22   Cr5   2.086482 S    
C4    C44   1.454400 S    
O2    Cr1   1.968149 S    
C17   C18   1.391067 A    
C40   H25   1.078747 S    
S4    O39   1.501489 D    
O8    C4    1.268943 A    
O11   Cr3   2.066967 S    
C2    O5    1.243066 A    
C8    H3    1.105156 S    
C30   S3    1.772141 S    
C9    C13   1.555651 S    
O21   Cr4   1.966186 S    
C48   O22   1.297049 A    
C10   C14   1.544408 S    
C30   C31   1.397492 A    
C14   H8    1.099164 S    
O2    C1    1.310746 A    
C9    C11   1.561852 S    
O5    Cr3   2.087141 S    
C10   H5    1.109728 S    
C45   O16   1.284554 A    
O4    C2    1.280483 A    
O7    C6    1.271254 A    
C6    C38   1.435972 S    
O17   C46   1.272794 A    
C25   C26   1.399913 A    
O31   H28   0.990413 S    
C13   S1    1.870170 S    
C12   C14   1.563908 S    
C7    C8    1.522510 S    
C49   O24   1.262058 A    
S2    O33   1.502682 D    
O19   Cr6   1.960772 S    
C29   C30   1.411702 A    
O3    Cr2   2.086984 S    
C1    C26   1.458029 S    
C18   C19   1.382109 A    
C4    O9    1.271042 A    
C33   C34   1.382640 A    
O21   C48   1.298904 A    
C13   S4    1.849629 S    
O10   C5    1.270168 A    
C34   C35   1.394488 A    
O15   C45   1.274936 A    
C35   C48   1.436980 S    
O40   H31   0.991194 S    
S1    O30   1.496927 D    
C24   S2    1.807385 S    
