data_mof_unit_1713.cif
_audit_creation_date              2012-12-11T14:48:45-0500
_audit_creation_method            fapswitch 2.2
_symmetry_space_group_name_H-M    P1
_symmetry_Int_Tables_number       1
_space_group_crystal_system       triclinic
_cell_length_a                    7.237838
_cell_length_b                    19.024069
_cell_length_c                    19.114908
_cell_angle_alpha                 90.029008
_cell_angle_beta                  86.643449
_cell_angle_gamma                 90.00665
_cell_volume                      2627.47601344

loop_
_atom_site_label
_atom_site_type_symbol
_atom_type_description
_atom_site_fract_x
_atom_site_fract_y
_atom_site_fract_z
_atom_type_partial_charge
O1    O     O_R   0.350610 0.187000 0.656530 -0.529382
O2    O     O_R   0.649390 0.813000 0.343470 -0.516255
O3    O     O_R   0.149390 0.687000 0.343470 -0.516012
O4    O     O_R   0.850610 0.313000 0.656530 -0.526047
O5    O     O_R   0.655920 0.179060 0.799470 -0.532663
O6    O     O_R   0.344080 0.820940 0.200530 -0.530331
O7    O     O_R   0.844080 0.679060 0.200530 -0.530090
O8    O     O_R   0.155920 0.320940 0.799470 -0.530891
O9    O     O_R   0.826150 0.314000 0.799910 -0.532424
O10   O     O_R   0.173850 0.686000 0.200090 -0.536680
O11   O     O_R   0.673850 0.814000 0.200090 -0.537418
O12   O     O_R   0.326150 0.186000 0.799910 -0.540182
C1    C     C_R   0.484663 0.161660 0.822815 0.675689
C2    C     C_R   0.515334 0.838339 0.177185 0.680637
C3    C     C_R   0.015328 0.661655 0.177194 0.681605
C4    C     C_R   0.984683 0.338086 0.823040 0.754820
O13   O     O_R   0.680230 0.178680 0.657050 -0.527734
O14   O     O_R   0.319770 0.821320 0.342950 -0.527432
O15   O     O_R   0.819770 0.678680 0.342950 -0.527965
O16   O     O_R   0.180230 0.321320 0.657050 -0.527463
C5    C     C_R   0.515614 0.162238 0.633990 0.723966
C6    C     C_R   0.484289 0.837118 0.366511 0.730248
C7    C     C_R   0.984306 0.662908 0.366468 0.730538
C8    C     C_R   0.015591 0.337953 0.634172 0.829583
O17   O     O_3   0.504860 0.294770 0.728200 -0.370681
O18   O     O_3   0.495140 0.705230 0.271800 -0.371545
O19   O     O_3   0.995140 0.794770 0.271800 -0.372023
O20   O     O_3   0.004860 0.205230 0.728200 -0.378979
V1    V     V_3+5 0.779710 0.242290 0.728230 1.552364
V2    V     V_3+5 0.220290 0.757710 0.271770 1.542244
V3    V     V_3+5 0.720290 0.742290 0.271770 1.541526
V4    V     V_3+5 0.279710 0.257710 0.728230 1.550999
C9    C     C_1   0.030125 0.611272 0.119537 -0.081496
C10   C     C_1   0.969885 0.388363 0.880794 -0.054821
C11   C     C_1   0.469874 0.111340 0.880523 -0.085962
C12   C     C_1   0.530106 0.888687 0.119503 -0.085024
C13   C     C_2   0.068388 0.522511 0.009683 -0.106684
C14   C     C_2   0.931643 0.477032 0.990722 -0.107369
C15   C     C_2   0.431652 0.022775 0.990519 -0.105212
C16   C     C_2   0.568338 0.977312 0.009559 -0.106234
C17   C     C_1   0.956182 0.429290 0.930041 0.081821
C18   C     C_1   0.043830 0.570291 0.070333 0.083021
C19   C     C_1   0.543750 0.929618 0.070271 0.083093
C20   C     C_1   0.456226 0.070438 0.929780 0.082123
C21   C     C_R   0.018158 0.389907 0.576063 -0.165137
C22   C     C_R   0.985175 0.611890 0.425162 -0.183236
C23   C     C_R   0.485225 0.888586 0.424955 -0.183498
C24   C     C_R   0.517788 0.110784 0.575390 -0.191753
C25   C     C_R   0.984416 0.586069 0.550603 -0.093570
C26   C     C_R   0.077885 0.419392 0.451984 -0.050738
C27   C     C_R   0.575417 0.081572 0.451061 -0.061113
C28   C     C_R   0.490068 0.915187 0.550230 -0.038419
C29   C     C_R   0.985943 0.635939 0.495210 -0.103792
C30   C     C_R   0.085950 0.370190 0.507852 -0.161476
C31   C     C_R   0.585174 0.130612 0.507170 -0.128667
C32   C     C_R   0.487988 0.865015 0.495112 -0.127850
C33   C     C_R   0.987105 0.539083 0.410630 -0.081390
C34   C     C_R   0.964028 0.460385 0.589806 -0.064874
C35   C     C_R   0.462055 0.040639 0.588807 -0.081275
C36   C     C_R   0.486738 0.961322 0.410023 -0.074868
C37   C     C_R   0.014740 0.489679 0.465377 0.078230
C38   C     C_R   0.985618 0.512273 0.535902 -0.009828
C39   C     C_R   0.486349 0.988670 0.535095 0.061413
C40   C     C_R   0.513820 0.011112 0.464537 0.057979
C41   C     C_2   0.868075 0.478474 0.658437 0.361903
H1    H     H_    0.747262 0.512309 0.659788 0.104004
O21   O     O_2   0.925661 0.457977 0.713593 -0.536506
C42   C     C_2   0.938018 0.516124 0.339562 0.444938
H2    H     H_    0.989411 0.544629 0.293270 0.009992
O22   O     O_2   0.832075 0.466983 0.332588 -0.485182
C43   C     C_2   0.437480 0.983710 0.338850 0.438322
H3    H     H_    0.490532 0.955324 0.292693 0.006013
O23   O     O_2   0.329531 0.032144 0.331638 -0.488768
C44   C     C_2   0.364954 0.024099 0.657658 0.443108
H4    H     H_    0.408412 0.048302 0.705411 0.004738
O24   O     O_2   0.229766 0.985574 0.660989 -0.485463
C45   C     C_2   0.746940 0.472995 0.029940 0.827652
O25   O     O_2   0.647613 0.421917 0.021862 -0.538716
O26   O     O_R   0.683415 0.527170 0.074623 -0.645412
H5    H     H_    0.555786 0.517524 0.097322 0.315021
C46   C     C_2   0.253106 0.526524 0.970475 0.829389
O27   O     O_2   0.352361 0.577639 0.978477 -0.536909
O28   O     O_R   0.316739 0.472280 0.925898 -0.645422
H6    H     H_    0.444364 0.481915 0.903191 0.316661
C47   C     C_2   0.753063 0.973208 0.970359 0.820589
O29   O     O_2   0.852426 0.922176 0.978532 -0.537104
O30   O     O_R   0.816568 0.027271 0.925584 -0.648288
H7    H     H_    0.944203 0.017588 0.902903 0.313843
C48   C     C_2   0.246959 0.026911 0.029742 0.826317
O31   O     O_2   0.147543 0.077915 0.021503 -0.538716
O32   O     O_R   0.183558 0.972922 0.074627 -0.646511
H8    H     H_    0.055941 0.982626 0.097314 0.311467
C49   C     C_2   0.021211 0.611283 0.621995 0.853152
O33   O     O_2   0.175517 0.603932 0.643775 -0.513831
O34   O     O_R   0.879168 0.641621 0.664609 -0.619274
H9    H     H_    0.921589 0.655955 0.712174 0.334593
C50   C     C_2   0.154226 0.398775 0.381041 0.896747
O35   O     O_2   0.280651 0.432684 0.352311 -0.540216
O36   O     O_R   0.081824 0.340398 0.347555 -0.595631
H10   H     H_    0.145272 0.331576 0.299666 0.337749
C51   C     C_2   0.650186 0.102034 0.379888 0.899772
O37   O     O_2   0.586947 0.153081 0.350592 -0.483997
O38   O     O_R   0.792865 0.062617 0.346641 -0.653971
H11   H     H_    0.831861 0.081433 0.298407 0.322008
C52   C     C_2   0.541635 0.891895 0.620772 0.860486
O39   O     O_2   0.435536 0.856175 0.658001 -0.472689
O40   O     O_R   0.710444 0.913771 0.645363 -0.645792
H12   H     H_    0.730205 0.895827 0.694293 0.327429
C53   C     C_2   0.168596 0.298472 0.495380 0.868866
O41   O     O_2   0.300976 0.290682 0.453382 -0.512866
O42   O     O_R   0.097724 0.239984 0.532254 -0.655952
H13   H     H_    0.166779 0.195021 0.519269 0.313980
C54   C     C_2   0.982854 0.713375 0.510507 0.847096
O43   O     O_2   0.892415 0.736213 0.561534 -0.507775
O44   O     O_R   0.079708 0.760540 0.465944 -0.655965
H14   H     H_    0.062966 0.811279 0.481338 0.306581
C55   C     C_2   0.483279 0.787817 0.510544 0.848487
O45   O     O_2   0.384855 0.765063 0.559503 -0.493722
O46   O     O_R   0.586085 0.740718 0.467813 -0.658786
H15   H     H_    0.567013 0.689971 0.482772 0.301132
C56   C     C_2   0.668749 0.202177 0.494943 0.881517
O47   O     O_2   0.800307 0.209912 0.452561 -0.511762
O48   O     O_R   0.599735 0.260580 0.532484 -0.652502
H16   H     H_    0.669149 0.305469 0.519548 0.308762

loop_
_geom_bond_atom_site_label_1
_geom_bond_atom_site_label_2
_ccdc_geom_bond_type
C34   C38   A    
C24   C31   A    
O30   H7    S    
C31   C56   S    
O1    C5    A    
C51   O37   D    
O13   V1    S    
C32   C55   S    
O3    C7    A    
O34   H9    S    
O15   V3    S    
C50   O35   D    
O48   H16   S    
C47   O29   D    
C52   O40   S    
C26   C30   A    
C44   O24   D    
O28   H6    S    
C9    C18   T    
O20   V1    S    
O9    C4    A    
C1    C11   S    
O10   C3    A    
C55   O46   S    
C2    C12   S    
O4    C8    A    
O11   C2    A    
O44   H14   S    
O8    C4    A    
C13   C18   S    
C50   O36   S    
C23   C36   A    
C16   C19   S    
O16   C8    A    
C42   H2    S    
C41   O21   D    
O2    C6    A    
O40   H12   S    
O14   V2    S    
C48   O32   S    
O5    C1    A    
O4    V1    S    
O9    V1    S    
C5    C24   S    
C4    C10   S    
O17   V4    S    
O7    C3    A    
C6    C23   S    
O11   V3    S    
O18   V3    S    
C49   O34   S    
C7    C22   S    
O12   V4    S    
O19   V2    S    
C13   C46   S    
C10   C17   T    
C46   O28   S    
C29   C54   S    
C46   O27   D    
O5    V1    S    
C45   O26   S    
C21   C34   A    
O7    V3    S    
C44   H4    S    
C47   O30   S    
O8    V4    S    
C14   C17   S    
O32   H8    S    
C43   O23   D    
C36   C43   S    
C45   O25   D    
O1    V4    S    
O13   C5    A    
O26   H5    S    
C30   C53   S    
O2    V3    S    
C16   C47   S    
O3    V2    S    
O15   C7    A    
C13   C14   D    
O6    C2    A    
O10   V2    S    
C34   C41   S    
O36   H10   S    
C49   O33   D    
C11   C20   T    
C35   C44   S    
C56   O47   D    
O6    V2    S    
C21   C30   A    
C22   C33   A    
C8    C21   S    
C33   C42   S    
C15   C16   D    
C24   C35   A    
C54   O43   D    
O16   V4    S    
C26   C50   S    
C25   C38   A    
O42   H13   S    
O14   C6    A    
C27   C40   A    
C28   C39   A    
C28   C52   S    
O46   H15   S    
C33   C37   A    
C15   C20   S    
C14   C45   S    
C27   C51   S    
C52   O39   D    
C35   C39   A    
C51   O38   S    
C36   C40   A    
C53   O42   S    
C43   H3    S    
C53   O41   D    
C25   C29   A    
C22   C29   A    
C3    C9    S    
C27   C31   A    
C37   C38   A    
C56   O48   S    
C39   C40   A    
O12   C1    A    
C42   O22   D    
C41   H1    S    
O38   H11   S    
C26   C37   A    
C12   C19   T    
C25   C49   S    
C48   O31   D    
C55   O45   D    
C15   C48   S    
C28   C32   A    
C23   C32   A    
C54   O44   S    
