data_mof_unit_3176.cif
_audit_creation_date              2013-03-05T15:45:55-0500
_audit_creation_method            fapswitch 2.2
_symmetry_space_group_name_H-M    P1
_symmetry_Int_Tables_number       1
_space_group_crystal_system       triclinic
_cell_length_a                    18.269662
_cell_length_b                    18.30305
_cell_length_c                    18.390308
_cell_angle_alpha                 120.057164
_cell_angle_beta                  120.145694
_cell_angle_gamma                 59.709506
_cell_volume                      4332.11848731

loop_
_atom_site_label
_atom_site_type_symbol
_atom_site_description
_atom_site_fract_x
_atom_site_fract_y
_atom_site_fract_z
_atom_type_partial_charge
Zn1   Zn    Zn3+2 0.956630 0.130130 0.543370 1.007542
Zn2   Zn    Zn3+2 0.130140 0.956620 0.543380 1.025970
Zn3   Zn    Zn3+2 0.956630 0.956620 0.369870 1.035213
Zn4   Zn    Zn3+2 0.956610 0.956630 0.543370 1.038432
O1    O     O_3   0.000000 1.000000 0.500000 -0.507681
O2    O     O_R   0.055060 0.884200 0.615800 -0.612382
O3    O     O_R   0.884210 0.176520 0.444920 -0.626333
O4    O     O_R   0.176540 0.055080 0.615800 -0.640167
O5    O     O_R   0.884190 0.884200 0.323480 -0.660547
O6    O     O_R   0.176540 0.884190 0.444930 -0.629704
O7    O     O_R   0.884180 0.055090 0.615790 -0.629287
O8    O     O_R   0.055100 0.884190 0.323490 -0.604124
O9    O     O_R   0.884190 0.176530 0.615790 -0.631687
O10   O     O_R   0.055100 0.176520 0.615800 -0.619250
O11   O     O_R   0.884180 0.884200 0.444920 -0.588093
O12   O     O_R   0.176510 0.884190 0.615800 -0.645972
O13   O     O_R   0.884210 0.055080 0.323480 -0.632021
C1    C     C_R   0.140148 0.856825 0.636882 0.872585
C2    C     C_R   0.855021 0.140642 0.360293 0.787684
C3    C     C_R   0.140219 0.139984 0.641760 0.797642
C4    C     C_R   0.857481 0.862734 0.360311 0.850856
C5    C     C_R   0.141294 0.855248 0.361133 0.947110
C6    C     C_R   0.859091 0.140215 0.638708 0.770230
H1    H     H_    0.542430 0.226227 0.455819 0.123838
C7    C     C_R   0.941555 0.198603 0.826795 -0.204182
C8    C     C_R   0.984499 0.221664 0.918114 -0.170375
C9    C     C_R   0.936028 0.264291 0.976165 0.230561
C10   C     C_R   0.841334 0.282950 0.939688 0.094405
C11   C     C_R   0.795205 0.269582 0.846156 0.018100
C12   C     C_R   0.847156 0.221957 0.789439 0.045165
C13   C     C_R   0.699487 0.301848 0.807094 -0.131660
C14   C     C_R   0.657125 0.282238 0.713614 0.062879
C15   C     C_R   0.710140 0.229266 0.657772 0.097385
C16   C     C_R   0.804441 0.197857 0.696153 -0.094264
C17   C     C_R   0.562201 0.313889 0.674184 -0.126969
C18   C     C_R   0.521601 0.293685 0.582098 -0.091332
C19   C     C_R   0.574089 0.241803 0.527320 -0.103805
C20   C     C_R   0.667418 0.209838 0.564372 -0.091901
H2    H     H_    0.983686 0.163274 0.785796 0.134451
H3    H     H_    0.056989 0.202196 0.942977 0.152620
H4    H     H_    0.518258 0.354285 0.713790 0.111737
H5    H     H_    0.449070 0.318396 0.553164 0.135044
H6    H     H_    0.705526 0.169854 0.519094 0.093183
H7    H     H_    0.779357 0.086950 0.181050 0.178258
C21   C     C_R   0.760862 0.343223 0.430748 0.146229
C22   C     C_R   0.774886 0.426560 0.474871 0.215974
C23   C     C_R   0.782137 0.462925 0.427647 -0.005643
C24   C     C_R   0.763567 0.421863 0.334363 0.286040
C25   C     C_R   0.743893 0.340948 0.290685 -0.075459
C26   C     C_R   0.764928 0.293501 0.343201 -0.085262
C27   C     C_R   0.790192 0.198645 0.305236 -0.057614
C28   C     C_R   0.764288 0.158831 0.212353 -0.157196
H8    H     H_    0.691044 0.180541 0.087282 0.170878
C29   C     C_R   0.717091 0.211776 0.158723 -0.235079
C30   C     C_R   0.705780 0.303420 0.196927 -0.010071
H9    H     H_    0.876469 0.721384 0.218643 0.167773
C31   C     C_R   0.693592 0.911719 0.393246 -0.255326
H10   H     H_    0.731653 0.956872 0.435540 0.171587
C32   C     C_R   0.616266 0.933924 0.409253 0.364055
C33   C     C_R   0.560856 0.881607 0.351104 -0.199481
H11   H     H_    0.499562 0.898567 0.360606 0.187661
C34   C     C_R   0.583768 0.806542 0.280197 -0.209945
H12   H     H_    0.536472 0.770838 0.236073 0.160633
C35   C     C_R   0.664427 0.779984 0.266351 0.068096
C36   C     C_R   0.719261 0.834483 0.322643 0.039117
C37   C     C_R   0.796570 0.811579 0.304737 -0.062753
C38   C     C_R   0.817383 0.737944 0.231904 -0.228755
C39   C     C_R   0.765966 0.682297 0.178214 0.190423
C40   C     C_R   0.690149 0.702144 0.195902 -0.076510
H13   H     H_    0.276959 0.877581 0.782416 0.146662
C41   C     C_R   0.120880 0.675276 0.571724 0.315072
C42   C     C_R   0.109036 0.596874 0.553013 -0.179857
H14   H     H_    0.061464 0.570654 0.490408 0.184065
C43   C     C_R   0.160763 0.548618 0.611320 -0.222389
H15   H     H_    0.152252 0.486877 0.594270 0.160270
C44   C     C_R   0.225569 0.577466 0.689919 -0.173659
H16   H     H_    0.266941 0.534378 0.730273 0.155919
C45   C     C_R   0.237221 0.658444 0.714378 0.072774
C46   C     C_R   0.183643 0.709829 0.655547 -0.033493
C47   C     C_R   0.196826 0.792116 0.683940 -0.075003
C48   C     C_R   0.265756 0.816223 0.762025 -0.234056
H17   H     H_    0.370420 0.785938 0.877785 0.153313
C49   C     C_R   0.318742 0.764409 0.816688 -0.189221
C50   C     C_R   0.303373 0.687767 0.795372 -0.042360
C51   C     C_R   0.278535 0.670927 0.369504 0.247832
C52   C     C_R   0.309605 0.576486 0.344568 -0.129632
H18   H     H_    0.319333 0.543599 0.385360 0.144236
C53   C     C_R   0.336156 0.522140 0.269968 -0.202187
H19   H     H_    0.362546 0.449934 0.253244 0.143643
C54   C     C_R   0.335588 0.560481 0.221002 -0.132130
H20   H     H_    0.362056 0.515843 0.166549 0.118403
C55   C     C_R   0.298693 0.654304 0.240062 0.042720
C56   C     C_R   0.259059 0.709525 0.307665 -0.052316
C57   C     C_R   0.202191 0.799671 0.309151 -0.258088
C58   C     C_R   0.199112 0.836535 0.255739 0.264548
C59   C     C_R   0.251242 0.784225 0.199754 0.077417
C60   C     C_R   0.301070 0.693747 0.192793 -0.126242
H21   H     H_    0.127112 0.278650 0.619709 0.165513
C61   C     C_R   0.277100 0.115596 0.811578 -0.241483
H22   H     H_    0.235666 0.073664 0.773486 0.148122
C62   C     C_R   0.343111 0.103702 0.891651 -0.147057
H23   H     H_    0.352269 0.051847 0.910946 0.141390
C63   C     C_R   0.396585 0.158248 0.946594 0.290031
C64   C     C_R   0.384175 0.224110 0.919586 -0.255924
H24   H     H_    0.424631 0.267002 0.964670 0.139972
C65   C     C_R   0.318656 0.236271 0.837815 0.075053
C66   C     C_R   0.264202 0.181297 0.783053 0.099327
C67   C     C_R   0.196310 0.195937 0.702825 -0.059101
C68   C     C_R   0.180069 0.266405 0.680258 -0.167763
H25   H     H_    0.220884 0.372893 0.713648 0.149359
C69   C     C_R   0.233290 0.320001 0.733657 -0.198696
C70   C     C_R   0.303661 0.304155 0.810651 -0.046132
Zn5   Zn    Zn3+2 0.543340 0.369890 0.956600 0.975957
Zn6   Zn    Zn3+2 0.543340 0.543410 0.130100 1.018361
Zn7   Zn    Zn3+2 0.369830 0.543410 0.956590 0.951258
Zn8   Zn    Zn3+2 0.543370 0.543400 0.956600 0.984225
O14   O     O_3   0.499970 0.500030 0.999970 -0.494905
O15   O     O_R   0.615800 0.615830 0.055050 -0.625389
O16   O     O_R   0.444880 0.323510 0.884180 -0.637546
O17   O     O_R   0.615760 0.444950 0.176490 -0.613501
O18   O     O_R   0.323460 0.615830 0.884170 -0.651030
O19   O     O_R   0.444880 0.615840 0.176480 -0.643646
O20   O     O_R   0.615800 0.444940 0.884180 -0.637504
O21   O     O_R   0.323440 0.615840 0.055040 -0.641473
O22   O     O_R   0.615780 0.323500 0.884180 -0.612813
O23   O     O_R   0.615760 0.323500 0.055050 -0.665013
O24   O     O_R   0.444910 0.615830 0.884180 -0.635074
O25   O     O_R   0.615780 0.615830 0.176490 -0.598117
O26   O     O_R   0.323430 0.444950 0.884170 -0.642395
C71   C     C_R   0.638298 0.641591 0.139844 0.823454
C72   C     C_R   0.359803 0.360013 0.861359 0.783929
C73   C     C_R   0.643906 0.359790 0.140153 0.816269
C74   C     C_R   0.359647 0.638491 0.858246 0.764012
C75   C     C_R   0.359360 0.641448 0.139150 0.842293
C76   C     C_R   0.642586 0.359705 0.862706 0.850836
N1    N     N_2   0.733160 0.314452 0.469812 -0.242785
H26   H     H_    0.727535 0.251526 0.435243 0.203344
C77   C     C_3   0.657723 0.378322 0.501813 -0.674811
H27   H     H_    0.603705 0.349115 0.469144 0.188476
H28   H     H_    0.627560 0.441584 0.487210 0.241221
H29   H     H_    0.680521 0.393911 0.574815 0.278027
N2    N     N_R   0.789035 0.469747 0.568748 0.217518
O27   O     O_R   0.843524 0.423337 0.622618 -0.348622
O28   O     O_R   0.739360 0.552103 0.598980 -0.405567
N3    N     N_2   0.812306 0.537786 0.473649 -0.235410
H30   H     H_    0.783992 0.589205 0.521279 0.284268
C78   C     C_3   0.908885 0.514121 0.504517 -0.655987
H31   H     H_    0.926195 0.575585 0.534313 0.242226
H32   H     H_    0.935073 0.467682 0.448032 0.250549
H33   H     H_    0.941658 0.481807 0.555897 0.231765
N4    N     N_R   0.778940 0.454059 0.287693 0.229094
O29   O     O_R   0.818620 0.397485 0.228362 -0.470280
O30   O     O_R   0.759628 0.539457 0.308658 -0.344716
N5    N     N_R   0.594123 0.009620 0.484340 0.205069
O31   O     O_R   0.655571 0.042559 0.551452 -0.389670
O32   O     O_R   0.514149 0.042296 0.489065 -0.386256
N6    N     N_2   0.791720 0.605364 0.106843 -0.290716
H34   H     H_    0.820133 0.614660 0.077104 0.232436
C79   C     C_3   0.845068 0.523505 0.128528 -0.720448
H35   H     H_    0.910913 0.527981 0.180678 0.247417
H36   H     H_    0.857090 0.466580 0.067850 0.227751
H37   H     H_    0.809351 0.510430 0.152594 0.269722
N7    N     N_R   0.071873 0.713600 0.501805 0.191596
O33   O     O_R   0.115061 0.722377 0.469633 -0.452235
O34   O     O_R   0.989491 0.714964 0.454286 -0.390096
N8    N     N_R   0.145251 0.928370 0.260633 0.205692
O35   O     O_R   0.087979 0.948164 0.188464 -0.382616
O36   O     O_R   0.153635 0.992527 0.337198 -0.402304
N9    N     N_2   0.284598 0.725263 0.460440 -0.264608
H38   H     H_    0.313141 0.772474 0.483544 0.252279
C80   C     C_3   0.323230 0.682887 0.526536 -0.704297
H39   H     H_    0.323063 0.735113 0.592742 0.253895
H40   H     H_    0.394070 0.638884 0.531527 0.218835
H41   H     H_    0.283379 0.643548 0.510060 0.257842
N10   N     N_2   0.257904 0.823658 0.154128 -0.322232
H42   H     H_    0.259110 0.888319 0.188834 0.255093
C81   C     C_3   0.203527 0.807838 0.060645 -0.626744
H43   H     H_    0.150556 0.871649 0.050354 0.248733
H44   H     H_    0.170322 0.758786 0.035306 0.253718
H45   H     H_    0.246981 0.781448 0.021164 0.224785
N11   N     N_2   0.464244 0.145928 0.028330 -0.303913
H46   H     H_    0.511724 0.175365 0.054670 0.222665
C82   C     C_3   0.431334 0.163627 0.094572 -0.807886
H47   H     H_    0.489094 0.150990 0.154927 0.240664
H48   H     H_    0.393505 0.118757 0.069019 0.245846
H49   H     H_    0.387187 0.234772 0.113605 0.235296
N12   N     N_2   0.983485 0.281571 0.070033 -0.305876
H50   H     H_    0.946827 0.305886 0.110142 0.258485
C83   C     C_3   0.050693 0.323164 0.110135 -0.779145
H51   H     H_    0.074159 0.342795 0.183867 0.250084
H52   H     H_    0.021978 0.384239 0.092322 0.241011
H53   H     H_    0.110233 0.275459 0.088626 0.242524
N13   N     N_2   0.795071 0.303282 0.994266 -0.324329
H54   H     H_    0.801557 0.357413 0.051888 0.228765
C84   C     C_3   0.807201 0.225189 0.006573 -0.636601
H55   H     H_    0.773334 0.245842 0.052782 0.250090
H56   H     H_    0.879613 0.189238 0.035786 0.231776
H57   H     H_    0.777821 0.178815 0.941673 0.250022

loop_
_geom_bond_atom_site_label_1
_geom_bond_atom_site_label_2
_geom_bond_distance
_ccdc_geom_bond_type
C80   H39   1.109546 S    
C23   N3    1.424518 S    
N6    H34   1.031969 S    
Zn7   O18   1.936700 S    
Zn8   O20   1.932020 S    
C4    C37   1.452486 S    
C5    C57   1.462503 S    
N9    H38   1.031199 S    
C29   C30   1.401979 A    
C18   H5    1.082543 S    
C58   C59   1.400492 A    
C8    H3    1.081171 S    
C64   C65   1.415037 A    
N3    H30   1.028971 S    
C54   H20   1.082778 S    
C22   N2    1.436332 S    
C65   C70   1.417506 A    
H8    C29   1.083264 S    
Zn8   O14   1.949183 S    
O26   C72   1.272380 A    
C80   H40   1.111447 S    
O9    C6    1.269603 A    
C8    C9    1.396722 A    
C62   H23   1.082717 S    
C41   N7    1.435496 S    
C49   C50   1.391489 A    
Zn1   O1    1.940326 S    
C10   C11   1.434994 A    
C78   H32   1.111263 S    
C19   C20   1.392828 A    
C44   C45   1.413749 A    
C82   H48   1.110281 S    
C47   C48   1.397205 A    
C52   C53   1.386210 A    
C31   C32   1.402240 A    
Zn5   O22   1.936556 S    
C65   C66   1.415906 A    
O8    C5    1.292504 A    
C59   N10   1.427438 S    
C67   C68   1.396513 A    
N10   C81   1.449981 S    
C33   C34   1.391649 A    
C83   H52   1.111213 S    
H13   C48   1.084728 S    
H25   C69   1.084305 S    
O19   C75   1.279992 A    
C34   C35   1.415256 A    
Zn3   O8    1.929786 S    
N3    C78   1.446541 S    
Zn5   O16   1.931781 S    
N7    O33   1.300145 A    
C51   C56   1.436613 A    
C78   H31   1.110474 S    
C39   C40   1.408204 A    
C81   H44   1.112475 S    
Zn8   O24   1.929709 S    
O16   C72   1.271437 A    
C66   C67   1.417673 A    
C79   H36   1.108898 S    
Zn2   O12   1.936846 S    
N5    O32   1.301540 A    
C84   H57   1.111022 S    
O22   C76   1.272281 A    
N4    O30   1.301098 A    
C37   C38   1.393317 A    
C32   C33   1.396448 A    
C62   C63   1.397864 A    
H21   C68   1.084155 S    
O17   C73   1.278164 A    
N8    O36   1.301358 A    
N9    C80   1.451797 S    
C57   C58   1.411855 A    
C60   C75   1.450697 S    
C41   C46   1.438979 A    
C64   H24   1.080668 S    
C48   C49   1.377884 A    
C32   N5    1.438474 S    
C28   C29   1.384060 A    
C55   C60   1.406028 A    
C15   C16   1.408139 A    
N11   C82   1.447193 S    
O2    C1    1.273368 A    
C80   H41   1.108632 S    
C50   C74   1.456923 S    
C43   H15   1.082980 S    
C12   C16   1.411106 A    
C27   C28   1.400652 A    
C23   C24   1.415647 A    
O10   C3    1.272206 A    
C78   H33   1.111521 S    
C44   H16   1.079609 S    
C13   C76   1.456194 S    
C82   H49   1.111837 S    
C52   H18   1.080361 S    
C40   C71   1.456771 S    
C9    N12   1.434631 S    
Zn5   O23   1.936530 S    
N13   C84   1.448274 S    
C7    C8    1.383707 A    
C51   C52   1.413513 A    
H17   C49   1.084170 S    
C45   C50   1.418716 A    
O6    C5    1.264806 A    
C38   C39   1.385943 A    
C14   C15   1.409644 A    
O20   C76   1.279077 A    
C33   H11   1.082788 S    
C17   C18   1.393750 A    
Zn6   O19   1.929642 S    
N11   H46   1.032177 S    
C83   H53   1.109144 S    
C82   H47   1.110663 S    
C14   C17   1.418881 A    
C11   C12   1.413363 A    
O15   C71   1.279904 A    
C2    C27   1.469320 S    
Zn6   O25   1.933683 S    
C7    H2    1.082369 S    
C54   C55   1.411682 A    
C79   H35   1.111546 S    
O23   C73   1.284492 A    
N4    O29   1.301438 A    
C81   H45   1.109752 S    
C59   C60   1.404079 A    
C34   H12   1.079965 S    
C10   N13   1.421596 S    
C79   H37   1.110231 S    
C26   C27   1.419776 A    
C56   C57   1.434088 A    
O4    C3    1.271982 A    
C35   C40   1.419951 A    
Zn4   O7    1.932021 S    
Zn3   O5    1.933684 S    
C21   N1    1.436166 S    
N5    O31   1.301063 A    
C77   H28   1.111610 S    
C81   H43   1.110745 S    
Zn5   O14   1.940474 S    
C42   C43   1.382710 A    
C24   C25   1.422353 A    
C61   C62   1.393847 A    
C53   C54   1.385551 A    
C30   C73   1.466135 S    
O3    C2    1.278139 A    
N8    O35   1.300771 A    
C25   C26   1.401900 A    
N2    O28   1.300835 A    
Zn4   O2    1.929767 S    
Zn1   O9    1.936510 S    
C43   C44   1.384605 A    
C39   N6    1.423888 S    
Zn2   O6    1.938463 S    
C58   N8    1.438959 S    
C63   C64   1.400801 A    
C61   C66   1.413760 A    
N1    C77   1.453486 S    
Zn7   O26   1.934644 S    
C7    C12   1.410494 A    
Zn7   O14   1.935180 S    
C22   C23   1.413625 A    
C18   C19   1.389084 A    
C6    C16   1.451314 S    
Zn7   O21   1.938357 S    
C69   C70   1.395965 A    
N7    O34   1.300955 A    
Zn1   O3    1.936532 S    
C13   C14   1.417381 A    
Zn2   O4    1.934645 S    
O24   C74   1.275232 A    
C31   C36   1.417162 A    
C42   H14   1.083263 S    
Zn3   O1    1.952436 S    
C77   H29   1.109860 S    
O25   C71   1.279926 A    
H7    C28   1.083149 S    
N6    C79   1.445292 S    
H1    C19   1.082498 S    
H9    C38   1.084866 S    
C63   N11   1.424913 S    
C15   C20   1.416894 A    
C61   H22   1.080594 S    
O21   C75   1.267845 A    
O12   C1    1.277238 A    
Zn4   O11   1.935312 S    
C68   C69   1.382115 A    
C20   H6    1.082352 S    
C11   C13   1.429804 A    
N10   H42   1.031507 S    
C25   C30   1.421220 A    
C84   H55   1.103762 S    
C35   C36   1.415008 A    
C45   C46   1.428339 A    
O5    C4    1.281866 A    
C31   H10   1.078915 S    
O11   C4    1.277500 A    
C21   C26   1.417757 A    
Zn4   O1    1.949034 S    
O7    C6    1.277132 A    
C55   C56   1.413745 A    
O13   C2    1.285814 A    
Zn8   O15   1.935313 S    
Zn3   O13   1.930573 S    
C36   C37   1.417990 A    
C70   C72   1.452234 S    
C83   H51   1.111299 S    
C17   H4    1.082038 S    
C51   N9    1.434247 S    
N12   C83   1.449866 S    
Zn6   O14   1.952435 S    
C77   H27   1.111578 S    
C46   C47   1.432067 A    
Zn2   O1    1.935180 S    
C21   C22   1.412885 A    
N12   H50   1.028253 S    
C41   C42   1.402954 A    
C53   H19   1.082889 S    
C1    C47   1.453764 S    
N13   H54   1.029171 S    
C24   N4    1.441688 S    
C9    C10   1.423900 A    
N2    O27   1.301307 A    
N1    H26   1.030313 S    
Zn1   O10   1.932029 S    
O18   C74   1.275809 A    
Zn6   O17   1.930572 S    
C3    C67   1.452871 S    
C84   H56   1.110806 S    
