data_mof_unit_2033.cif
_audit_creation_date              2012-12-10T18:33:37-0500
_audit_creation_method            fapswitch 2.2
_symmetry_space_group_name_H-M    P1
_symmetry_Int_Tables_number       1
_space_group_crystal_system       triclinic
_cell_length_a                    10.588502
_cell_length_b                    14.958114
_cell_length_c                    15.659145
_cell_angle_alpha                 82.878861
_cell_angle_beta                  89.827131
_cell_angle_gamma                 103.063073
_cell_volume                      2396.10408365

loop_
_atom_site_label
_atom_site_type_symbol
_atom_type_description
_atom_site_fract_x
_atom_site_fract_y
_atom_site_fract_z
_atom_type_partial_charge
C1    C     C_R   0.477833 0.442229 0.661587 0.871042
C2    C     C_R   0.523293 0.557698 0.338328 0.903030
C3    C     C_R   0.446598 0.462682 0.814214 -0.086180
C4    C     C_R   0.551920 0.533260 0.186411 0.001090
C5    C     C_R   0.470178 0.440146 0.901469 0.096063
C6    C     C_R   0.533266 0.557422 0.098773 0.054080
C7    C     C_R   0.525412 0.362871 0.923995 0.058084
C8    C     C_R   0.485903 0.637625 0.074832 0.069544
C9    C     C_R   0.462388 0.500858 0.963377 -0.100543
C10   C     C_R   0.539729 0.496564 0.037296 -0.142695
C11   C     C_R   0.619366 0.431408 0.046759 0.396732
C12   C     C_R   0.386488 0.568826 0.953412 0.414257
C13   C     C_R   0.596750 0.358215 0.997859 -0.191370
C14   C     C_R   0.414797 0.643460 0.000899 -0.208726
C15   C     C_R   0.596418 0.810477 0.678864 0.383715
C16   C     C_R   0.460914 0.196578 0.321524 0.364768
C17   C     C_R   0.624627 0.740545 0.633043 0.386710
C18   C     C_R   0.415206 0.263330 0.361176 0.385743
C19   C     C_R   0.534341 0.802571 0.506578 0.545485
C20   C     C_R   0.446080 0.194693 0.500904 0.528361
C21   C     C_R   0.551532 0.889051 0.539997 -0.244021
C22   C     C_R   0.495859 0.124285 0.466899 -0.173502
C23   C     C_R   0.741539 0.499683 0.502954 0.944517
C24   C     C_R   0.257715 0.500407 0.497547 0.959771
C25   C     C_R   0.566602 0.890307 0.630133 -0.261302
C26   C     C_R   0.505123 0.125629 0.375042 -0.308121
C27   C     C_R   0.550866 0.972602 0.486085 -0.153655
C28   C     C_R   0.530861 0.050325 0.521487 -0.083469
C29   C     C_R   0.561947 0.055110 0.608251 0.405608
C30   C     C_R   0.591727 0.985774 0.399015 0.408753
C31   C     C_R   0.563776 0.974280 0.664790 0.410904
C32   C     C_R   0.558184 0.056132 0.341664 0.439245
C33   C     C_3   0.931528 0.423107 0.548631 -0.484532
C34   C     C_3   0.066500 0.579017 0.452535 -0.507272
C35   C     C_3   0.042378 0.496025 0.580044 0.324581
C36   C     C_3   0.955206 0.506614 0.420873 0.313654
C37   C     C_3   0.121373 0.498635 0.497183 -0.239575
C38   C     C_3   0.876920 0.502916 0.503754 -0.243691
C39   C     C_3   0.010067 0.427067 0.464826 0.469306
C40   C     C_3   0.986795 0.575335 0.536036 0.469090
C41   C     C_R   0.469680 0.406738 0.753108 -0.066048
C42   C     C_R   0.536893 0.592597 0.246398 -0.059197
C43   C     C_R   0.529193 0.299959 0.865380 -0.165601
C44   C     C_R   0.491735 0.703386 0.131903 -0.167730
C45   C     C_R   0.500896 0.321812 0.779969 -0.226722
C46   C     C_R   0.521078 0.681655 0.217371 -0.198648
H1    H     H_    0.873293 0.361294 0.588239 0.185702
H2    H     H_    0.120730 0.639317 0.409871 0.185125
H3    H     H_    0.653360 0.306022 0.008690 0.204045
H4    H     H_    0.363345 0.698553 0.988762 0.177001
H5    H     H_    0.567211 0.465233 0.208768 0.236659
H6    H     H_    0.422371 0.528035 0.792296 0.219549
H7    H     H_    0.518841 0.730894 0.261982 0.208793
H8    H     H_    0.516124 0.276738 0.733795 0.216830
H9    H     H_    0.567230 0.239030 0.883266 0.148470
H10   H     H_    0.462349 0.767597 0.112655 0.141852
N1    N     N_R   0.574200 0.731700 0.552740 -0.193057
N2    N     N_R   0.425800 0.268300 0.447260 -0.245230
O1    O     O_R   0.462600 0.383110 0.605620 -0.589259
O2    O     O_R   0.537400 0.616890 0.394380 -0.575147
O3    O     O_R   0.510210 0.531900 0.639510 -0.662094
O4    O     O_R   0.489790 0.468100 0.360490 -0.551344
O5    O     O_R   0.662240 0.425610 0.483080 -0.612448
O6    O     O_R   0.337760 0.574390 0.516920 -0.613122
O7    O     O_R   0.709860 0.574400 0.516970 -0.573283
O8    O     O_R   0.290140 0.425600 0.483030 -0.602642
Zn1   Zn    Zn3+2 0.468210 0.400660 0.477370 1.027748
Zn2   Zn    Zn3+2 0.531790 0.599340 0.522630 1.034989
S1    S     S_3+6 0.105548 0.482828 0.684048 0.070828
O9    O     O_2   0.137510 0.389482 0.701561 -0.310236
O10   O     O_2   0.227088 0.556744 0.686567 -0.243143
O11   O     O_3   0.996057 0.492477 0.758166 -0.461732
H11   H     H_    0.915596 0.447607 0.746620 0.328085
S2    S     S_3+6 0.893210 0.526781 0.316912 0.051750
O12   O     O_2   0.764120 0.461097 0.312829 -0.277116
O13   O     O_2   0.875334 0.624283 0.301363 -0.284287
O14   O     O_3   0.996870 0.511004 0.241883 -0.469577
H12   H     H_    0.074717 0.561826 0.243992 0.344621
O15   O     O_3   0.406614 0.185024 0.586582 -0.569473
C47   C     C_3   0.272100 0.181380 0.591748 0.088449
H13   H     H_    0.216476 0.130474 0.551346 0.097185
H14   H     H_    0.252645 0.250711 0.570920 0.204663
C48   C     C_3   0.222465 0.151091 0.684409 -0.773475
H15   H     H_    0.272934 0.201243 0.726669 0.275668
H16   H     H_    0.116748 0.147817 0.688642 0.220875
H17   H     H_    0.239382 0.081522 0.706935 0.225304
O16   O     O_3   0.488167 0.790440 0.425189 -0.552523
C49   C     C_3   0.355559 0.791971 0.424327 0.083746
H18   H     H_    0.338945 0.859441 0.438666 0.127103
H19   H     H_    0.300473 0.735937 0.472091 0.140165
C50   C     C_3   0.303457 0.776112 0.335701 -0.868813
H20   H     H_    0.303726 0.704712 0.323197 0.245361
H21   H     H_    0.202888 0.786361 0.331841 0.226679
H22   H     H_    0.363944 0.825376 0.285251 0.235955
O17   O     O_3   0.364742 0.328181 0.311558 -0.532821
C51   C     C_3   0.229986 0.294810 0.308200 0.078084
H23   H     H_    0.185269 0.278869 0.374088 0.180729
H24   H     H_    0.206281 0.231005 0.275961 0.156269
C52   C     C_3   0.174402 0.368841 0.256167 -0.567596
H25   H     H_    0.224178 0.389308 0.191869 0.260642
H26   H     H_    0.069649 0.342058 0.246652 0.237467
H27   H     H_    0.188656 0.430766 0.290597 0.238630
O18   O     O_3   0.743509 0.717090 0.647723 -0.602068
C53   C     C_3   0.735256 0.635342 0.705498 0.268684
H28   H     H_    0.753107 0.579663 0.670012 0.164479
H29   H     H_    0.640121 0.608430 0.738525 0.163249
C54   C     C_3   0.840000 0.650937 0.772299 -0.710967
H30   H     H_    0.846195 0.717920 0.797363 0.275055
H31   H     H_    0.817762 0.594013 0.826697 0.226650
H32   H     H_    0.935811 0.651563 0.743463 0.295570
S3    S     S_3+6 0.599120 0.797061 0.794260 0.028556
O19   O     O_2   0.714513 0.865131 0.821678 -0.268470
O20   O     O_2   0.476555 0.816099 0.828305 -0.310639
O21   O     O_3   0.604285 0.691574 0.841991 -0.631806
H33   H     H_    0.648100 0.701618 0.896952 0.375468
S4    S     S_3+6 0.457276 0.205793 0.205969 0.039476
O22   O     O_2   0.590916 0.215300 0.168357 -0.221310
O23   O     O_2   0.367592 0.120511 0.181349 -0.368793
O24   O     O_3   0.404200 0.297784 0.160288 -0.553164
H34   H     H_    0.361980 0.278888 0.106948 0.375446
O25   O     O_3   0.609402 0.140413 0.636166 -0.582554
C55   C     C_3   0.746441 0.159347 0.638277 0.104707
H35   H     H_    0.786936 0.203578 0.578103 0.147006
H36   H     H_    0.788222 0.096756 0.643931 0.137893
C56   C     C_3   0.790759 0.210952 0.714692 -0.776161
H37   H     H_    0.898366 0.231476 0.713854 0.239084
H38   H     H_    0.751454 0.274011 0.711903 0.232904
H39   H     H_    0.756032 0.165706 0.775707 0.269163
O26   O     O_3   0.673362 0.934690 0.369015 -0.584497
C57   C     C_3   0.792004 0.946980 0.412670 0.139464
H40   H     H_    0.792948 0.882921 0.456635 0.166713
H41   H     H_    0.809760 0.005654 0.451842 0.105779
C58   C     C_3   0.903697 0.963125 0.347149 -0.791616
H42   H     H_    0.904427 0.026233 0.301407 0.266937
H43   H     H_    0.997215 0.972343 0.380632 0.193690
H44   H     H_    0.892986 0.902847 0.310680 0.277291
O27   O     O_3   0.023644 0.347268 0.430055 -0.633474
C59   C     C_3   0.902065 0.299719 0.403212 0.148590
H45   H     H_    0.885089 0.328735 0.336768 0.240830
H46   H     H_    0.819030 0.303253 0.445480 0.156051
C60   C     C_3   0.901867 0.198255 0.402902 -0.911647
H47   H     H_    0.929684 0.168546 0.466688 0.238669
H48   H     H_    0.803285 0.160182 0.388636 0.244713
H49   H     H_    0.970531 0.189842 0.352559 0.248774
O28   O     O_3   0.963008 0.650455 0.575473 -0.567298
C61   C     C_3   0.069945 0.726803 0.560124 0.138169
H50   H     H_    0.085120 0.750254 0.489950 0.129503
H51   H     H_    0.158517 0.708707 0.588528 0.164338
C62   C     C_3   0.044696 0.808937 0.600345 -0.761347
H52   H     H_    0.035305 0.793169 0.671375 0.264945
H53   H     H_    0.127458 0.869403 0.584056 0.175763
H54   H     H_    0.955274 0.827730 0.574631 0.273386
S5    S     S_3+6 0.772608 0.453696 0.094114 0.098179
O29   O     O_2   0.770103 0.384223 0.172204 -0.179437
O30   O     O_2   0.872887 0.441561 0.031082 -0.237104
O31   O     O_3   0.814544 0.561999 0.120131 -0.451551
H55   H     H_    0.826908 0.602594 0.064326 0.350456
S6    S     S_3+6 0.232483 0.551371 0.907149 0.094349
O32   O     O_2   0.193713 0.458151 0.876393 -0.174927
O33   O     O_2   0.133888 0.556979 0.974397 -0.257626
O34   O     O_3   0.234439 0.636586 0.826056 -0.465345
H56   H     H_    0.221632 0.690011 0.853818 0.358114
O35   O     O_3   0.586096 0.983894 0.750792 -0.523770
C63   C     C_3   0.481756 0.011884 0.788874 0.194821
H57   H     H_    0.388373 0.961077 0.783318 0.141005
H58   H     H_    0.471090 0.080973 0.759280 0.171911
C64   C     C_3   0.506855 0.018990 0.883811 -0.766439
H59   H     H_    0.598882 0.070204 0.890775 0.240478
H60   H     H_    0.426264 0.041797 0.913761 0.197913
H61   H     H_    0.513933 0.951066 0.918434 0.293852
O36   O     O_3   0.599912 0.065810 0.256183 -0.526488
C65   C     C_3   0.538324 0.988573 0.215292 0.199862
H62   H     H_    0.431139 0.974839 0.223379 0.146820
H63   H     H_    0.570100 0.924924 0.240057 0.174805
C66   C     C_3   0.574585 0.007101 0.119460 -0.717578
H64   H     H_    0.681634 0.021820 0.109963 0.259695
H65   H     H_    0.530538 0.945333 0.088044 0.175391
H66   H     H_    0.538699 0.066791 0.088047 0.293294

loop_
_geom_bond_atom_site_label_1
_geom_bond_atom_site_label_2
_ccdc_geom_bond_type
C25   C31   A    
C38   C40   S    
O16   C49   S    
C39   O27   S    
C26   C32   A    
C58   H42   S    
C34   C37   S    
S3    O19   D    
O36   C65   S    
C53   H29   S    
O21   H33   S    
C66   H65   S    
O14   H12   S    
C19   N1    A    
C28   C29   A    
C33   C39   S    
S2    O13   D    
C40   O28   S    
C34   C40   S    
O6    Zn2   S    
C63   H57   S    
C35   C37   S    
O26   C57   S    
C19   O16   S    
C62   H53   S    
C31   O35   S    
C2    O2    A    
C15   C25   A    
C51   C52   S    
S4    O22   D    
C42   C46   A    
S1    O10   D    
O18   C53   S    
S6    O34   S    
O1    Zn1   S    
C18   N2    A    
C3    C41   A    
C52   H25   S    
C65   H63   S    
S2    O14   S    
C29   O25   S    
C58   H44   S    
C54   H30   S    
C7    C43   A    
S5    O30   D    
C9    C10   A    
C65   C66   S    
C24   O8    A    
C23   O5    A    
O8    Zn1   S    
C21   C27   A    
C24   O6    A    
C22   C28   A    
C27   C30   A    
S6    O33   D    
C18   O17   S    
C54   H31   S    
C47   C48   S    
C16   S4    S    
C53   H28   S    
C44   C46   A    
O28   C61   S    
C64   H61   S    
C61   H51   S    
C36   C39   S    
C16   C26   A    
O5    Zn1   S    
S2    O12   D    
C4    H5    S    
C15   S3    S    
C47   H14   S    
C59   H45   S    
C62   H54   S    
C64   H59   S    
C5    C7    A    
C66   H66   S    
C47   H13   S    
C6    C8    A    
C64   H60   S    
C51   H24   S    
S6    O32   D    
S1    O11   S    
C57   H41   S    
C5    C9    A    
C50   H21   S    
C61   C62   S    
C44   H10   S    
C48   H15   S    
C49   C50   S    
C3    H6    S    
O7    Zn2   S    
C51   H23   S    
C48   H17   S    
C24   C37   S    
S3    O20   D    
C16   C18   A    
S5    O31   S    
C43   C45   A    
O2    Zn2   S    
O25   C55   S    
C59   H46   S    
C13   H3    S    
O4    Zn1   S    
C4    C6    A    
C48   H16   S    
C1    O1    A    
C49   H19   S    
C45   H8    S    
C56   H37   S    
C33   H1    S    
C54   H32   S    
C60   H49   S    
C57   C58   S    
C34   H2    S    
N1    Zn2   S    
C55   H36   S    
C36   C38   S    
C30   O26   S    
C50   H20   S    
C65   H62   S    
C56   H38   S    
C61   H50   S    
C43   H9    S    
C15   C17   A    
C21   C25   A    
O31   H55   S    
C8    C14   A    
C20   O15   S    
C52   H26   S    
C32   O36   S    
C63   C64   S    
C8    C44   A    
C20   C22   A    
O11   H11   S    
C3    C5    A    
C59   C60   S    
C1    O3    A    
C6    C10   A    
C1    C41   S    
O24   H34   S    
C55   H35   S    
C23   C38   S    
O27   C59   S    
C33   C38   S    
S4    O24   S    
C23   O7    A    
C55   C56   S    
C60   H48   S    
C57   H40   S    
C12   C14   A    
C29   C31   A    
C66   H64   S    
O34   H56   S    
C62   H52   S    
C50   H22   S    
C30   C32   A    
C11   C13   A    
O3    Zn2   S    
C14   H4    S    
C4    C42   A    
C2    C42   S    
C56   H39   S    
C46   H7    S    
C63   H58   S    
C33   C35   S    
S4    O23   D    
C35   C40   S    
S3    O21   S    
C34   C36   S    
C53   C54   S    
C17   O18   S    
S1    O9    D    
C9    C12   A    
O35   C63   S    
C10   C11   A    
C11   S5    S    
O15   C47   S    
N2    Zn1   S    
C7    C13   A    
C52   H27   S    
C49   H18   S    
C35   S1    S    
C37   C39   S    
C22   C26   A    
C27   C28   A    
C58   H43   S    
C41   C45   A    
C12   S6    S    
S5    O29   D    
C60   H47   S    
C20   N2    A    
C36   S2    S    
O17   C51   S    
C2    O4    A    
C17   N1    A    
C19   C21   A    
