data_mof_unit_4670.cif
_audit_creation_date              2012-12-11T20:49:06-0500
_audit_creation_method            fapswitch 2.2
_symmetry_space_group_name_H-M    P1
_symmetry_Int_Tables_number       1
_space_group_crystal_system       triclinic
_cell_length_a                    8.517377
_cell_length_b                    18.717463
_cell_length_c                    18.737533
_cell_angle_alpha                 99.994109
_cell_angle_beta                  93.203138
_cell_angle_gamma                 91.076869
_cell_volume                      2936.0482141

loop_
_atom_site_label
_atom_site_type_symbol
_atom_type_description
_atom_site_fract_x
_atom_site_fract_y
_atom_site_fract_z
_atom_type_partial_charge
Ba1   Ba    Ba6+2 0.153490 0.533960 0.468530 1.662947
Ba2   Ba    Ba6+2 0.656680 0.466030 0.531410 1.660937
C1    C     C_3   0.263650 0.770083 0.226106 -0.221674
C2    C     C_R   0.067715 0.907483 0.580969 0.029759
C3    C     C_R   0.207259 0.932536 0.620395 -0.075290
C4    C     C_3   0.893234 0.744065 0.317839 0.271647
C5    C     C_R   0.274315 0.999167 0.614408 -0.072195
C6    C     C_R   0.199510 0.045159 0.571442 0.015338
C7    C     C_R   0.051131 0.023175 0.536766 0.038558
C8    C     C_R   0.272166 0.110924 0.560886 -0.065066
C9    C     C_R   0.183752 0.162874 0.528475 -0.065815
C10   C     C_R   0.030633 0.140867 0.495880 0.030214
C11   C     C_R   0.969080 0.069757 0.497337 0.041823
C12   C     C_3   0.340518 0.727074 0.282058 0.319672
C13   C     C_R   0.236728 0.236759 0.530151 0.057643
C14   C     C_R   0.132547 0.285722 0.504683 -0.303123
C15   C     C_R   0.984801 0.263993 0.470070 0.021022
C16   C     C_3   0.870492 0.812428 0.281782 -0.316561
C17   C     C_R   0.937234 0.189637 0.462031 -0.050063
C18   C     C_R   0.842666 0.928891 0.502770 0.000551
C19   C     C_R   0.784635 0.857102 0.502725 -0.012261
C20   C     C_R   0.873722 0.809306 0.539261 -0.032355
C21   C     C_R   0.010374 0.836932 0.581224 -0.018432
C22   C     C_R   0.796931 0.162752 0.422330 -0.043197
C23   C     C_3   0.381097 0.710272 0.693657 0.264990
C24   C     C_R   0.738623 0.092220 0.422494 0.008356
C25   C     C_R   0.821985 0.046010 0.461603 0.014386
C26   C     C_R   0.758407 0.975870 0.464436 0.005510
C27   C     C_R   0.593263 0.068751 0.386677 -0.074939
C28   C     C_3   0.801575 0.370305 0.301789 0.247215
C29   C     C_R   0.524743 0.001316 0.392294 0.040375
C30   C     C_R   0.609472 0.953257 0.430000 0.031600
C31   C     C_R   0.639101 0.832961 0.465432 -0.041869
C32   C     C_R   0.549906 0.883048 0.433244 -0.122134
C33   C     C_R   0.588707 0.759276 0.461122 -0.014044
C34   C     C_3   0.337997 0.730466 0.772699 -0.361751
C35   C     C_R   0.685351 0.711301 0.491197 -0.248843
C36   C     C_R   0.826897 0.734728 0.530099 0.113551
C37   C     C_2   0.600067 0.524682 0.302168 -0.287190
C38   C     C_3   0.677391 0.575027 0.259019 -0.012594
C39   C     C_2   0.627853 0.559632 0.177730 -0.089873
C40   C     C_3   0.840006 0.349959 0.220814 -0.143992
C41   C     C_2   0.487218 0.523788 0.156517 -0.138905
C42   C     C_2   0.403493 0.488099 0.209677 -0.134218
C43   C     C_1   0.465159 0.490542 0.276979 0.105970
C44   C     C_R   0.311963 0.516846 0.941197 0.464970
C45   C     C_3   0.005327 0.291026 0.712174 0.298327
C46   C     C_R   0.413509 0.521439 0.082189 0.450968
C47   C     C_R   0.376922 0.543943 0.817540 -0.032944
C48   C     C_R   0.337581 0.535163 0.741914 0.014272
C49   C     C_R   0.096801 0.468527 0.756172 0.013286
C50   C     C_R   0.134198 0.476389 0.830884 -0.139432
C51   C     C_R   0.273769 0.513134 0.862269 -0.040175
C52   C     C_3   0.973258 0.627358 0.695975 0.326808
C53   C     C_R   0.201678 0.494593 0.712258 -0.269325
C54   C     C_3   0.929492 0.646816 0.774458 -0.332476
C55   C     C_3   0.332397 0.287953 0.317773 0.233295
C56   C     C_3   0.080110 0.253318 0.771389 -0.274601
C57   C     C_3   0.388647 0.218961 0.267793 -0.166198
C58   C     C_3   0.279183 0.648376 0.266832 -0.174839
C59   C     C_3   0.798921 0.270168 0.188132 -0.361019
C60   C     C_2   0.756229 0.395817 0.173996 0.450599
C61   C     C_3   0.155622 0.285365 0.314874 -0.346913
C62   C     C_2   0.393595 0.288126 0.394187 0.476083
C63   C     C_2   0.297538 0.743066 0.147995 0.469441
C64   C     C_2   0.344618 0.217745 0.188605 0.497178
C65   C     C_3   0.516030 0.730221 0.275814 -0.339211
C66   C     C_2   0.428373 0.777336 0.665805 0.502869
C67   C     C_3   0.528903 0.296027 0.718269 0.399149
C68   C     C_2   0.922213 0.237480 0.652150 0.479636
C69   C     C_3   0.464277 0.366753 0.757475 -0.326914
C70   C     C_3   0.642797 0.277630 0.846546 -0.484238
C71   C     C_2   0.999394 0.765298 0.383587 0.531660
C72   C     C_2   0.445532 0.115374 0.568748 0.536705
C73   C     C_3   0.360761 0.982910 0.358701 -0.400628
C74   C     C_2   0.728057 0.582118 0.122104 0.602317
C75   C     C_3   0.528385 0.582543 0.850193 -0.352627
C76   C     C_2   0.815669 0.796318 0.202985 0.548337
C77   C     C_3   0.573264 0.243073 0.770925 -0.164017
C78   C     C_R   0.987018 0.953199 0.540033 0.016008
H1    H     H_    0.967919 0.359733 0.217134 0.123970
H2    H     H_    0.278220 0.685134 0.659573 -0.000095
H3    H     H_    0.442378 0.753416 0.808047 0.160957
H4    H     H_    0.243822 0.771013 0.777215 0.093525
H5    H     H_    0.293763 0.681985 0.792529 0.070670
H6    H     H_    0.136335 0.767314 0.229398 0.128636
H7    H     H_    0.787695 0.849076 0.312988 0.081897
H8    H     H_    0.102627 0.318211 0.688653 -0.073160
H9    H     H_    0.171223 0.215616 0.748749 0.122767
H10   H     H_    0.135891 0.294360 0.815913 0.091574
H11   H     H_    0.989341 0.222350 0.794794 0.136181
H12   H     H_    0.097142 0.612919 0.695035 -0.074186
H13   H     H_    0.634559 0.308652 0.690490 0.100523
H14   H     H_    0.467165 0.210447 0.778841 0.147565
H15   H     H_    0.659113 0.204366 0.744999 0.176837
H16   H     H_    0.266301 0.900414 0.655691 0.080954
H17   H     H_    0.384143 0.014021 0.645288 0.146714
H18   H     H_    0.168601 0.342322 0.511139 0.053372
H19   H     H_    0.075864 0.803584 0.613237 0.071874
H20   H     H_    0.730360 0.196518 0.391318 0.134746
H21   H     H_    0.529739 0.104441 0.356437 0.111758
H22   H     H_    0.435123 0.867296 0.408842 0.126004
H23   H     H_    0.898038 0.580544 0.668979 0.085775
H24   H     H_    0.785093 0.729652 0.340111 -0.087320
H25   H     H_    0.646464 0.655207 0.486562 0.063866
H26   H     H_    0.290808 0.460500 0.192449 0.122774
H27   H     H_    0.053986 0.454027 0.864731 0.102581
H28   H     H_    0.643772 0.525906 0.357885 0.067152
H29   H     H_    0.172030 0.486127 0.654462 0.060330
H30   H     H_    0.981272 0.845487 0.285678 0.033014
H31   H     H_    0.674850 0.379825 0.306136 0.015815
H32   H     H_    0.869423 0.420687 0.326463 0.046394
H33   H     H_    0.373210 0.613818 0.279310 0.024500
H34   H     H_    0.010985 0.689803 0.804897 0.117616
H35   H     H_    0.193023 0.639865 0.305890 0.196132
H36   H     H_    0.232053 0.629313 0.210172 0.127701
H37   H     H_    0.860751 0.232186 0.218588 0.162213
H38   H     H_    0.670673 0.259406 0.188055 0.092774
H39   H     H_    0.834475 0.257929 0.131217 0.138816
H40   H     H_    0.629065 0.394653 0.169597 -0.003216
H41   H     H_    0.109644 0.280537 0.258141 0.124559
H42   H     H_    0.110879 0.237618 0.336323 0.066600
H43   H     H_    0.116942 0.335979 0.347352 0.102983
H44   H     H_    0.388637 0.336515 0.434787 0.032684
H45   H     H_    0.935305 0.598492 0.801231 0.073363
H46   H     H_    0.414110 0.749978 0.129319 0.077721
H47   H     H_    0.385741 0.261022 0.161954 0.029277
H48   H     H_    0.558859 0.786905 0.293594 0.129529
H49   H     H_    0.565252 0.695088 0.311744 0.029311
H50   H     H_    0.551377 0.708273 0.220494 0.094310
H51   H     H_    0.367886 0.790331 0.617854 -0.016172
H52   H     H_    0.868019 0.257261 0.606038 0.022164
H53   H     H_    0.436359 0.401754 0.717222 0.117841
H54   H     H_    0.356146 0.356123 0.784572 0.085854
H55   H     H_    0.551457 0.396651 0.798473 0.123619
H56   H     H_    0.808292 0.667468 0.776172 0.145127
H57   H     H_    0.550930 0.306814 0.878964 0.150135
H58   H     H_    0.686895 0.234358 0.875513 0.154195
H59   H     H_    0.741860 0.315809 0.843578 0.189461
H60   H     H_    0.043659 0.820765 0.401266 -0.029785
H61   H     H_    0.510408 0.115284 0.521032 0.031959
H62   H     H_    0.310688 0.027981 0.334020 0.125716
H63   H     H_    0.363347 0.934642 0.315404 0.134337
H64   H     H_    0.281440 0.971887 0.400867 0.105356
H65   H     H_    0.712246 0.555537 0.065821 0.015652
H66   H     H_    0.595971 0.547343 0.882016 0.127588
H67   H     H_    0.338967 0.169137 0.284111 0.096934
H68   H     H_    0.605936 0.596281 0.809160 0.130056
H69   H     H_    0.502105 0.634130 0.885871 0.133297
H70   H     H_    0.885759 0.763569 0.164062 0.123658
H71   H     H_    0.518830 0.216591 0.274324 0.064686
H72   H     H_    0.301049 0.828062 0.239957 0.067644
N1    N     N_R   0.362511 0.580320 0.983367 -0.216790
N2    N     N_R   0.412187 0.582553 0.052325 -0.242671
N3    N     N_R   0.356167 0.458327 0.041139 -0.222523
N4    N     N_R   0.306303 0.456107 0.971868 -0.242267
O1    O     O_2   0.117290 0.676350 0.548250 -0.441055
O2    O     O_2   0.771044 0.463957 0.751944 -0.491543
O3    O     O_3   0.893533 0.339229 0.743970 -0.644178
O4    O     O_3   0.869060 0.586940 0.542720 -0.496178
O5    O     O_3   0.438990 0.460930 0.412890 -0.493672
O6    O     O_2   0.623700 0.539890 0.674570 -0.443769
O7    O     O_3   0.510253 0.665041 0.688223 -0.617731
O8    O     O_2   0.577410 0.243837 0.552052 -0.462481
O9    O     O_3   0.410443 0.260920 0.668593 -0.624595
O10   O     O_3   0.356990 0.628630 0.417250 -0.467227
O11   O     O_2   0.290355 0.756852 0.489841 -0.448684
O12   O     O_3   0.388780 0.348385 0.290261 -0.682083
O13   O     O_3   0.956276 0.688590 0.663470 -0.638571
O14   O     O_3   0.302594 0.761082 0.352744 -0.609575
O15   O     O_2   0.186600 0.460070 0.325400 -0.489810
O16   O     O_3   0.942970 0.591450 0.378940 -0.446114
O17   O     O_2   0.993998 0.542924 0.242990 -0.450022
O18   O     O_2   0.830105 0.430436 0.136892 -0.563495
O19   O     O_2   0.443097 0.232782 0.412317 -0.643362
O20   O     O_2   0.192757 0.714916 0.104478 -0.523360
O21   O     O_2   0.262218 0.168251 0.153860 -0.562314
O22   O     O_2   0.538267 0.816389 0.695304 -0.565772
O23   O     O_3   0.952797 0.684390 0.270178 -0.586681
O24   O     O_2   0.912274 0.172745 0.654558 -0.578312
O25   O     O_2   0.033798 0.720085 0.420194 -0.529049
O26   O     O_2   0.516773 0.119581 0.627732 -0.563412
O27   O     O_2   0.829070 0.629906 0.137678 -0.556486
O28   O     O_2   0.696501 0.823156 0.181436 -0.595352
O29   O     O_2   0.693010 0.323600 0.451730 -0.443375
O30   O     O_3   0.941240 0.413050 0.457220 -0.494146
O31   O     O_3   0.453310 0.371360 0.582690 -0.484537
O32   O     O_3   0.839907 0.311769 0.336486 -0.645412
O33   O     O_3   0.371310 0.539060 0.587050 -0.462554
O34   O     O_3   0.867330 0.408540 0.621000 -0.486193
P1    P     P_3+3 0.945300 0.665790 0.568510 1.030172
P2    P     P_3+3 0.360080 0.438780 0.334620 0.946310
P3    P     P_3+3 0.889631 0.598336 0.288488 1.013171
P4    P     P_3+3 0.865000 0.334200 0.431430 0.975090
P5    P     P_3+3 0.910013 0.423158 0.715838 0.905735
P6    P     P_3+3 0.389444 0.723894 0.426541 0.971715
P7    P     P_3+3 0.454262 0.572967 0.675829 0.952205
P8    P     P_3+3 0.423450 0.278506 0.579844 0.979266

loop_
_geom_bond_atom_site_label_1
_geom_bond_atom_site_label_2
_ccdc_geom_bond_type
C21   H19   S    
C4    O23   S    
C59   H39   S    
O11   P6    D    
Ba2   O33   S    
O30   P4    S    
O29   P4    D    
C12   O14   S    
C68   O24   D    
Ba2   O6    S    
C69   H54   S    
Ba2   O30   S    
C15   P4    S    
C5    C6    A    
C55   O12   S    
C45   O3    S    
Ba1   O30   S    
C42   C43   D    
C35   H25   S    
C40   H1    S    
O6    P7    D    
C1    H72   S    
C32   H22   S    
C55   C62   S    
C33   C35   A    
O10   P6    S    
C2    C78   A    
C70   C77   S    
C67   H13   S    
C57   C64   S    
C69   H55   S    
C65   H49   S    
C55   C57   S    
C19   C31   A    
C34   H3    S    
C13   C14   A    
C60   O18   D    
C64   H47   S    
C10   C17   A    
Ba1   Ba2   S    
C67   C69   S    
C7    C11   A    
Ba2   O31   S    
C16   H30   S    
C34   H4    S    
C61   H41   S    
C9    C13   A    
C70   H59   S    
C50   H27   S    
C14   C15   A    
C12   C65   S    
C4    H24   S    
C74   O27   D    
C56   H11   S    
C40   C60   S    
C60   H40   S    
C37   C43   D    
C70   H58   S    
O32   P4    S    
C19   C20   A    
C53   H29   S    
C1    H6    S    
C39   C41   D    
C52   O13   S    
O23   P3    S    
O16   P3    S    
C1    C63   S    
C23   C66   S    
O5    P2    S    
Ba2   O5    S    
C54   H56   S    
C48   P7    S    
O8    P8    D    
C55   C61   S    
C38   P3    S    
C37   H28   S    
C4    C16   S    
C64   O21   D    
C52   C54   S    
C18   C78   A    
O31   P8    S    
C59   H37   S    
C49   C50   A    
Ba2   O34   S    
C52   H23   S    
C26   C30   A    
C77   H14   S    
C8    C9    A    
C75   H69   S    
C37   C38   S    
C3    C5    A    
C2    C21   A    
C6    C7    A    
C18   C26   A    
C62   H44   S    
Ba1   O15   S    
C28   H32   S    
Ba2   P4    S    
C7    C78   A    
C28   O32   S    
C77   H15   S    
C66   H51   S    
O3    P5    S    
C41   C42   S    
O1    P1    D    
C45   C68   S    
C52   H12   S    
C35   C36   A    
C73   H62   S    
C71   O25   D    
C43   P2    S    
C29   C73   S    
C29   C30   A    
C75   H68   S    
C16   C76   S    
C48   C53   A    
C58   H33   S    
C68   H52   S    
C31   C32   A    
C24   C25   A    
C27   H21   S    
C54   H45   S    
C10   C11   A    
C62   O19   D    
C56   H10   S    
C40   C59   S    
C1    C12   S    
C73   H63   S    
C33   P6    S    
C57   H67   S    
O34   P5    S    
Ba2   O4    S    
C70   H57   S    
C46   N3    A    
C74   H65   S    
C36   P1    S    
C42   H26   S    
C63   O20   D    
O17   P3    D    
C23   H2    S    
C67   C77   S    
C65   H50   S    
O13   P1    S    
C15   C17   A    
Ba1   P1    S    
N3    N4    A    
C3    H16   S    
C44   N4    A    
C50   C51   A    
C76   H70   S    
C4    C71   S    
C41   C46   S    
O33   P7    S    
C13   P8    S    
C44   N1    A    
C46   N2    A    
C38   C39   S    
C5    H17   S    
C76   O28   D    
C59   H38   S    
C22   H20   S    
C72   H61   S    
Ba1   O4    S    
C28   C40   S    
C16   H7    S    
O4    P1    S    
C22   C24   A    
C2    C3    A    
C69   H53   S    
C61   H43   S    
C9    C10   A    
C72   O26   D    
C71   H60   S    
C57   H71   S    
C34   H5    S    
C12   C58   S    
Ba1   O16   S    
O2    P5    D    
O12   P2    S    
C28   H31   S    
C63   H46   S    
Ba1   O1    S    
C17   C22   A    
Ba2   O29   S    
C27   C29   A    
C49   P5    S    
C65   H48   S    
C45   H8    S    
C39   C74   S    
O14   P6    S    
C61   H42   S    
C8    C72   S    
C14   H18   S    
Ba1   O10   S    
C23   O7    S    
C47   C51   A    
C44   C51   S    
C66   O22   D    
C31   C33   A    
C47   C75   S    
O15   P2    D    
C49   C53   A    
C56   H9    S    
C67   O9    S    
C58   H36   S    
C73   H64   S    
C23   C34   S    
Ba1   O5    S    
Ba1   P2    S    
C18   C19   A    
O7    P7    S    
C24   C27   A    
C6    C8    A    
C47   C48   A    
C25   C26   A    
C54   H34   S    
C20   C21   A    
C11   C25   A    
C58   H35   S    
N1    N2    A    
O9    P8    S    
C75   H66   S    
C30   C32   A    
C45   C56   S    
C20   C36   A    
Ba1   O33   S    
