data_mof_unit_3794.cif
_audit_creation_date              2012-12-10T17:19:23-0500
_audit_creation_method            fapswitch 2.2
_symmetry_space_group_name_H-M    P1
_symmetry_Int_Tables_number       1
_space_group_crystal_system       triclinic
_cell_length_a                    15.078407
_cell_length_b                    10.864369
_cell_length_c                    9.568355
_cell_angle_alpha                 90.511627
_cell_angle_beta                  90.024886
_cell_angle_gamma                 92.557525
_cell_volume                      1565.83853792

loop_
_atom_site_label
_atom_site_type_symbol
_atom_type_description
_atom_site_fract_x
_atom_site_fract_y
_atom_site_fract_z
_atom_type_partial_charge
C1    C     C_R   0.507457 0.263212 0.500099 0.805880
C2    C     C_R   0.907243 0.510394 0.372259 0.108685
C3    C     C_R   0.953692 0.499237 0.754743 -0.211131
C4    C     C_R   0.046132 0.498494 0.754698 -0.211965
C5    C     C_R   0.092889 0.501314 0.628054 0.109331
C6    C     C_R   0.046558 0.505683 0.500148 0.062471
C7    C     C_R   0.093061 0.508692 0.372181 0.109156
C8    C     C_R   0.046461 0.513367 0.245627 -0.212254
C9    C     C_R   0.954020 0.514325 0.245671 -0.210877
C10   C     C_R   0.185236 0.499517 0.627076 -0.246470
C11   C     C_R   0.231715 0.501912 0.499996 -0.077183
C12   C     C_R   0.328630 0.500136 0.499992 0.823231
C13   C     C_R   0.185414 0.506702 0.373003 -0.246026
C14   C     C_R   0.564474 0.124823 0.751483 -0.155177
C15   C     C_R   0.557367 0.067737 0.880955 -0.157251
C16   C     C_R   0.514107 0.952768 0.891054 -0.142705
C17   C     C_R   0.486319 0.889630 0.770161 -0.163189
C18   C     C_R   0.502382 0.940605 0.635818 0.093779
C19   C     C_R   0.528555 0.066528 0.629543 0.097102
C20   C     C_R   0.516379 0.129648 0.502216 -0.120604
C21   C     C_R   0.500666 0.062817 0.378389 -0.210229
C22   C     C_R   0.493357 0.935646 0.380462 -0.208344
C23   C     C_R   0.495827 0.737801 0.501770 0.783978
C24   C     C_R   0.493564 0.872678 0.507630 -0.114210
C25   C     C_R   0.618800 0.663214 0.145721 -0.175815
C26   C     C_R   0.677607 0.742913 0.074261 0.163970
C27   C     C_R   0.677323 0.741700 0.929774 -0.211160
C28   C     C_R   0.618845 0.662473 0.857117 -0.209257
C29   C     C_R   0.558451 0.580043 0.925874 0.194929
C30   C     C_R   0.558428 0.580187 0.075527 0.165062
C31   C     C_R   0.444661 0.423489 0.073188 -0.068943
C32   C     C_R   0.444669 0.423545 0.925074 -0.069112
C33   C     C_R   0.671368 0.501398 0.500027 0.790943
C34   C     C_R   0.814820 0.509494 0.373125 -0.245939
C35   C     C_R   0.768320 0.504264 0.500118 -0.071985
C36   C     C_R   0.814662 0.501848 0.627218 -0.253968
C37   C     C_R   0.907081 0.502765 0.628141 0.109104
C38   C     C_R   0.953601 0.506485 0.500190 0.062483
Cu1   Cu    Cu3+1 0.499990 0.499990 0.640660 0.920177
Cu2   Cu    Cu3+1 0.500010 0.500010 0.359340 0.928843
H1    H     H_    0.779250 0.512306 0.274757 0.162876
H2    H     H_    0.599651 0.213627 0.748079 0.161118
H3    H     H_    0.582941 0.114427 0.973968 0.136715
H4    H     H_    0.503592 0.911170 0.992477 0.138983
H5    H     H_    0.449361 0.803680 0.785735 0.171245
H6    H     H_    0.485625 0.886696 0.281743 0.164823
H7    H     H_    0.399363 0.360837 0.128009 0.134568
H8    H     H_    0.623224 0.670218 0.255852 0.208131
H9    H     H_    0.722202 0.803489 0.872522 0.164068
H10   H     H_    0.623486 0.671246 0.747106 0.214976
H11   H     H_    0.778959 0.498501 0.725573 0.160401
H12   H     H_    0.399390 0.360898 0.868879 0.142045
H13   H     H_    0.918657 0.496596 0.853632 0.138981
H14   H     H_    0.081022 0.495334 0.853564 0.136424
H15   H     H_    0.220758 0.495969 0.725417 0.153799
H16   H     H_    0.221091 0.508906 0.274621 0.154746
H17   H     H_    0.081477 0.515944 0.146731 0.136640
H18   H     H_    0.919108 0.517609 0.146822 0.139569
H19   H     H_    0.493605 0.108773 0.279226 0.161932
N1    N     N_R   0.500860 0.501210 0.147910 -0.192174
N2    N     N_R   0.500890 0.501290 0.852040 -0.197721
O1    O     O_R   0.499990 0.319640 0.618810 -0.586992
O2    O     O_R   0.500000 0.319660 0.381240 -0.580355
O3    O     O_R   0.370250 0.499960 0.618800 -0.585731
O4    O     O_R   0.370260 0.499980 0.381230 -0.583174
O5    O     O_R   0.500000 0.680340 0.618760 -0.612755
O6    O     O_R   0.500010 0.680360 0.381190 -0.599632
O7    O     O_R   0.629740 0.500020 0.618770 -0.607411
O8    O     O_R   0.629750 0.500040 0.381200 -0.602410
C39   C     C_3   0.740787 0.830228 0.151405 -0.871539
H20   H     H_    0.733798 0.821548 0.266517 0.226438
H21   H     H_    0.810134 0.810575 0.122764 0.237847
H22   H     H_    0.727602 0.926510 0.122579 0.238240

loop_
_geom_bond_atom_site_label_1
_geom_bond_atom_site_label_2
_ccdc_geom_bond_type
Cu2   N1    S    
C11   C13   A    
Cu1   O7    S    
C35   C36   A    
C1    O1    A    
C7    C8    A    
Cu1   O3    S    
C26   C27   A    
C29   C30   A    
Cu2   O2    S    
C18   C24   A    
C23   O5    A    
C28   C29   A    
C17   H5    S    
C32   N2    A    
C21   H19   S    
C5    C6    A    
C12   O3    A    
C15   C16   A    
C34   C35   A    
C23   O6    A    
C32   H12   S    
C28   H10   S    
C19   C20   A    
C8    C9    A    
Cu2   O6    S    
C30   N1    A    
C23   C24   S    
C6    C38   A    
C39   H20   S    
C16   H4    S    
C33   O8    A    
C14   H2    S    
C13   H16   S    
C2    C34   A    
C31   H7    S    
C21   C22   A    
C34   H1    S    
C1    O2    A    
Cu1   N2    S    
C29   N2    A    
Cu2   O8    S    
Cu1   Cu2   S    
C18   C19   A    
C25   C26   A    
C31   N1    A    
C37   C38   A    
C8    H17   S    
C2    C38   A    
C31   C32   A    
C39   H22   S    
C17   C18   A    
C10   H15   S    
C25   H8    S    
C36   H11   S    
C22   H6    S    
Cu2   O4    S    
C26   C39   S    
Cu1   O5    S    
C22   C24   A    
C3    C4    A    
C25   C30   A    
Cu1   O1    S    
C9    H18   S    
C1    C20   S    
C4    H14   S    
C14   C19   A    
C4    C5    A    
C11   C12   S    
C6    C7    A    
C12   O4    A    
C15   H3    S    
C5    C10   A    
C3    H13   S    
C16   C17   A    
C33   C35   S    
C10   C11   A    
C7    C13   A    
C20   C21   A    
C3    C37   A    
C36   C37   A    
C27   C28   A    
C14   C15   A    
C39   H21   S    
C2    C9    A    
C27   H9    S    
C33   O7    A    
