data_mof_unit_4235.cif
_audit_creation_date              2012-12-10T17:03:54-0500
_audit_creation_method            fapswitch 2.2
_symmetry_space_group_name_H-M    P1
_symmetry_Int_Tables_number       1
_space_group_crystal_system       triclinic
_cell_length_a                    9.82674
_cell_length_b                    10.977333
_cell_length_c                    15.64263
_cell_angle_alpha                 94.2188
_cell_angle_beta                  79.788355
_cell_angle_gamma                 110.692318
_cell_volume                      1553.42701495

loop_
_atom_site_label
_atom_site_type_symbol
_atom_type_description
_atom_site_fract_x
_atom_site_fract_y
_atom_site_fract_z
_atom_type_partial_charge
C1    C     C_R   0.552891 0.745205 0.509497 0.895914
C2    C     C_R   0.443160 0.254254 0.497381 0.897813
C3    C     C_R   0.317929 0.335153 0.068757 0.159788
C4    C     C_R   0.672108 0.447100 0.915568 0.144176
C5    C     C_R   0.214806 0.308944 0.010814 0.324811
C6    C     C_R   0.775664 0.472742 0.973333 0.333677
C7    C     C_2   0.574944 0.883706 0.520836 -0.380690
C8    C     C_2   0.411399 0.114474 0.502930 -0.376026
C9    C     C_2   0.460077 0.925931 0.542872 0.315476
C10   C     C_2   0.489106 0.067347 0.545931 0.327378
C11   C     C_2   0.923399 0.490176 0.493048 0.164872
C12   C     C_2   0.075750 0.508404 0.507753 0.160219
C13   C     C_R   0.411433 0.484037 0.663173 0.796154
C14   C     C_R   0.587874 0.511785 0.336663 0.787144
C15   C     C_R   0.355847 0.453336 0.755677 -0.059097
C16   C     C_R   0.638742 0.506718 0.242440 -0.073454
C17   C     C_R   0.159782 0.341471 0.869930 -0.092989
C18   C     C_R   0.831549 0.515043 0.120697 -0.099420
C19   C     C_R   0.206317 0.386959 0.785072 -0.239135
C20   C     C_R   0.786546 0.525355 0.209603 -0.226721
C21   C     C_R   0.456938 0.475708 0.812742 -0.139221
C22   C     C_R   0.536678 0.475384 0.185151 -0.159065
C23   C     C_R   0.415018 0.418632 0.895361 0.032667
C24   C     C_R   0.576719 0.450934 0.096288 0.032333
C25   C     C_R   0.262607 0.357324 0.926044 0.076657
C26   C     C_R   0.728396 0.480123 0.063000 0.071076
C27   C     C_R   0.520402 0.425556 0.949082 -0.070184
C28   C     C_R   0.470649 0.405078 0.039337 -0.067538
Cu1   Cu    Cu3+1 0.362980 0.479380 0.485080 0.987156
Cu2   Cu    Cu3+1 0.637020 0.520620 0.514920 0.990546
H1    H     H_    0.426601 0.473873 0.210508 0.190314
H2    H     H_    0.568481 0.539615 0.791728 0.173613
H3    H     H_    0.867977 0.549525 0.252420 0.167789
H4    H     H_    0.125650 0.367967 0.742173 0.160017
H5    H     H_    0.043032 0.291327 0.890683 0.197415
H6    H     H_    0.947697 0.534123 0.097589 0.199437
H7    H     H_    0.323195 0.048741 0.470896 0.122521
H8    H     H_    0.687287 0.952646 0.510493 0.128073
H9    H     H_    0.121431 0.575059 0.558493 0.174702
H10   H     H_    0.877116 0.422556 0.442864 0.145032
N1    N     N_2   0.842890 0.551600 0.537350 -0.047730
N2    N     N_2   0.157110 0.448400 0.462650 -0.054790
O1    O     O_R   0.426810 0.668300 0.492040 -0.521593
O2    O     O_R   0.573190 0.331700 0.507960 -0.521435
O3    O     O_R   0.658240 0.703130 0.517240 -0.596290
O4    O     O_R   0.341760 0.296870 0.482760 -0.596031
O5    O     O_R   0.319390 0.472820 0.610170 -0.593354
O6    O     O_R   0.680610 0.527180 0.389830 -0.597203
O7    O     O_R   0.550820 0.507640 0.635370 -0.575993
O8    O     O_R   0.449180 0.492360 0.364630 -0.586210
O9    O     O_3   0.066501 0.238627 0.035219 -0.741163
H11   H     H_    0.053219 0.179172 0.082876 0.334950
O10   O     O_3   0.923910 0.493499 0.945116 -0.745368
H12   H     H_    0.943558 0.476616 0.882224 0.332659
N3    N     N_2   0.270288 0.282486 0.154045 -0.451744
H13   H     H_    0.169957 0.285340 0.185530 0.265974
C29   C     C_3   0.293937 0.161899 0.164037 -0.677542
H14   H     H_    0.262646 0.133708 0.233446 0.228066
H15   H     H_    0.412060 0.173965 0.143259 0.248465
H16   H     H_    0.225606 0.083022 0.124815 0.224088
N4    N     N_2   0.716478 0.429182 0.825099 -0.441383
H17   H     H_    0.810002 0.500525 0.795797 0.259477
C30   C     C_3   0.706164 0.297604 0.798888 -0.633712
H18   H     H_    0.736526 0.292920 0.727239 0.254321
H19   H     H_    0.591434 0.229629 0.817714 0.245248
H20   H     H_    0.782528 0.267030 0.829508 0.207655
O11   O     O_3   0.596679 0.150224 0.590437 -0.713373
H21   H     H_    0.631469 0.096931 0.623887 0.308888
O12   O     O_3   0.317212 0.838399 0.560419 -0.711111
H22   H     H_    0.250460 0.887447 0.582730 0.327408
O13   O     O_3   0.100383 0.366210 0.399710 -0.674324
H23   H     H_    0.178363 0.331034 0.373457 0.371673
O14   O     O_3   0.899960 0.634253 0.599989 -0.668846
H24   H     H_    0.822231 0.669837 0.626008 0.367099

loop_
_geom_bond_atom_site_label_1
_geom_bond_atom_site_label_2
_ccdc_geom_bond_type
C13   O7    A    
C12   N2    D    
N3    H13   S    
C30   H19   S    
Cu2   N1    S    
O10   H12   S    
Cu1   Cu2   S    
C14   C16   S    
C23   C27   A    
Cu1   N2    S    
O14   H24   S    
Cu2   O3    S    
N4    H17   S    
C18   C26   A    
Cu1   O4    S    
C16   C20   A    
O12   H22   S    
C17   C25   A    
C22   H1    S    
C12   H9    S    
C13   C15   S    
C30   H20   S    
O13   H23   S    
C14   O8    A    
C10   O11   S    
C2    O4    A    
C15   C19   A    
Cu2   O2    S    
C24   C26   A    
C1    O3    A    
C29   H14   S    
C6    C26   A    
C3    N3    S    
N2    O13   S    
Cu1   O5    S    
C5    C25   A    
C20   H3    S    
Cu2   O6    S    
C3    C28   A    
C17   C19   A    
Cu2   O7    S    
C9    O12   S    
C7    H8    S    
C11   N1    D    
C18   C20   A    
Cu1   O8    S    
N3    C29   S    
C21   C23   A    
C11   H10   S    
C21   H2    S    
C22   C24   A    
C29   H15   S    
C8    H7    S    
C6    O10   S    
N1    O14   S    
O11   H21   S    
C7    C9    D    
C15   C21   A    
C4    C27   A    
O9    H11   S    
C4    C6    A    
C23   C25   A    
C9    C10   S    
C2    C8    S    
C27   C28   A    
C13   O5    A    
C14   O6    A    
C5    O9    S    
C29   H16   S    
C16   C22   A    
C17   H5    S    
C3    C5    A    
C1    C7    S    
C18   H6    S    
C4    N4    S    
C1    O1    A    
C8    C10   D    
Cu1   O1    S    
C24   C28   A    
C11   C12   S    
C2    O2    A    
C30   H18   S    
N4    C30   S    
C19   H4    S    
