data_mof_unit_52.cif
_audit_creation_date              2012-12-10T20:25:40-0500
_audit_creation_method            fapswitch 2.2
_symmetry_space_group_name_H-M    P1
_symmetry_Int_Tables_number       1
_space_group_crystal_system       triclinic
_cell_length_a                    8.57365
_cell_length_b                    10.616522
_cell_length_c                    9.902482
_cell_angle_alpha                 90.052906
_cell_angle_beta                  98.311324
_cell_angle_gamma                 89.958871
_cell_volume                      891.879952401

loop_
_atom_site_label
_atom_site_type_symbol
_atom_type_description
_atom_site_fract_x
_atom_site_fract_y
_atom_site_fract_z
_atom_type_partial_charge
C1    C     C_R   0.502798 0.260712 0.500026 0.887674
C2    C     C_R   0.362096 0.489461 0.912365 0.135248
C3    C     C_3   0.243385 0.384342 0.896392 -0.296046
C4    C     C_R   0.201420 0.498341 0.464357 1.031239
C5    C     C_3   0.243147 0.388940 0.050204 -0.536582
C6    C     C_R   0.495919 0.739446 0.499436 0.939024
C7    C     C_R   0.798502 0.501604 0.535447 0.962243
C8    C     C_2   0.036302 0.495504 0.444990 -0.307420
C9    C     C_2   0.963313 0.507069 0.553739 -0.333441
C10   C     C_R   0.634553 0.062334 0.548700 0.107674
C11   C     C_R   0.500916 0.129174 0.496088 -0.070210
C12   C     C_R   0.363340 0.938003 0.422259 -0.049494
C13   C     C_R   0.371264 0.068885 0.422062 -0.201891
C14   C     C_2   0.302918 0.261353 0.847617 1.035831
C15   C     C_2   0.217451 0.876815 0.352381 0.974630
C16   C     C_2   0.883051 0.860804 0.684693 0.982910
C17   C     C_R   0.491142 0.871656 0.497013 -0.182040
C18   C     C_R   0.629082 0.933921 0.549837 0.051549
C19   C     C_3   0.727601 0.926476 0.687443 -0.241461
C20   C     C_3   0.736594 0.069973 0.684151 -0.524165
C21   C     C_R   0.362090 0.491358 0.054412 0.231297
C22   C     C_R   0.634841 0.520490 0.088533 -0.094186
C23   C     C_R   0.634792 0.520764 0.944960 -0.079833
H1    H     H_    0.744229 0.535856 0.905140 0.165183
H2    H     H_    0.024607 0.890541 0.209653 0.354461
H3    H     H_    0.660865 0.890272 0.767681 0.171074
H4    H     H_    0.039488 0.733115 0.773158 0.337080
H5    H     H_    0.677292 0.116615 0.763132 0.220555
H6    H     H_    0.855178 0.108604 0.674980 0.239203
H7    H     H_    0.128379 0.413765 0.839306 0.143900
H8    H     H_    0.130010 0.423970 0.078565 0.193631
H9    H     H_    0.290581 0.303754 0.107439 0.240568
H10   H     H_    0.024150 0.522505 0.656087 0.163220
H11   H     H_    0.273044 0.124194 0.372169 0.182420
H12   H     H_    0.744399 0.535366 0.155514 0.146742
H13   H     H_    0.975406 0.482460 0.341716 0.158684
H14   H     H_    0.460909 0.120233 0.879215 0.334104
N1    N     N_R   0.498950 0.499140 0.142680 -0.102293
N2    N     N_R   0.498950 0.499180 0.857030 -0.111256
O1    O     O_R   0.500020 0.316790 0.614690 -0.602533
O2    O     O_R   0.440400 0.206758 0.916176 -0.801098
O3    O     O_2   0.178733 0.772370 0.386894 -0.631233
O4    O     O_R   0.121151 0.940965 0.248572 -0.797343
O5    O     O_2   0.965345 0.886747 0.597409 -0.592753
O6    O     O_R   0.932574 0.769725 0.783399 -0.820762
O7    O     O_R   0.500000 0.316760 0.385350 -0.621008
O8    O     O_R   0.271760 0.500010 0.587850 -0.625994
O9    O     O_R   0.271740 0.499970 0.358500 -0.617041
O10   O     O_R   0.500000 0.683240 0.614650 -0.616065
O11   O     O_R   0.499980 0.683210 0.385310 -0.606760
O12   O     O_R   0.728260 0.500030 0.641500 -0.627930
O13   O     O_R   0.728240 0.499990 0.412150 -0.626707
O14   O     O_2   0.228265 0.208182 0.749351 -0.634673
Zn1   Zn    Zn3+2 0.500010 0.500020 0.653130 0.982519
Zn2   Zn    Zn3+2 0.499990 0.499980 0.346870 0.979558

loop_
_geom_bond_atom_site_label_1
_geom_bond_atom_site_label_2
_ccdc_geom_bond_type
C12   C17   A    
O7    Zn2   S    
C3    H7    S    
C23   H1    S    
C12   C15   S    
O9    Zn2   S    
C16   O5    D    
C19   C20   S    
C1    C11   S    
O13   Zn2   S    
C4    C8    S    
O12   Zn1   S    
H2    O4    S    
C2    C21   A    
C2    C3    S    
C15   O4    S    
C13   H11   S    
C6    O11   A    
C9    H10   S    
C22   H12   S    
C11   C13   A    
H4    O6    S    
C3    C14   S    
C10   C18   A    
C14   O2    S    
C23   N2    A    
C7    O13   A    
C17   C18   A    
O1    Zn1   S    
C20   H6    S    
C16   C19   S    
C6    O10   A    
H14   O2    S    
C1    O7    A    
N2    Zn1   S    
C10   C11   A    
N1    Zn2   S    
C16   O6    S    
C7    O12   A    
O10   Zn1   S    
C22   N1    A    
C3    C5    S    
C14   O14   D    
C5    C21   S    
C12   C13   A    
C19   H3    S    
C4    O9    A    
C18   C19   S    
C8    H13   S    
C7    C9    S    
C6    C17   S    
C22   C23   A    
C20   H5    S    
C1    O1    A    
O8    Zn1   S    
C2    N2    A    
C5    H9    S    
C21   N1    A    
O11   Zn2   S    
C15   O3    D    
C10   C20   S    
C8    C9    D    
C5    H8    S    
C4    O8    A    
