data_mof_unit_3923.cif
_audit_creation_date              2012-12-11T14:27:07-0500
_audit_creation_method            fapswitch 2.2
_symmetry_space_group_name_H-M    P1
_symmetry_Int_Tables_number       1
_space_group_crystal_system       triclinic
_cell_length_a                    14.971508
_cell_length_b                    14.942166
_cell_length_c                    14.960875
_cell_angle_alpha                 109.836352
_cell_angle_beta                  109.402469
_cell_angle_gamma                 108.953951
_cell_volume                      2583.2900523

loop_
_atom_site_label
_atom_site_type_symbol
_atom_type_description
_atom_site_fract_x
_atom_site_fract_y
_atom_site_fract_z
_atom_type_partial_charge
C1    C     C_R   0.003992 0.804367 0.097282 0.582891
C2    C     C_R   0.218652 0.782370 0.311607 -0.205877
C3    C     C_R   0.969501 0.410038 0.223763 -0.118036
C4    C     C_R   0.794387 0.196750 0.703031 -0.144576
C5    C     C_R   0.297110 0.589493 0.992015 -0.114321
C6    C     C_R   0.045324 0.502166 0.325494 0.124781
C7    C     C_R   0.298943 0.498430 0.930341 -0.042460
C8    C     C_R   0.321570 0.825099 0.324774 -0.041705
C9    C     C_R   0.016311 0.186400 0.010106 0.140462
C10   C     C_3   0.470276 0.396644 0.827847 -0.400039
C11   C     C_3   0.365933 0.396663 0.823087 -0.392470
C12   C     C_R   0.703145 0.134566 0.702376 0.115939
C13   C     C_3   0.565147 0.499066 0.035278 -0.388037
C14   C     C_3   0.570905 0.601860 0.931206 -0.405920
C15   C     C_3   0.572027 0.499227 0.934131 0.398863
C16   C     C_R   0.072561 0.591459 0.782845 -0.234990
C17   C     C_3   0.395788 0.498735 0.926440 0.400964
C18   C     C_3   0.461663 0.497820 0.030212 -0.398179
C19   C     C_3   0.467187 0.602199 0.927988 -0.404727
C20   C     C_2   0.433770 0.891000 0.515440 -0.143306
C21   C     C_2   0.419333 0.903876 0.428177 -0.156241
C22   C     C_2   0.532547 0.970824 0.620304 -0.116129
C23   C     C_R   0.029010 0.499928 0.683143 -0.042073
C24   C     C_2   0.625856 0.020389 0.622370 -0.198685
C25   C     C_2   0.074878 0.430288 0.542151 -0.110460
C26   C     C_2   0.051207 0.502530 0.597077 -0.186412
C27   C     C_2   0.072094 0.420488 0.440665 -0.144283
C28   C     C_R   0.686231 0.408107 0.932691 -0.135472
C29   C     C_2   0.099036 0.508826 0.429715 -0.191476
C30   C     C_2   0.141766 0.118291 0.055467 -0.128001
C31   C     C_2   0.046999 0.114853 0.040732 -0.201422
C32   C     C_2   0.162506 0.033666 0.069298 -0.130517
C33   C     C_2   0.118240 0.986019 0.116460 -0.128783
C34   C     C_R   0.673976 0.499259 0.947093 -0.025079
C35   C     C_R   0.980073 0.408542 0.690785 0.616884
C36   C     C_R   0.775899 0.590823 0.023086 -0.146025
C37   C     C_R   0.703276 0.198364 0.793767 -0.117892
C38   C     C_R   0.093541 0.801498 0.004333 -0.216728
C39   C     C_R   0.069592 0.867968 0.070591 -0.031769
C40   C     C_3   0.926263 0.895287 0.171567 -0.349831
C41   C     C_3   0.476676 0.792666 0.246587 -0.329862
C42   C     C_3   0.846036 0.263265 0.524144 -0.349793
C43   C     C_R   0.059071 0.591974 0.313734 -0.136528
C44   C     C_R   0.209475 0.408253 0.904788 -0.133561
C45   C     C_R   0.312499 0.776833 0.222721 0.612917
C46   C     C_R   0.948089 0.221415 0.034193 -0.152595
C47   C     C_R   0.049075 0.231189 0.952197 -0.124384
H1    H     H_    0.180660 0.323376 0.850721 0.097709
H2    H     H_    0.826413 0.165413 0.652558 0.154978
H3    H     H_    0.314904 0.319943 0.817828 0.147321
H4    H     H_    0.565975 0.426144 0.039066 0.155309
H5    H     H_    0.412212 0.423608 0.030055 0.155672
H6    H     H_    0.642089 0.678507 0.004886 0.143041
H7    H     H_    0.574428 0.602322 0.858228 0.157304
H8    H     H_    0.420342 0.604774 0.854416 0.158790
H9    H     H_    0.492535 0.677935 0.001566 0.147778
H10   H     H_    0.636751 0.572865 0.112224 0.158956
H11   H     H_    0.483498 0.570387 0.105189 0.152919
H12   H     H_    0.899214 0.190755 0.067124 0.086704
H13   H     H_    0.369450 0.826674 0.511737 0.131335
H14   H     H_    0.126416 0.675147 0.808997 0.135820
H15   H     H_    0.481050 0.970115 0.431428 0.149183
H16   H     H_    0.522809 0.000938 0.691368 0.119218
H17   H     H_    0.635252 0.984556 0.551882 0.126247
H18   H     H_    0.080500 0.368407 0.562358 0.173920
H19   H     H_    0.043279 0.563613 0.576555 0.140568
H20   H     H_    0.029331 0.338740 0.370673 0.126227
H21   H     H_    0.148755 0.590112 0.501812 0.129212
H22   H     H_    0.197055 0.173609 0.042408 0.123832
H23   H     H_    0.096932 0.215590 0.914803 0.090272
H24   H     H_    0.989280 0.057741 0.050202 0.126505
H25   H     H_    0.192145 0.996350 0.018897 0.125945
H26   H     H_    0.623725 0.323338 0.885060 0.093185
H27   H     H_    0.097099 0.029975 0.172462 0.143609
H28   H     H_    0.796089 0.675092 0.058017 0.128117
H29   H     H_    0.652972 0.171137 0.827020 0.081665
H30   H     H_    0.155015 0.827285 0.982051 0.133091
H31   H     H_    0.106514 0.675446 0.379280 0.092577
H32   H     H_    0.886224 0.882233 0.087117 0.111328
H33   H     H_    0.976575 0.984264 0.231370 0.171643
H34   H     H_    0.196283 0.813169 0.372200 0.143717
H35   H     H_    0.860862 0.862460 0.189841 0.170530
H36   H     H_    0.446834 0.712798 0.244539 0.137555
H37   H     H_    0.534216 0.861024 0.331934 0.156389
H38   H     H_    0.523437 0.791575 0.202561 0.166564
H39   H     H_    0.859742 0.304959 0.477210 0.168289
H40   H     H_    0.783729 0.272567 0.545350 0.147841
H41   H     H_    0.812364 0.174768 0.469506 0.179496
H42   H     H_    0.934078 0.327061 0.206647 0.087414
H43   H     H_    0.347290 0.672461 0.014323 0.153515
H44   H     H_    0.465856 0.320050 0.825037 0.147987
H45   H     H_    0.474136 0.395884 0.754611 0.159127
H46   H     H_    0.318574 0.396589 0.747837 0.159999
N1    N     N_R   0.993980 0.704500 0.053430 -0.095661
N2    N     N_R   0.053690 0.556380 0.849240 -0.066362
N3    N     N_R   0.790390 0.443640 0.997160 -0.041098
N4    N     N_R   0.998260 0.443670 0.792970 -0.097672
N5    N     N_R   0.845830 0.556350 0.053430 -0.031028
N6    N     N_R   0.792820 0.295510 0.849240 -0.047543
N7    N     N_R   0.051260 0.704510 0.997160 -0.071971
N8    N     N_R   0.001740 0.556330 0.207030 -0.037084
N9    N     N_R   0.154170 0.443650 0.946570 -0.042398
N10   N     N_R   0.207180 0.704490 0.150760 -0.101569
N11   N     N_R   0.948740 0.295490 0.002840 -0.041231
N12   N     N_R   0.006020 0.295500 0.946570 -0.043355
N13   N     N_R   0.149890 0.704480 0.207030 -0.070121
N14   N     N_R   0.946310 0.443620 0.150760 -0.049152
N15   N     N_R   0.209610 0.556360 0.002840 -0.040551
N16   N     N_R   0.850110 0.295520 0.792970 -0.045143
Ni1   Ni    Ni4+2 0.997880 0.629240 0.129060 0.250810
Ni2   Ni    Ni4+2 0.002120 0.370760 0.870940 0.229689
Ni3   Ni    Ni4+2 0.129260 0.629260 0.000000 0.216683
Ni4   Ni    Ni4+2 0.870740 0.370740 0.000000 0.198974
O1    O     O_3   0.990675 0.844615 0.187104 -0.616437
O2    O     O_3   0.391031 0.809327 0.194060 -0.636705
O3    O     O_3   0.943698 0.301310 0.618224 -0.644535

loop_
_geom_bond_atom_site_label_1
_geom_bond_atom_site_label_2
_ccdc_geom_bond_type
C19   H9    S    
N8    N14   A    
C4    N16   A    
N5    Ni1   S    
C46   H12   S    
C27   C29   D    
C3    C6    A    
C18   H5    S    
C32   H25   S    
C43   H31   S    
C33   C39   S    
C13   C18   S    
C28   N3    A    
C10   C15   S    
N16   Ni2   S    
C30   C31   D    
N4    Ni2   S    
C13   H10   S    
N6    N16   A    
C23   C26   S    
C12   C37   A    
C8    C45   A    
N14   Ni4   S    
C45   N10   A    
C22   H16   S    
C13   H4    S    
C18   H11   S    
C40   O1    S    
C1    N1    A    
C47   N12   A    
N3    N5    A    
C40   H33   S    
N9    N15   A    
C42   H39   S    
C4    C12   A    
C15   C34   S    
C5    H43   S    
C11   H46   S    
C31   H24   S    
N12   Ni2   S    
C28   C34   A    
C9    C46   A    
C24   H17   S    
N9    Ni2   S    
C41   O2    S    
C28   H26   S    
N11   N12   A    
C8    C21   S    
C9    C31   S    
C26   H19   S    
C40   H35   S    
C25   H18   S    
C38   N7    A    
C5    C7    A    
C44   N9    A    
C3    N14   A    
N8    Ni1   S    
C41   H37   S    
C46   N11   A    
N1    Ni1   S    
N15   Ni3   S    
N10   Ni3   S    
C43   N8    A    
C47   H23   S    
C36   H28   S    
C29   H21   S    
C45   O2    S    
N1    N7    A    
C14   H6    S    
C17   C18   S    
C40   H32   S    
C35   O3    S    
C7    C44   A    
C21   H15   S    
C42   O3    S    
C14   H7    S    
C37   H29   S    
C20   C22   S    
C10   H44   S    
C9    C47   A    
C16   C23   A    
C23   C35   A    
C6    C43   A    
C13   C15   S    
C22   C24   D    
N3    Ni4   S    
C20   H13   S    
C16   H14   S    
C37   N6    A    
C30   H22   S    
N13   Ni1   S    
C19   H8    S    
C11   C17   S    
C16   N2    A    
C14   C19   S    
C2    C8    A    
C7    C17   S    
N6    Ni4   S    
N2    N4    A    
N7    Ni3   S    
C38   H30   S    
C25   C27   S    
C41   H38   S    
C12   C24   S    
C3    H42   S    
C4    H2    S    
N2    Ni3   S    
C32   C33   D    
C25   C26   D    
C11   H3    S    
C30   C32   S    
C38   C39   A    
C17   C19   S    
C2    N13   A    
N10   N13   A    
C34   C36   A    
C27   H20   S    
C10   C11   S    
C1    C39   A    
C10   H45   S    
N11   Ni4   S    
C33   H27   S    
C6    C29   S    
C42   H41   S    
C20   C21   D    
C1    O1    S    
C14   C15   S    
C2    H34   S    
C36   N5    A    
C42   H40   S    
C35   N4    A    
C44   H1    S    
C5    N15   A    
C41   H36   S    
