data_mof_unit_3271.cif
_audit_creation_date              2012-12-11T17:01:12-0500
_audit_creation_method            fapswitch 2.2
_symmetry_space_group_name_H-M    P1
_symmetry_Int_Tables_number       1
_space_group_crystal_system       triclinic
_cell_length_a                    14.978227
_cell_length_b                    14.868924
_cell_length_c                    14.981564
_cell_angle_alpha                 109.850753
_cell_angle_beta                  109.102325
_cell_angle_gamma                 109.246432
_cell_volume                      2575.14713365

loop_
_atom_site_label
_atom_site_type_symbol
_atom_type_description
_atom_site_fract_x
_atom_site_fract_y
_atom_site_fract_z
_atom_type_partial_charge
C1    C     C_R   0.006646 0.805375 0.099978 -0.161306
C2    C     C_R   0.226221 0.773914 0.314972 0.063238
C3    C     C_R   0.954499 0.409898 0.225634 -0.129301
C4    C     C_R   0.793501 0.198392 0.699536 -0.146775
C5    C     C_R   0.295429 0.590356 0.988989 -0.205858
C6    C     C_R   0.027615 0.502112 0.327916 0.069343
C7    C     C_R   0.294471 0.499406 0.920975 -0.057007
C8    C     C_R   0.327858 0.796379 0.324033 0.022857
C9    C     C_R   0.040867 0.213540 0.042075 0.066765
C10   C     C_3   0.480473 0.421360 0.819293 -0.397714
C11   C     C_3   0.374120 0.418185 0.810879 -0.421611
C12   C     C_R   0.699932 0.134909 0.695272 0.080774
C13   C     C_3   0.548969 0.477090 0.018342 -0.431329
C14   C     C_3   0.586993 0.623050 0.963641 -0.071217
C15   C     C_3   0.575552 0.507115 0.937071 0.324030
C16   C     C_R   0.094646 0.592549 0.792991 -0.137656
C17   C     C_3   0.395343 0.503420 0.921642 0.394246
C18   C     C_3   0.447057 0.480086 0.012827 -0.391929
C19   C     C_3   0.478726 0.619010 0.950117 -0.449823
C20   C     C_R   0.623057 0.978331 0.513038 0.151926
C21   C     C_R   0.622740 0.020861 0.611784 0.033556
C22   C     C_R   0.534745 0.958132 0.619349 -0.203041
C23   C     C_R   0.062554 0.502039 0.698149 0.083967
C24   C     C_R   0.438473 0.872924 0.523694 -0.188433
C25   C     C_R   0.431786 0.852628 0.422391 0.043839
C26   C     C_R   0.528222 0.894623 0.419111 0.159214
C27   C     C_3   0.554454 0.941457 0.351129 -0.518187
C28   C     C_R   0.686049 0.410032 0.934330 -0.132959
C29   C     C_3   0.658392 0.033821 0.454110 -0.508471
C30   C     C_R   0.138252 0.605130 0.529574 0.150958
C31   C     C_R   0.076479 0.505303 0.430697 0.042832
C32   C     C_R   0.056423 0.407644 0.434101 -0.191601
C33   C     C_R   0.069062 0.407807 0.530596 -0.216005
C34   C     C_R   0.676876 0.504268 0.952925 0.004603
C35   C     C_R   0.100876 0.505720 0.621688 0.027298
C36   C     C_R   0.150562 0.605428 0.624672 0.153734
C37   C     C_3   0.142826 0.707979 0.667450 -0.516791
C38   C     C_3   0.129660 0.707612 0.563461 -0.511063
C39   C     C_R   0.065438 0.041500 0.171185 0.043818
C40   C     C_R   0.999046 0.409278 0.697122 -0.147674
C41   C     C_R   0.108114 0.988189 0.115212 0.028632
C42   C     C_R   0.170987 0.044689 0.079738 -0.176875
C43   C     C_R   0.160830 0.130962 0.068601 -0.202834
C44   C     C_R   0.087588 0.159741 0.092596 0.058222
C45   C     C_R   0.051064 0.592447 0.314868 -0.156627
C46   C     C_R   0.051732 0.123499 0.155863 0.126675
C47   C     C_3   0.944951 0.085787 0.153920 -0.576438
C48   C     C_3   0.961807 0.999070 0.175830 0.014914
C49   C     C_R   0.779104 0.594675 0.028285 -0.131303
C50   C     C_R   0.699819 0.196189 0.788572 -0.134992
C51   C     C_R   0.094400 0.805202 0.005815 -0.109525
C52   C     C_R   0.068419 0.870263 0.072252 0.066163
C53   C     C_3   0.137498 0.298494 0.787388 -0.365469
C54   C     C_3   0.160841 0.206083 0.790254 -0.986981
C55   C     C_1   0.209295 0.846884 0.391475 -0.025068
C56   C     C_R   0.203647 0.406663 0.895117 0.213963
C57   C     C_1   0.621137 0.663191 0.896226 0.033659
C58   C     C_3   0.982683 0.018632 0.290460 -0.287450
C59   C     C_3   0.876080 0.976543 0.292559 -0.936720
C60   C     C_R   0.314071 0.754449 0.220320 -0.169243
C61   C     C_R   0.962735 0.238094 0.053402 -0.127748
C62   C     C_R   0.065714 0.249566 0.974532 -0.150542
H1    H     H_    0.989611 0.832521 0.165460 0.100473
H2    H     H_    0.828611 0.171190 0.650686 0.099585
H3    H     H_    0.319366 0.333920 0.787365 0.199748
H4    H     H_    0.535933 0.393078 0.999314 0.167279
H5    H     H_    0.389301 0.400549 0.999067 0.156200
H6    H     H_    0.650170 0.684114 0.050460 0.091064
H7    H     H_    0.442535 0.637875 0.885833 0.162454
H8    H     H_    0.498301 0.684604 0.028932 0.138303
H9    H     H_    0.618068 0.535568 0.103389 0.161610
H10   H     H_    0.468437 0.545277 0.093172 0.160551
H11   H     H_    0.534652 0.982647 0.696025 0.126372
H12   H     H_    0.374617 0.756562 0.196039 0.118133
H13   H     H_    0.158818 0.675752 0.829615 0.098080
H14   H     H_    0.367285 0.832648 0.529145 0.131985
H15   H     H_    0.568710 0.888302 0.290941 0.188111
H16   H     H_    0.497865 0.969313 0.317491 0.202827
H17   H     H_    0.732195 0.033926 0.452688 0.190983
H18   H     H_    0.661138 0.114625 0.479112 0.205284
H19   H     H_    0.018980 0.329812 0.360781 0.121072
H20   H     H_    0.039575 0.329654 0.528197 0.126696
H21   H     H_    0.068500 0.694600 0.674607 0.206020
H22   H     H_    0.220329 0.778844 0.740670 0.187379
H23   H     H_    0.919302 0.215928 0.093016 0.099637
H24   H     H_    0.047983 0.693655 0.512326 0.202493
H25   H     H_    0.621384 0.325303 0.885066 0.093915
H26   H     H_    0.199771 0.778193 0.576889 0.194292
H27   H     H_    0.215052 0.013530 0.045898 0.119434
H28   H     H_    0.198735 0.163472 0.028070 0.123351
H29   H     H_    0.946220 0.149238 0.221012 0.189482
H30   H     H_    0.874446 0.047627 0.071488 0.184664
H31   H     H_    0.897482 0.914475 0.107739 0.142597
H32   H     H_    0.970107 0.324488 0.640895 0.084796
H33   H     H_    0.802479 0.680774 0.065426 0.094072
H34   H     H_    0.128601 0.250366 0.955265 0.134410
H35   H     H_    0.646415 0.166726 0.818414 0.085903
H36   H     H_    0.153618 0.832596 0.981171 0.081954
H37   H     H_    0.099493 0.676275 0.377465 0.121630
H38   H     H_    0.167154 0.164222 0.717350 0.261285
H39   H     H_    0.237172 0.237161 0.864463 0.253303
H40   H     H_    0.092582 0.142102 0.786218 0.262451
H41   H     H_    0.049705 0.267322 0.760499 0.191144
H42   H     H_    0.148659 0.313476 0.723033 0.174830
H43   H     H_    0.832746 0.020397 0.271199 0.267175
H44   H     H_    0.822920 0.886721 0.233705 0.250083
H45   H     H_    0.908080 0.327816 0.208965 0.084981
H46   H     H_    0.893332 0.991227 0.375693 0.250859
H47   H     H_    0.025173 0.975301 0.314828 0.180006
H48   H     H_    0.036408 0.107721 0.352658 0.193303
H49   H     H_    0.346354 0.675396 0.015251 0.107279
H50   H     H_    0.470616 0.337925 0.796668 0.153033
H51   H     H_    0.496875 0.442111 0.759602 0.171509
H52   H     H_    0.336152 0.434344 0.745031 0.159053
N1    N     N_R   0.995640 0.706130 0.053910 -0.036866
N2    N     N_R   0.054010 0.556790 0.847890 -0.036279
N3    N     N_R   0.789940 0.443190 0.997130 -0.039291
N4    N     N_R   0.997630 0.443170 0.791110 -0.042174
N5    N     N_R   0.846320 0.556810 0.053910 -0.038287
N6    N     N_R   0.791080 0.293860 0.847890 -0.038216
N7    N     N_R   0.052880 0.706130 0.997130 -0.039009
N8    N     N_R   0.002370 0.556830 0.208890 -0.041606
N9    N     N_1   0.195765 0.905641 0.452678 -0.100138
N10   N     N_1   0.648072 0.694727 0.843589 -0.088320
N11   N     N_R   0.153680 0.443190 0.946090 -0.063031
N12   N     N_R   0.208920 0.706140 0.152110 -0.045581
N13   N     N_R   0.947120 0.293870 0.002870 -0.040035
N14   N     N_R   0.004360 0.293870 0.946090 -0.040472
N15   N     N_R   0.151690 0.706140 0.208890 -0.056741
N16   N     N_R   0.945990 0.443210 0.152110 -0.040260
N17   N     N_R   0.210060 0.556810 0.002870 -0.043696
N18   N     N_R   0.848310 0.293860 0.791110 -0.040409
Ni1   Ni    Ni4+2 0.999010 0.630300 0.130220 0.218030
Ni2   Ni    Ni4+2 0.000990 0.369700 0.869780 0.203964
Ni3   Ni    Ni4+2 0.130280 0.630280 0.000000 0.201048
Ni4   Ni    Ni4+2 0.869720 0.369720 0.000000 0.208574

loop_
_geom_bond_atom_site_label_1
_geom_bond_atom_site_label_2
_ccdc_geom_bond_type
N11   Ni2   S    
C40   N4    A    
C24   C25   A    
N1    N7    A    
C6    C45   A    
C62   H34   S    
C27   C29   S    
C16   H13   S    
C47   H30   S    
C54   H39   S    
C35   C36   A    
C27   H16   S    
C4    N18   A    
N2    Ni3   S    
C53   C54   S    
C32   H19   S    
C26   C27   S    
C59   H43   S    
C13   C18   S    
C38   H24   S    
C50   N6    A    
C36   C37   S    
N17   Ni3   S    
C2    C55   S    
N3    N5    A    
C30   C31   A    
C53   H42   S    
C23   C40   A    
C58   H47   S    
C16   N2    A    
C2    N15   A    
C30   C38   S    
C41   C42   A    
C11   H52   S    
C17   C19   S    
C28   N3    A    
C47   C48   S    
C7    C17   S    
C37   H22   S    
C10   H50   S    
C4    C12   A    
C33   H20   S    
C15   C34   S    
N4    Ni2   S    
C20   C29   S    
C3    N16   A    
C3    C6    A    
C51   H36   S    
C6    C31   S    
C28   C34   A    
C58   H48   S    
C21   C22   A    
C8    C25   S    
C54   H38   S    
N16   Ni4   S    
C7    C56   A    
C1    H1    S    
C44   C46   A    
C13   H4    S    
C18   H10   S    
C55   N9    T    
C59   H44   S    
C48   H31   S    
C51   C52   A    
C43   H28   S    
N13   Ni4   S    
C39   C41   A    
C45   H37   S    
C5    C7    A    
C24   H14   S    
C13   H9    S    
N12   N15   A    
C3    H45   S    
C25   C26   A    
C12   C21   S    
N7    Ni3   S    
C9    C62   A    
C38   H26   S    
N6    Ni4   S    
C5    H49   S    
C43   C44   A    
N8    Ni1   S    
C37   C38   S    
N14   Ni2   S    
N11   N17   A    
C31   C32   A    
C29   H17   S    
C28   H25   S    
C17   C18   S    
C61   N13   A    
N5    Ni1   S    
C56   N11   A    
C49   H33   S    
C9    C44   S    
C10   H51   S    
C61   H23   S    
C39   C46   A    
N15   Ni1   S    
N12   Ni3   S    
C16   C23   A    
C23   C35   S    
C13   C15   S    
C51   N7    A    
C9    C61   A    
C19   H7    S    
C42   C43   A    
N13   N14   A    
C53   C56   S    
C14   C57   S    
C46   C47   S    
C11   C17   S    
C50   H35   S    
C41   C52   S    
N6    N18   A    
C47   H29   S    
C14   C19   S    
C54   H40   S    
C2    C8    A    
C40   H32   S    
C27   H15   S    
C12   C50   A    
C48   C58   S    
C45   N8    A    
N1    Ni1   S    
C4    H2    S    
C59   H46   S    
C30   C36   A    
C10   C15   S    
C42   H27   S    
C32   C33   A    
C60   N12   A    
C18   H5    S    
C8    C60   A    
C57   N10   T    
C62   N14   A    
C49   N5    A    
C29   H18   S    
C20   C26   A    
C53   H41   S    
C60   H12   S    
C33   C35   A    
N2    N4    A    
C22   C24   A    
C1    C52   A    
C58   C59   S    
C10   C11   S    
C5    N17   A    
C20   C21   A    
C34   C49   A    
N18   Ni2   S    
C14   H6    S    
C14   C15   S    
C37   H21   S    
C19   H8    S    
C1    N1    A    
C22   H11   S    
N3    Ni4   S    
N8    N16   A    
C11   H3    S    
C39   C48   S    
