data_mof_unit_3775.cif
_audit_creation_date              2012-12-11T15:32:33-0500
_audit_creation_method            fapswitch 2.2
_symmetry_space_group_name_H-M    P1
_symmetry_Int_Tables_number       1
_space_group_crystal_system       triclinic
_cell_length_a                    6.969103
_cell_length_b                    20.405027
_cell_length_c                    24.306849
_cell_angle_alpha                 90.007335
_cell_angle_beta                  90.395033
_cell_angle_gamma                 89.540309
_cell_volume                      3456.35560737

loop_
_atom_site_label
_atom_site_type_symbol
_atom_type_description
_atom_site_fract_x
_atom_site_fract_y
_atom_site_fract_z
_atom_type_partial_charge
O1    O     O_R   0.507320 0.423560 0.460500 -0.531552
O2    O     O_R   0.170760 0.556250 0.437010 -0.529080
O3    O     O_R   0.004030 0.576440 0.539500 -0.527111
C1    C     C_R   0.338562 0.576556 0.421338 0.729207
O4    O     O_R   0.177370 0.422820 0.454110 -0.536790
O5    O     O_R   0.010680 0.442050 0.556720 -0.530190
C2    C     C_R   0.346474 0.398833 0.443254 0.908022
O6    O     O_R   0.500680 0.557950 0.443280 -0.546723
O7    O     O_3   0.340380 0.506470 0.533650 -0.377975
V1    V     V_3+5 0.064130 0.498800 0.493760 1.536615
O8    O     O_R   0.681160 0.443750 0.562990 -0.540716
C3    C     C_R   0.850350 0.423767 0.578790 0.733668
O9    O     O_R   0.674560 0.577180 0.545890 -0.554491
C4    C     C_R   0.843065 0.601734 0.555959 0.756162
V2    V     V_3+5 0.564560 0.501200 0.506240 1.487878
O10   O     O_3   0.838180 0.493530 0.466350 -0.369829
C5    C     C_R   0.975442 0.836939 0.911649 -0.329991
C6    C     C_R   0.853940 0.664584 0.585970 -0.244518
C7    C     C_R   0.004952 0.718698 0.908085 0.616157
C8    C     C_R   0.017498 0.777350 0.937758 0.249997
C9    C     C_R   0.936172 0.838141 0.854858 0.526235
C10   C     C_R   0.949123 0.779797 0.822458 -0.137918
C11   C     C_R   0.971706 0.719097 0.850556 -0.317571
C12   C     C_R   0.939888 0.779790 0.763377 -0.005225
C13   C     C_R   0.921251 0.719832 0.733610 -0.088818
C14   C     C_R   0.945123 0.660533 0.763345 0.491786
C15   C     C_R   0.965088 0.659919 0.820667 0.446632
C16   C     C_R   0.971047 0.837405 0.733177 -0.162062
C17   C     C_R   0.960888 0.839414 0.675646 0.454452
C18   C     C_R   0.923433 0.781350 0.645714 -0.141147
C19   C     C_R   0.897024 0.721343 0.674698 0.015823
C20   C     C_R   0.915079 0.781777 0.587086 0.436746
C21   C     C_R   0.888473 0.723301 0.557542 0.351571
C22   C     C_R   0.847958 0.664865 0.643543 -0.192246
H1    H     H_    0.804164 0.619941 0.662832 0.207623
H2    H     H_    0.022320 0.880888 0.753338 0.201899
C23   C     C_3   0.830305 0.305375 0.770001 0.239802
C24   C     C_3   0.026386 0.278204 0.790869 0.299551
C25   C     C_1   0.964228 0.122082 0.875941 -0.148540
C26   C     C_1   0.860689 0.378650 0.624686 -0.156507
C27   C     C_3   0.743995 0.235867 0.771572 0.445968
C28   C     C_3   0.939684 0.208400 0.792519 -0.217819
C29   C     C_3   0.807859 0.224308 0.711687 0.290855
C30   C     C_3   0.893914 0.294138 0.709338 -0.239519
C31   C     C_3   0.002506 0.197023 0.732225 0.312342
C32   C     C_3   0.089583 0.266461 0.730739 0.323410
C33   C     C_1   0.955394 0.160850 0.838219 0.190195
C34   C     C_1   0.872113 0.340618 0.662930 0.131518
C35   C     C_3   0.495396 0.720185 0.209316 0.235948
C36   C     C_3   0.297184 0.701072 0.232982 0.306385
C37   C     C_1   0.346644 0.622544 0.375830 -0.143017
C38   C     C_1   0.476330 0.878829 0.125070 -0.196629
C39   C     C_3   0.578061 0.727718 0.268137 0.450716
C40   C     C_3   0.379970 0.708511 0.292099 -0.220151
C41   C     C_3   0.516235 0.800506 0.268298 0.290185
C42   C     C_3   0.433876 0.793794 0.209093 -0.229396
C43   C     C_3   0.319198 0.781796 0.292034 0.310093
C44   C     C_3   0.235880 0.774112 0.233258 0.313593
C45   C     C_1   0.358475 0.661319 0.338066 0.196398
C46   C     C_1   0.461355 0.840724 0.163199 0.116511
C47   C     C_R   0.464472 0.164719 0.086103 -0.304227
C48   C     C_R   0.354307 0.337432 0.411046 -0.366117
C49   C     C_R   0.375831 0.280381 0.086662 0.464844
C50   C     C_R   0.409405 0.221896 0.057588 0.284527
C51   C     C_R   0.489342 0.166564 0.143613 0.363118
C52   C     C_R   0.424495 0.222308 0.174561 -0.122698
C53   C     C_R   0.378493 0.280894 0.145264 -0.259381
C54   C     C_R   0.402069 0.221368 0.233357 -0.029574
C55   C     C_R   0.368847 0.280540 0.262947 -0.054495
C56   C     C_R   0.309585 0.336356 0.232454 0.421382
C57   C     C_R   0.328261 0.338221 0.174955 0.396693
C58   C     C_R   0.386671 0.162129 0.262558 -0.214706
C59   C     C_R   0.366054 0.159997 0.319859 0.506034
C60   C     C_R   0.357843 0.219022 0.350306 -0.220153
C61   C     C_R   0.370886 0.280021 0.322083 -0.126726
C62   C     C_R   0.336186 0.218644 0.408496 0.409046
C63   C     C_R   0.322636 0.277917 0.437464 0.424026
C64   C     C_R   0.388167 0.338242 0.354185 0.554887
H3    H     H_    0.370993 0.116391 0.240985 0.184972
O11   O     O_R   0.323550 0.942140 0.056770 -0.540281
O12   O     O_R   0.647080 0.077200 0.045890 -0.547084
O13   O     O_R   0.813610 0.057920 0.943260 -0.543829
C65   C     C_R   0.477752 0.101660 0.056189 0.819564
O14   O     O_R   0.653470 0.943760 0.063000 -0.534750
O15   O     O_R   0.820050 0.923540 0.960490 -0.528927
C66   C     C_R   0.485495 0.923896 0.078964 0.719790
O16   O     O_R   0.317110 0.076520 0.039540 -0.534688
O17   O     O_3   0.483830 0.993580 0.966380 -0.368668
V3    V     V_3+5 0.760140 0.001190 0.006240 1.477161
O18   O     O_R   0.149510 0.922740 0.954070 -0.549239
C67   C     C_R   0.981312 0.898458 0.943696 0.880618
O19   O     O_R   0.143120 0.056170 0.936970 -0.527669
C68   C     C_R   0.973990 0.076341 0.921338 0.741718
V4    V     V_3+5 0.259690 0.998700 0.993700 1.490425
O20   O     O_3   0.986130 0.006420 0.033620 -0.379481
O21   O     O_3   0.996604 0.600451 0.846749 -0.497665
C69   C     C_3   0.818501 0.569219 0.853754 -0.037500
H4    H     H_    0.751967 0.556179 0.813527 0.142996
H5    H     H_    0.717990 0.600080 0.878258 0.122817
H6    H     H_    0.843087 0.522928 0.876780 0.141255
O22   O     O_3   0.948337 0.838621 0.557730 -0.505414
C70   C     C_3   0.770090 0.867278 0.543151 -0.115872
H7    H     H_    0.673118 0.872622 0.579151 0.110850
H8    H     H_    0.697977 0.838824 0.510183 0.124545
H9    H     H_    0.796331 0.917122 0.526778 0.148878
O23   O     O_3   0.146620 0.302015 0.833504 -0.529374
C71   C     C_3   0.133874 0.371068 0.837674 -0.135644
H10   H     H_    0.023737 0.385443 0.867997 0.155529
H11   H     H_    0.106535 0.396209 0.797732 0.144626
H12   H     H_    0.270420 0.390212 0.854251 0.123652
O24   O     O_3   0.740313 0.363351 0.788692 -0.549042
C72   C     C_3   0.660663 0.352328 0.841124 -0.223066
H13   H     H_    0.758204 0.324790 0.869393 0.138346
H14   H     H_    0.525752 0.324592 0.837361 0.230550
H15   H     H_    0.627880 0.400363 0.860395 0.129578
O25   O     O_3   0.271854 0.275529 0.706904 -0.515188
C73   C     C_3   0.328022 0.341437 0.710502 -0.033950
H16   H     H_    0.382290 0.352293 0.752246 0.174736
H17   H     H_    0.212303 0.376571 0.698966 0.083142
H18   H     H_    0.448158 0.349216 0.681629 0.162125
O26   O     O_3   0.094664 0.138139 0.716335 -0.540211
C74   C     C_3   0.121827 0.137265 0.658913 -0.173356
H19   H     H_    0.205982 0.179881 0.644569 0.203364
H20   H     H_    0.983553 0.134761 0.636269 0.161026
H21   H     H_    0.203820 0.092299 0.648215 0.136233
O27   O     O_3   0.694485 0.198920 0.668463 -0.531448
C75   C     C_3   0.617127 0.138219 0.684319 -0.120255
H22   H     H_    0.496790 0.145645 0.713339 0.241229
H23   H     H_    0.726331 0.104597 0.702758 0.127508
H24   H     H_    0.559365 0.113649 0.647116 0.117405
F1    F     F_    0.567973 0.218700 0.792956 -0.656058
O28   O     O_3   0.176562 0.648346 0.218194 -0.529421
C76   C     C_3   0.191859 0.633634 0.161541 -0.143498
H25   H     H_    0.221425 0.676974 0.135258 0.135208
H26   H     H_    0.055265 0.612464 0.146815 0.134961
H27   H     H_    0.302350 0.595326 0.154956 0.145846
O29   O     O_3   0.586970 0.689350 0.164527 -0.554222
C77   C     C_3   0.666929 0.628947 0.181823 -0.186451
H28   H     H_    0.569492 0.600235 0.208548 0.142594
H29   H     H_    0.802901 0.637086 0.204406 0.238410
H30   H     H_    0.698610 0.598827 0.144955 0.132961
O30   O     O_3   0.054887 0.802127 0.220459 -0.522461
C78   C     C_3   0.999972 0.787425 0.166109 -0.047817
H31   H     H_    0.940516 0.737431 0.163907 0.185112
H32   H     H_    0.118008 0.793246 0.136163 0.083623
H33   H     H_    0.883860 0.821883 0.153643 0.158960
O31   O     O_3   0.225613 0.810071 0.337742 -0.533505
C79   C     C_3   0.193779 0.877552 0.328686 -0.165148
H34   H     H_    0.094998 0.886365 0.293431 0.192236
H35   H     H_    0.329564 0.904486 0.322676 0.152251
H36   H     H_    0.124850 0.898533 0.365783 0.145347
O32   O     O_3   0.630438 0.854242 0.284070 -0.535620
C80   C     C_3   0.700651 0.844678 0.338015 -0.149787
H37   H     H_    0.817858 0.807556 0.338509 0.237609
H38   H     H_    0.586268 0.830527 0.367283 0.129648
H39   H     H_    0.761082 0.891577 0.352958 0.123548
F2    F     F_    0.752744 0.703824 0.287027 -0.653681
O33   O     O_3   0.277185 0.395294 0.147470 -0.513344
C81   C     C_3   0.420161 0.442895 0.156469 -0.141014
H40   H     H_    0.567815 0.422727 0.150824 0.094795
H41   H     H_    0.406730 0.465129 0.197982 0.184929
H42   H     H_    0.399898 0.482656 0.125841 0.135867
F3    F     F_    0.450968 0.395004 0.331606 -0.665354
F4    F     F_    0.284566 0.277116 0.492225 -0.669659
O34   O     O_3   0.337306 0.100242 0.345749 -0.526389
C82   C     C_3   0.495630 0.057869 0.337013 -0.216752
H43   H     H_    0.493494 0.018843 0.368773 0.158798
H44   H     H_    0.635666 0.083511 0.341069 0.127037
H45   H     H_    0.484408 0.033414 0.296311 0.149703
O35   O     O_3   0.316644 0.335303 0.057470 -0.503865
C83   C     C_3   0.477757 0.365597 0.033731 -0.108199
H46   H     H_    0.510471 0.343368 0.993244 0.135477
H47   H     H_    0.607681 0.364196 0.060764 0.091537
H48   H     H_    0.442035 0.417926 0.026257 0.153032
O36   O     O_3   0.370719 0.220852 0.001480 -0.533811
C84   C     C_3   0.542006 0.212166 0.971336 -0.185274
H49   H     H_    0.560479 0.159906 0.959972 0.152237
H50   H     H_    0.673104 0.230055 0.993063 0.092393
H51   H     H_    0.528713 0.240130 0.932329 0.180079
O37   O     O_3   0.576442 0.113041 0.168560 -0.563779
C85   C     C_3   0.770567 0.128218 0.178781 -0.225007
H52   H     H_    0.847256 0.139579 0.139923 0.138606
H53   H     H_    0.841840 0.084790 0.197569 0.163488
H54   H     H_    0.784664 0.169569 0.208360 0.139304
O38   O     O_3   0.913755 0.724397 0.500943 -0.537377
C86   C     C_3   0.739861 0.710609 0.473083 -0.182289
H55   H     H_    0.608336 0.718977 0.498155 0.095776
H56   H     H_    0.743046 0.659435 0.457787 0.157738
H57   H     H_    0.728691 0.742959 0.436522 0.160319
O39   O     O_3   0.210930 0.387390 0.257338 -0.509622
C87   C     C_3   0.014573 0.371237 0.259566 -0.134832
H58   H     H_    0.990932 0.326675 0.284964 0.106932
H59   H     H_    0.952762 0.364449 0.217610 0.124073
H60   H     H_    0.935738 0.412338 0.279260 0.184404
O40   O     O_3   0.313792 0.160574 0.437034 -0.502131
C88   C     C_3   0.487954 0.145098 0.464222 -0.082636
H61   H     H_    0.516862 0.179778 0.498511 0.171699
H62   H     H_    0.611189 0.144139 0.435278 0.101846
H63   H     H_    0.476073 0.095383 0.482278 0.137554
O41   O     O_3   0.007856 0.896775 0.648164 -0.524437
C89   C     C_3   0.888724 0.949368 0.665058 -0.202540
H64   H     H_    0.736706 0.934403 0.670847 0.125663
H65   H     H_    0.889341 0.987459 0.632493 0.152722
H66   H     H_    0.945915 0.972306 0.703151 0.167024
F5    F     F_    0.028479 0.661626 0.936200 -0.639967
O42   O     O_3   0.052470 0.775934 0.993864 -0.541717
C90   C     C_3   0.251730 0.768413 0.002744 -0.151124
H67   H     H_    0.280751 0.770064 0.047624 0.137613
H68   H     H_    0.333582 0.808915 0.983484 0.111902
H69   H     H_    0.304735 0.720261 0.987435 0.182135
F6    F     F_    0.873873 0.895836 0.833044 -0.706877
F7    F     F_    0.976137 0.602473 0.737585 -0.694260

loop_
_geom_bond_atom_site_label_1
_geom_bond_atom_site_label_2
_ccdc_geom_bond_type
C13   C19   A    
C78   H33   S    
C52   C54   A    
C41   C42   S    
V3    O20   S    
O27   C75   S    
C35   O29   S    
C89   H65   S    
C27   C28   S    
C4    C6    S    
C48   C63   A    
O2    C1    A    
C7    C8    A    
C5    C67   S    
C79   H36   S    
C8    O42   S    
C1    O6    A    
C72   H14   S    
C69   H4    S    
O15   C67   A    
C41   O32   S    
C31   C32   S    
C83   H47   S    
C14   C15   A    
O34   C82   S    
O13   V3    S    
C60   C62   A    
C16   C17   A    
C42   C46   S    
O14   C66   A    
C24   C28   S    
C58   H3    S    
C55   C56   A    
C73   H17   S    
O5    C3    A    
C18   C19   A    
C35   C39   S    
O35   C83   S    
C78   H31   S    
O16   V4    S    
C6    C21   A    
C5    C8    A    
O25   C73   S    
C70   H9    S    
C78   H32   S    
C22   H1    S    
C59   C60   A    
O30   C78   S    
C25   C68   S    
O11   C66   A    
C38   C46   T    
O12   C65   A    
O8    V2    S    
C84   H51   S    
O31   C79   S    
O41   C89   S    
C76   H27   S    
C71   H10   S    
C81   H41   S    
C55   C61   A    
C56   C57   A    
O1    V2    S    
C11   C15   A    
C80   H38   S    
C17   C18   A    
O7    V1    S    
C27   C29   S    
O18   C67   A    
C58   C59   A    
O12   V3    S    
C63   F4    S    
C39   C41   S    
C52   C53   A    
C64   F3    S    
C49   C50   A    
O13   C68   A    
O9    C4    A    
C86   H56   S    
C82   H44   S    
C71   H11   S    
C15   O21   S    
V4    O20   S    
C88   H63   S    
C29   O27   S    
C72   H13   S    
C69   H5    S    
C30   C32   S    
O18   V4    S    
C49   C53   A    
C40   C45   S    
C85   H53   S    
C83   H48   S    
O17   V4    S    
C19   C22   A    
C24   C32   S    
C60   C61   A    
C1    C37   S    
C90   H67   S    
C36   C44   S    
O22   C70   S    
C12   C13   A    
C88   H62   S    
C47   C65   S    
C73   H18   S    
C27   F1    S    
O15   V3    S    
O42   C90   S    
C54   C55   A    
C49   O35   S    
C31   O26   S    
C13   C14   A    
C85   H52   S    
C5    C9    A    
C9    F6    S    
C80   H39   S    
C28   C31   S    
C3    C26   S    
C47   C50   A    
C7    C11   A    
C29   C30   S    
C75   H23   S    
C2    C48   S    
C23   C24   S    
C62   O40   S    
C90   H69   S    
C29   C31   S    
C44   O30   S    
C81   H40   S    
O9    V2    S    
C54   C58   A    
C17   O41   S    
O21   C69   S    
O19   V4    S    
C87   H59   S    
C81   H42   S    
C36   C40   S    
C62   C63   A    
C50   O36   S    
C70   H8    S    
C6    C22   A    
C83   H46   S    
O26   C74   S    
O3    C4    A    
C36   O28   S    
C59   O34   S    
C84   H49   S    
C75   H24   S    
C35   C36   S    
O6    V2    S    
C41   C43   S    
C76   H25   S    
C89   H66   S    
C10   C12   A    
O39   C87   S    
O14   V3    S    
C74   H20   S    
C75   H22   S    
O2    V1    S    
C69   H6    S    
O37   C85   S    
C56   O39   S    
C25   C33   T    
C85   H54   S    
C87   H58   S    
C26   C34   T    
C57   O33   S    
O24   C72   S    
O1    C2    A    
C39   F2    S    
C48   C64   A    
C10   C11   A    
C12   C16   A    
C79   H35   S    
C88   H61   S    
C77   H30   S    
C65   O16   A    
O5    V1    S    
C14   F7    S    
O8    C3    A    
C39   C40   S    
C77   H29   S    
C51   O37   S    
C35   C42   S    
O29   C77   S    
O38   C86   S    
C89   H64   S    
C32   O25   S    
C7    F5    S    
C20   C21   A    
C86   H57   S    
C43   O31   S    
C86   H55   S    
C87   H60   S    
O4    C2    A    
O4    V1    S    
O36   C84   S    
V1    O10   S    
C73   H16   S    
C18   C20   A    
C43   C44   S    
O33   C81   S    
C82   H43   S    
C74   H21   S    
O3    V1    S    
V2    O10   S    
C38   C66   S    
O19   C68   A    
C71   H12   S    
C42   C44   S    
O28   C76   S    
C53   C57   A    
C28   C33   S    
C23   C27   S    
C70   H7    S    
C61   C64   A    
C23   O24   S    
C77   H28   S    
O40   C88   S    
C23   C30   S    
C47   C51   A    
C37   C45   T    
O17   V3    S    
C16   H2    S    
C82   H45   S    
C51   C52   A    
O23   C71   S    
C24   O23   S    
C90   H68   S    
C76   H26   S    
C20   O22   S    
C21   O38   S    
O32   C80   S    
C74   H19   S    
C9    C10   A    
O11   V4    S    
C79   H34   S    
C72   H15   S    
C30   C34   S    
O7    V2    S    
C84   H50   S    
C80   H37   S    
C40   C43   S    
