data_mof_unit_1067.cif
_audit_creation_date              2013-03-05T15:50:13-0500
_audit_creation_method            fapswitch 2.2
_symmetry_space_group_name_H-M    P1
_symmetry_Int_Tables_number       1
_space_group_crystal_system       triclinic
_cell_length_a                    15.191901
_cell_length_b                    15.544695
_cell_length_c                    9.581589
_cell_angle_alpha                 87.431627
_cell_angle_beta                  90.939291
_cell_angle_gamma                 90.514308
_cell_volume                      2260.07178068

loop_
_atom_site_label
_atom_site_type_symbol
_atom_site_description
_atom_site_fract_x
_atom_site_fract_y
_atom_site_fract_z
_atom_type_partial_charge
O1    O     O_R   0.409820 0.909830 0.618810 -0.598426
O2    O     O_R   0.409820 0.090170 0.618810 -0.584337
O3    O     O_R   0.909820 0.409830 0.618810 -0.598436
O4    O     O_R   0.909820 0.590170 0.618810 -0.584404
O5    O     O_R   0.409840 0.909830 0.381240 -0.507970
O6    O     O_R   0.409840 0.090170 0.381240 -0.513516
O7    O     O_R   0.909840 0.409830 0.381240 -0.508121
O8    O     O_R   0.909840 0.590170 0.381240 -0.513321
C1    C     C_R   0.391960 0.872377 0.503085 0.872483
C2    C     C_R   0.381621 0.119690 0.496152 0.875201
C3    C     C_R   0.891957 0.372379 0.503085 0.872269
C4    C     C_R   0.881627 0.619699 0.496147 0.874910
Cu1   Cu    Cu3+1 0.499990 1.000000 0.640660 0.951593
Cu2   Cu    Cu3+1 0.999990 0.500000 0.640660 0.951532
Cu3   Cu    Cu3+1 0.500010 0.000000 0.359340 1.039237
Cu4   Cu    Cu3+1 0.000010 0.500000 0.359340 1.039311
O9    O     O_R   0.590170 0.090170 0.618760 -0.622521
O10   O     O_R   0.590170 0.909830 0.618760 -0.617014
O11   O     O_R   0.090170 0.590170 0.618760 -0.622520
O12   O     O_R   0.090170 0.409830 0.618760 -0.617005
O13   O     O_R   0.590190 0.090180 0.381190 -0.606702
O14   O     O_R   0.590190 0.909820 0.381190 -0.591139
O15   O     O_R   0.090190 0.590180 0.381190 -0.606676
O16   O     O_R   0.090190 0.409820 0.381190 -0.591094
C5    C     C_R   0.618268 0.120476 0.499860 0.799590
C6    C     C_R   0.616203 0.878458 0.503735 0.811719
C7    C     C_R   0.118271 0.620476 0.499861 0.799607
C8    C     C_R   0.116210 0.378463 0.503734 0.811699
C9    C     C_R   0.393679 0.270535 0.670764 0.032372
C10   C     C_R   0.335334 0.776994 0.774408 -0.001832
C11   C     C_R   0.893603 0.770465 0.670954 0.032506
C12   C     C_R   0.835318 0.276998 0.774408 -0.001977
C13   C     C_R   0.385825 0.303385 0.803284 -0.152555
C14   C     C_R   0.281798 0.772818 0.891480 -0.153892
C15   C     C_R   0.885696 0.803258 0.803506 -0.152261
C16   C     C_R   0.781776 0.272823 0.891474 -0.153744
H1    H     H_    0.443725 0.317985 0.865667 0.140589
H2    H     H_    0.308341 0.784792 0.993830 0.212304
H3    H     H_    0.943570 0.817836 0.865966 0.140516
H4    H     H_    0.808317 0.284793 0.993830 0.212314
C17   C     C_R   0.802227 0.821344 0.852354 -0.120929
C18   C     C_R   0.693751 0.250737 0.878229 -0.160679
C19   C     C_R   0.302377 0.321483 0.852201 -0.120366
C20   C     C_R   0.193777 0.750720 0.878248 -0.160854
H5    H     H_    0.794822 0.842440 0.957537 0.173237
H6    H     H_    0.652030 0.248879 0.968901 0.157314
H7    H     H_    0.295015 0.342608 0.957374 0.173117
H8    H     H_    0.152062 0.748856 0.968927 0.157258
C21   C     C_R   0.729815 0.820935 0.760001 -0.147520
C22   C     C_R   0.660827 0.224685 0.750689 -0.111486
C23   C     C_R   0.229924 0.321033 0.759929 -0.146732
C24   C     C_R   0.160852 0.724659 0.750715 -0.111355
H9    H     H_    0.667214 0.839740 0.798877 0.196062
H10   H     H_    0.592511 0.206098 0.749794 0.168103
H11   H     H_    0.167331 0.339826 0.798853 0.195983
H12   H     H_    0.092540 0.706059 0.749846 0.168143
C25   C     C_R   0.739376 0.792203 0.623343 0.072782
C26   C     C_R   0.714688 0.224833 0.630658 0.107645
C27   C     C_R   0.239434 0.292257 0.623293 0.072708
C28   C     C_R   0.214703 0.724820 0.630670 0.107684
C29   C     C_R   0.317158 0.249051 0.594877 0.005012
C30   C     C_R   0.297825 0.765481 0.639155 -0.008352
C31   C     C_R   0.817114 0.749008 0.594964 0.004888
C32   C     C_R   0.797813 0.265488 0.639150 -0.008361
C33   C     C_R   0.316986 0.190014 0.487349 -0.255084
C34   C     C_R   0.339968 0.791161 0.512512 -0.235347
C35   C     C_R   0.817004 0.690041 0.487336 -0.255040
C36   C     C_R   0.839958 0.291166 0.512509 -0.235310
C37   C     C_R   0.248973 0.194995 0.384080 0.432255
C38   C     C_R   0.321302 0.745023 0.392103 0.436292
C39   C     C_R   0.749067 0.695109 0.383940 0.432199
C40   C     C_R   0.821286 0.245032 0.392095 0.436359
H13   H     H_    0.640308 0.769602 0.304833 0.250495
H14   H     H_    0.732568 0.156336 0.297501 0.201292
H15   H     H_    0.140218 0.269486 0.304942 0.250609
H16   H     H_    0.232583 0.656328 0.297506 0.201268
C41   C     C_R   0.685903 0.758802 0.391597 -0.199419
C42   C     C_R   0.745885 0.193209 0.388698 -0.274664
C43   C     C_R   0.185847 0.258730 0.391671 -0.199198
C44   C     C_R   0.245900 0.693199 0.388704 -0.274743
C45   C     C_R   0.678669 0.806782 0.511005 -0.171139
C46   C     C_R   0.690219 0.184793 0.504129 -0.140130
C47   C     C_R   0.178678 0.306786 0.511010 -0.171308
C48   C     C_R   0.190229 0.684786 0.504135 -0.140168
H17   H     H_    0.362918 0.987247 0.125549 0.202566
H18   H     H_    0.862922 0.487221 0.125542 0.202548
C49   C     C_R   0.662096 0.006418 0.147293 -0.145978
C50   C     C_R   0.162094 0.506436 0.147293 -0.145976
H19   H     H_    0.670748 0.004121 0.257226 0.194865
H20   H     H_    0.170747 0.504123 0.257226 0.194853
C51   C     C_R   0.740931 0.009936 0.076566 -0.175229
C52   C     C_R   0.240928 0.509980 0.076565 -0.175155
H21   H     H_    0.802696 0.008120 0.134211 0.202322
H22   H     H_    0.302693 0.508166 0.134210 0.202445
C53   C     C_R   0.740767 0.012748 0.932921 -0.205142
C54   C     C_R   0.240763 0.512804 0.932920 -0.205194
H23   H     H_    0.802544 0.014671 0.877965 0.166386
H24   H     H_    0.302540 0.514745 0.877963 0.166419
C55   C     C_R   0.661762 0.007138 0.859444 -0.161298
C56   C     C_R   0.161760 0.507169 0.859444 -0.161407
H25   H     H_    0.669746 0.000744 0.750747 0.204128
H26   H     H_    0.169746 0.500760 0.750751 0.204092
C57   C     C_R   0.579533 0.004177 0.926859 0.195325
C58   C     C_R   0.079532 0.504192 0.926859 0.195392
C59   C     C_R   0.579564 0.004284 0.076467 0.208210
C60   C     C_R   0.079563 0.504297 0.076467 0.208249
N1    N     N_R   0.501200 1.000000 0.147910 -0.202643
N2    N     N_R   0.001200 0.500000 0.147910 -0.202589
C61   C     C_R   0.424607 0.994063 0.072008 0.092263
C62   C     C_R   0.924609 0.494047 0.072007 0.092557
H27   H     H_    0.362594 0.989850 0.867577 0.152789
H28   H     H_    0.862596 0.489825 0.867577 0.152681
C63   C     C_R   0.424515 0.994601 0.924179 -0.051500
C64   C     C_R   0.924517 0.494586 0.924178 -0.051677
N3    N     N_R   0.501270 1.000000 0.852040 -0.212556
N4    N     N_R   0.001270 0.500000 0.852040 -0.212528
S1    S     S_3+6 0.239532 0.126192 0.242296 -0.004451
O17   O     O_2   0.312587 0.147310 0.142270 -0.333616
O18   O     O_2   0.245698 0.033902 0.295204 -0.308532
O19   O     O_3   0.142414 0.140469 0.157806 -0.498340
H29   H     H_    0.145204 0.103827 0.076058 0.371687
S2    S     S_3+6 0.403936 0.729588 0.266962 -0.012435
O20   O     O_2   0.419973 0.809646 0.177509 -0.322659
O21   O     O_2   0.487444 0.705447 0.344387 -0.276173
O22   O     O_3   0.375547 0.649823 0.162412 -0.582013
H30   H     H_    0.424658 0.646484 0.096150 0.384270
S3    S     S_3+6 0.739798 0.626510 0.241859 -0.004411
O23   O     O_2   0.813169 0.647607 0.142376 -0.334948
O24   O     O_2   0.745637 0.534147 0.294491 -0.307046
O25   O     O_3   0.642913 0.641106 0.156783 -0.498474
H31   H     H_    0.646838 0.606541 0.072726 0.371548
S4    S     S_3+6 0.903920 0.229575 0.266970 -0.012543
O26   O     O_2   0.919993 0.309629 0.177523 -0.322536
O27   O     O_2   0.987407 0.205404 0.344425 -0.276322
O28   O     O_3   0.875514 0.149820 0.162410 -0.582166
H32   H     H_    0.924658 0.146428 0.096218 0.384086
C65   C     C_1   0.472920 0.288049 0.593913 0.182071
N5    N     N_1   0.534570 0.305010 0.528736 -0.271267
C66   C     C_1   0.429353 0.775937 0.799725 0.307588
N6    N     N_1   0.504487 0.774361 0.821067 -0.262129
C67   C     C_1   0.972869 0.788026 0.594189 0.182047
N7    N     N_1   0.034536 0.805023 0.529074 -0.271411
C68   C     C_1   0.929338 0.275949 0.799732 0.307574
N8    N     N_1   0.004473 0.274383 0.821075 -0.261426

loop_
_geom_bond_atom_site_label_1
_geom_bond_atom_site_label_2
_geom_bond_distance
_ccdc_geom_bond_type
C55   C57   1.415150 A    
C49   C51   1.385174 A    
C16   C18   1.382880 A    
O10   C6    1.294151 A    
C52   C54   1.375044 A    
C44   C48   1.404049 A    
C58   C60   1.433542 A    
O28   H32   0.990781 S    
O19   H29   0.990582 S    
O7    C3    1.312385 A    
C59   N1    1.382585 A    
C22   H10   1.074818 S    
Cu1   O10   1.988937 S    
C32   C36   1.420971 A    
C7    C48   1.476038 S    
H18   C62   1.077835 S    
C27   C47   1.417673 A    
H17   C61   1.077865 S    
S1    O18   1.503194 D    
C10   C30   1.425110 A    
C15   H3    1.083448 S    
Cu2   N4    2.025132 S    
C53   C55   1.385552 A    
C68   N8    1.156591 T    
C9    C13   1.396939 A    
C56   C58   1.415141 A    
C21   C25   1.412408 A    
C28   C30   1.409833 A    
C18   H6    1.082972 S    
Cu3   N1    2.026213 S    
O2    Cu1   1.970727 S    
C38   S2    1.775318 S    
C1    C34   1.483275 S    
C12   C68   1.444998 S    
C40   C42   1.395241 A    
C24   C28   1.422284 A    
O6    Cu3   1.988830 S    
C58   N4    1.380808 A    
Cu3   O14   1.970946 S    
C50   C52   1.385167 A    
S4    O26   1.499516 D    
C54   H24   1.083161 S    
H16   C44   1.081666 S    
C40   S4    1.775280 S    
O15   C7    1.313445 A    
O4    C4    1.309261 A    
O11   C7    1.290848 A    
C62   C64   1.416057 A    
C23   H11   1.074730 S    
C61   C63   1.416069 A    
C20   C24   1.388595 A    
O8    Cu4   1.988830 S    
C8    C47   1.468582 S    
N1    C61   1.366646 A    
C39   S3    1.769567 S    
C17   C21   1.400608 A    
C25   C31   1.400226 A    
C9    C29   1.406670 A    
C26   C32   1.409830 A    
C4    C35   1.474742 S    
C31   C35   1.410071 A    
C27   C29   1.400221 A    
C10   C14   1.395138 A    
C38   C44   1.395262 A    
C22   C26   1.422262 A    
C11   C31   1.406687 A    
C16   H4    1.077533 S    
O1    C1    1.298929 A    
C12   C32   1.425120 A    
H27   C63   1.081725 S    
S1    O19   1.682867 S    
C30   C34   1.420966 A    
O12   C8    1.294159 A    
C13   H1    1.083436 S    
C36   C40   1.409140 A    
C13   C19   1.394168 A    
C11   C67   1.439009 S    
C57   N3    1.380807 A    
S3    O24   1.503158 D    
O5    C1    1.312389 A    
Cu2   O12   1.988937 S    
C51   H21   1.080933 S    
C50   C60   1.416700 A    
C42   C46   1.404017 A    
C49   C59   1.416707 A    
C41   C45   1.399796 A    
O8    C4    1.292626 A    
C52   H22   1.080928 S    
C5    C46   1.476014 S    
C14   C20   1.382855 A    
C57   C59   1.433543 A    
Cu1   N3    2.025132 S    
O3    Cu2   1.966578 S    
C18   C22   1.388610 A    
H28   C64   1.081725 S    
S4    O27   1.501106 D    
O7    Cu4   1.958007 S    
C55   H25   1.059682 S    
C50   H20   1.058413 S    
C6    C45   1.468557 S    
Cu1   Cu3   2.695497 S    
H14   C42   1.081667 S    
O22   H30   0.990760 S    
Cu2   Cu4   2.695497 S    
C37   C43   1.390094 A    
O1    Cu1   1.966578 S    
S2    O21   1.501119 D    
S3    O23   1.502946 D    
O2    C2    1.309203 A    
C12   C16   1.395151 A    
C39   C41   1.390083 A    
C3    C36   1.483280 S    
C56   H26   1.059686 S    
C2    C33   1.474657 S    
C33   C37   1.419060 A    
O13   C5    1.313433 A    
C17   H5    1.081621 S    
C10   C66   1.444969 S    
C14   H2    1.077513 S    
Cu2   O11   1.958111 S    
O16   C8    1.307469 A    
C19   H7    1.081603 S    
O6    C2    1.292640 A    
C64   N4    1.365251 A    
C66   N6    1.156584 T    
C53   H23   1.083161 S    
Cu4   O15   1.966792 S    
C9    C65   1.438995 S    
C65   N5    1.156153 T    
Cu1   O9    1.958111 S    
O9    C5    1.290845 A    
S2    O22   1.677637 S    
C26   C46   1.429713 A    
O25   H31   0.990882 S    
S3    O25   1.682983 S    
C20   H8    1.082971 S    
C67   N7    1.156154 T    
C43   C47   1.399813 A    
C28   C48   1.429734 A    
C19   C23   1.400617 A    
C34   C38   1.409126 A    
C60   N2    1.382575 A    
S4    O28   1.677644 S    
C21   H9    1.074723 S    
C54   C56   1.385550 A    
C11   C15   1.396952 A    
C37   S1    1.769490 S    
N2    C62   1.366650 A    
C35   C39   1.419099 A    
O4    Cu2   1.970727 S    
C15   C17   1.394162 A    
C25   C45   1.417694 A    
O5    Cu3   1.958007 S    
O3    C3    1.298934 A    
Cu4   N2    2.026213 S    
C51   C53   1.375046 A    
C29   C33   1.410070 A    
Cu3   O13   1.966792 S    
C23   C27   1.412368 A    
Cu4   O16   1.970946 S    
O14   C6    1.307470 A    
C49   H19   1.058414 S    
H13   C41   1.081568 S    
S2    O20   1.499506 D    
S1    O17   1.502727 D    
H15   C43   1.081568 S    
C24   H12   1.074801 S    
C63   N3    1.365263 A    
