data_mof_unit_4544.cif
_audit_creation_date              2012-12-11T15:29:39-0500
_audit_creation_method            fapswitch 2.2
_symmetry_space_group_name_H-M    P1
_symmetry_Int_Tables_number       1
_space_group_crystal_system       triclinic
_cell_length_a                    21.425665
_cell_length_b                    7.244205
_cell_length_c                    14.748437
_cell_angle_alpha                 90.495391
_cell_angle_beta                  74.41899
_cell_angle_gamma                 89.901353
_cell_volume                      2204.90933961

loop_
_atom_site_label
_atom_site_type_symbol
_atom_type_description
_atom_site_fract_x
_atom_site_fract_y
_atom_site_fract_z
_atom_type_partial_charge
O1    O     O_R   0.464160 0.506670 0.130070 -0.535766
O2    O     O_R   0.535840 0.006670 0.869930 -0.535868
O3    O     O_R   0.589710 0.179080 0.006710 -0.544834
O4    O     O_R   0.410290 0.679080 0.993290 -0.544568
C1    C     C_R   0.616165 0.344347 0.002992 0.651982
C2    C     C_R   0.383808 0.844514 0.997068 0.651775
O5    O     O_R   0.467940 0.177220 0.138010 -0.536919
O6    O     O_R   0.532060 0.677220 0.861990 -0.537111
O7    O     O_R   0.413200 0.002810 0.002170 -0.540385
O8    O     O_R   0.586800 0.502810 0.997830 -0.539783
C3    C     C_R   0.456200 0.346429 0.174394 0.681865
C4    C     C_R   0.543856 0.844556 0.825509 0.681595
O9    O     O_3   0.482180 0.337850 0.955280 -0.375657
O10   O     O_3   0.517820 0.837850 0.044720 -0.375533
V1    V     V_3+5 0.503310 0.064600 0.008300 1.389981
V2    V     V_3+5 0.496690 0.564600 0.991700 1.391327
C5    C     C_R   0.571923 0.848017 0.723723 -0.026677
C6    C     C_R   0.428022 0.358522 0.275984 -0.026059
C7    C     C_R   0.929760 0.869558 0.277141 -0.041097
C8    C     C_R   0.070438 0.358662 0.723131 -0.041321
C9    C     C_R   0.561069 0.802252 0.566538 -0.160689
C10   C     C_R   0.438534 0.427620 0.431373 -0.159126
C11   C     C_R   0.533133 0.813993 0.663161 -0.172003
C12   C     C_R   0.466542 0.405954 0.335180 -0.174976
C13   C     C_R   0.638847 0.869503 0.687848 -0.212846
C14   C     C_R   0.361339 0.333659 0.312649 -0.212534
C15   C     C_R   0.668892 0.853630 0.590017 0.082378
C16   C     C_R   0.331232 0.358560 0.409944 0.081316
C17   C     C_R   0.628366 0.820302 0.529635 0.136075
C18   C     C_R   0.371461 0.405443 0.469051 0.137267
C19   C     C_R   0.737519 0.866645 0.550468 0.058850
C20   C     C_R   0.262809 0.341209 0.450103 0.057573
C21   C     C_R   0.764254 0.847834 0.450801 0.066420
C22   C     C_R   0.235933 0.370466 0.549095 0.067683
C23   C     C_R   0.721508 0.815336 0.394146 -0.189488
C24   C     C_R   0.278421 0.415312 0.604602 -0.183922
C25   C     C_R   0.655142 0.802298 0.432961 -0.200949
C26   C     C_R   0.344606 0.432113 0.565192 -0.198557
C27   C     C_R   0.780332 0.896276 0.607261 -0.187610
C28   C     C_R   0.220329 0.296981 0.394537 -0.188011
C29   C     C_R   0.846729 0.907662 0.568510 -0.195655
C30   C     C_R   0.154071 0.282488 0.433774 -0.195496
C31   C     C_R   0.873460 0.891733 0.471705 0.100175
C32   C     C_R   0.127149 0.310076 0.529880 0.099613
C33   C     C_R   0.832876 0.861875 0.411231 0.086027
C34   C     C_R   0.167433 0.354199 0.589144 0.085870
C35   C     C_R   0.940815 0.907578 0.435118 -0.163943
C36   C     C_R   0.059894 0.292398 0.566998 -0.163288
C37   C     C_R   0.969408 0.897933 0.338060 0.165847
C38   C     C_R   0.031088 0.315590 0.663448 0.163713
C39   C     C_R   0.862747 0.850222 0.313350 -0.264288
C40   C     C_R   0.137364 0.378583 0.686363 -0.262549
H1    H     H_    0.624420 0.776275 0.386596 0.132571
H2    H     H_    0.375118 0.467808 0.610635 0.124700
H3    H     H_    0.835423 0.831470 0.262442 0.101934
H4    H     H_    0.164413 0.409596 0.736441 0.101717
H5    H     H_    0.877523 0.930599 0.615078 0.123238
H6    H     H_    0.123525 0.248594 0.388127 0.123944
H7    H     H_    0.530118 0.775799 0.520594 0.113746
H8    H     H_    0.469250 0.464262 0.476332 0.114143
H9    H     H_    0.481356 0.795054 0.690839 0.101906
H10   H     H_    0.518151 0.427052 0.306784 0.103026
H11   H     H_    0.665810 0.893459 0.738784 0.088739
H12   H     H_    0.334617 0.298811 0.262645 0.088579
H13   H     H_    0.737553 0.797413 0.318960 0.133143
H14   H     H_    0.262324 0.439859 0.679311 0.124805
H15   H     H_    0.764368 0.911194 0.682604 0.116223
H16   H     H_    0.236447 0.272560 0.319810 0.117632
H17   H     H_    0.971103 0.930080 0.482458 0.118379
H18   H     H_    0.029832 0.258870 0.520585 0.119017
C41   C     C_3   0.210553 0.660144 0.007300 -0.324668
C42   C     C_3   0.789726 0.160057 0.992456 -0.322856
H19   H     H_    0.180933 0.594639 0.072737 0.146817
H20   H     H_    0.819526 0.092466 0.926980 0.145824
H21   H     H_    0.204007 0.577229 0.946619 0.144357
H22   H     H_    0.796320 0.079120 0.053078 0.145967
C43   C     C_3   0.282742 0.654774 0.006922 -0.367285
C44   C     C_3   0.717579 0.154405 0.992612 -0.368807
H23   H     H_    0.309640 0.564908 0.947607 0.144803
H24   H     H_    0.690801 0.065897 0.051566 0.145973
H25   H     H_    0.287223 0.590227 0.073152 0.149157
H26   H     H_    0.713313 0.088280 0.926101 0.146165
H27   H     H_    0.170116 0.915300 0.152610 0.138472
H28   H     H_    0.829585 0.410089 0.847628 0.136587
H29   H     H_    0.277263 0.902282 0.149477 0.133447
H30   H     H_    0.722475 0.398410 0.850806 0.133533
C45   C     C_3   0.199693 0.972946 0.085115 -0.336980
C46   C     C_3   0.800063 0.470347 0.915164 -0.335516
C47   C     C_3   0.229297 0.946958 0.908710 -0.276541
C48   C     C_3   0.770521 0.450045 0.091514 -0.281422
C49   C     C_3   0.187128 0.861917 0.001198 0.072780
C50   C     C_3   0.812836 0.362160 0.998897 0.074622
H31   H     H_    0.214774 0.093605 0.904354 0.157874
H32   H     H_    0.784660 0.597030 0.095942 0.154994
H33   H     H_    0.219921 0.873604 0.847069 0.103078
H34   H     H_    0.780161 0.379092 0.153060 0.104688
C51   C     C_3   0.312566 0.852513 0.997201 0.080142
C52   C     C_3   0.687388 0.352270 0.002931 0.080072
C53   C     C_3   0.272422 0.966312 0.083349 -0.316764
C54   C     C_3   0.727312 0.463943 0.917117 -0.312648
C55   C     C_3   0.302818 0.933466 0.903285 0.072289
C56   C     C_3   0.697008 0.435799 0.097079 0.070987
H35   H     H_    0.325235 0.834793 0.845182 0.105343
H36   H     H_    0.674971 0.338350 0.154864 0.108637
H37   H     H_    0.184610 0.119435 0.082463 0.145835
H38   H     H_    0.815039 0.616871 0.917839 0.145389
H39   H     H_    0.291266 0.109026 0.083282 0.132769
H40   H     H_    0.708271 0.606754 0.917768 0.134755
O11   O     O_R   0.913210 0.208550 0.002110 -0.539053
O12   O     O_R   0.086790 0.708550 0.997890 -0.539344
O13   O     O_R   0.032060 0.539960 0.861980 -0.538966
O14   O     O_R   0.967940 0.039960 0.138020 -0.538591
C57   C     C_R   0.043589 0.371552 0.825360 0.709585
C58   C     C_R   0.956406 0.873482 0.174726 0.709765
O15   O     O_R   0.910290 0.538020 0.993280 -0.545543
O16   O     O_R   0.089710 0.038020 0.006720 -0.545220
O17   O     O_R   0.964160 0.712340 0.130090 -0.536390
O18   O     O_R   0.035840 0.212340 0.869910 -0.535880
C59   C     C_R   0.884163 0.369773 0.997359 0.655225
C60   C     C_R   0.115829 0.869600 0.002691 0.655737
O19   O     O_3   0.017820 0.379210 0.044690 -0.376841
O20   O     O_3   0.982180 0.879210 0.955310 -0.377115
V3    V     V_3+5 0.996690 0.652500 0.991710 1.391226
V4    V     V_3+5 0.003310 0.152500 0.008290 1.391317
N1    N     N_3   0.333718 0.113304 0.877587 -0.681547
H41   H     H_    0.383992 0.096338 0.855017 0.234480
H42   H     H_    0.322476 0.204388 0.934924 0.237995
N2    N     N_3   0.665542 0.615910 0.123521 -0.688257
H43   H     H_    0.615325 0.598888 0.146127 0.231659
H44   H     H_    0.676430 0.705678 0.066510 0.239655
C61   C     C_3   0.041721 0.918188 0.300451 -0.827789
H45   H     H_    0.065733 0.935542 0.358005 0.210288
H46   H     H_    0.062253 0.793105 0.258979 0.198352
H47   H     H_    0.052934 0.041025 0.254489 0.206004
C62   C     C_3   0.958849 0.294940 0.701701 -0.824446
H48   H     H_    0.935145 0.261996 0.645177 0.210938
H49   H     H_    0.947912 0.181979 0.753957 0.205718
H50   H     H_    0.937859 0.426076 0.736305 0.197903

loop_
_geom_bond_atom_site_label_1
_geom_bond_atom_site_label_2
_ccdc_geom_bond_type
C62   H50   S    
H27   C45   S    
C3    C6    S    
O4    V2    S    
C45   C49   S    
C15   C17   A    
C21   C33   A    
O1    C3    A    
C42   H22   S    
C61   H47   S    
O2    C4    A    
N2    H43   S    
C30   H6    S    
C2    O7    A    
O14   C58   A    
C62   H48   S    
C27   C29   A    
O5    C3    A    
C37   C61   S    
C5    C11   A    
C6    C12   A    
C23   C25   A    
C50   C59   S    
C9    H7    S    
C56   N2    S    
C38   C62   S    
C10   H8    S    
C8    C57   S    
C42   C50   S    
C24   H14   S    
C23   H13   S    
C34   C40   A    
C18   C26   A    
C13   H11   S    
C7    C37   A    
C35   H17   S    
O19   V4    S    
C14   H12   S    
C48   C56   S    
C46   C50   S    
C16   C18   A    
C6    C14   A    
C4    C5    S    
C44   C52   S    
C55   N1    S    
C19   C21   A    
C43   C51   S    
C22   C34   A    
C47   C49   S    
H30   C54   S    
C39   H3    S    
C45   H37   S    
C25   H1    S    
O6    V2    S    
O5    V1    S    
C55   H35   S    
O14   V4    S    
C42   C44   S    
C29   C31   A    
C30   C32   A    
C14   C16   A    
C51   C53   S    
C32   C34   A    
C48   H32   S    
C45   C53   S    
C43   H23   S    
C54   H40   S    
O15   V3    S    
C15   C19   A    
C2    C51   S    
C16   C20   A    
C42   H20   S    
O12   C60   A    
C41   H19   S    
C7    C58   S    
O3    C1    A    
C52   C56   S    
C9    C17   A    
O16   C60   A    
C20   C22   A    
C47   H33   S    
H29   C53   S    
O12   V3    S    
C46   H38   S    
C44   H26   S    
C48   C50   S    
C26   H2    S    
C43   H25   S    
O6    C4    A    
O13   C57   A    
O1    V2    S    
O18   V4    S    
C56   H36   S    
O2    V1    S    
C31   C33   A    
C46   C54   S    
O4    C2    A    
O15   C59   A    
C9    C11   A    
N1    H41   S    
C10   C12   A    
C13   C15   A    
C61   H45   S    
C41   C43   S    
O3    V1    S    
O11   C59   A    
C62   H49   S    
O13   V3    S    
C12   H10   S    
C10   C18   A    
C47   C55   S    
O10   V1    S    
C27   H15   S    
H28   C46   S    
C36   H18   S    
C28   C30   A    
C61   H46   S    
N2    H44   S    
O11   V4    S    
C48   H34   S    
C35   C37   A    
C53   H39   S    
C52   C54   S    
C5    C13   A    
C24   C26   A    
O17   V3    S    
C29   H5    S    
C1    O8    A    
C8    C40   A    
C32   C36   A    
O8    V2    S    
C41   H21   S    
C36   C38   A    
C21   C23   A    
C22   C24   A    
C19   C27   A    
C44   H24   S    
C20   C28   A    
C47   H31   S    
C58   O17   A    
C57   O18   A    
C7    C39   A    
C11   H9    S    
C41   C49   S    
C1    C52   S    
C8    C38   A    
C28   H16   S    
O9    V2    S    
C17   C25   A    
N1    H42   S    
C33   C39   A    
C49   C60   S    
O20   V3    S    
O16   V4    S    
C31   C35   A    
C51   C55   S    
C40   H4    S    
O7    V1    S    
