data_mof_unit_4292.cif
_audit_creation_date              2012-10-26T18:43:30-0400
_audit_creation_method            fapswitch 2.2
_symmetry_space_group_name_H-M    P1
_symmetry_Int_Tables_number       1
_space_group_crystal_system       triclinic
_cell_length_a                    10.973236
_cell_length_b                    10.887356
_cell_length_c                    9.671095
_cell_angle_alpha                 88.087712
_cell_angle_beta                  89.557518
_cell_angle_gamma                 94.597497
_cell_volume                      1150.97941824

loop_
_atom_site_label
_atom_site_type_symbol
_atom_type_description
_atom_site_fract_x
_atom_site_fract_y
_atom_site_fract_z
_atom_type_partial_charge
C1    C     C_R   0.497391 0.262939 0.501674 0.578359
C2    C     C_R   0.545225 0.936985 0.595573 -0.030742
C3    C     C_3   0.614650 0.923670 0.725361 -0.244758
C4    C     C_R   0.259452 0.491107 0.499595 0.596734
C5    C     C_3   0.599868 0.061658 0.743295 -0.051905
C6    C     C_R   0.557498 0.595549 0.069439 0.169667
C7    C     C_R   0.440051 0.409829 0.081738 0.053117
C8    C     C_R   0.433295 0.411023 0.935732 0.319124
C9    C     C_R   0.558714 0.594559 0.922751 0.099124
C10   C     C_3   0.691487 0.629523 0.917836 -0.259426
C11   C     C_3   0.690093 0.634453 0.073680 -0.228316
C12   C     C_3   0.878167 0.511798 0.496009 -0.056942
C13   C     C_R   0.495494 0.736565 0.497167 0.611493
C14   C     C_R   0.740034 0.509193 0.498804 0.579715
C15   C     C_3   0.052128 0.406580 0.610050 -0.075274
C16   C     C_3   0.912751 0.404185 0.593306 -0.271985
C17   C     C_3   0.089590 0.630346 0.519311 -0.134715
C18   C     C_3   0.063286 0.461026 0.348851 0.064963
C19   C     C_3   0.120475 0.492813 0.495635 -0.092066
C20   C     C_2   0.511586 0.076972 0.859195 0.634850
C21   C     C_2   0.087538 0.275406 0.629095 0.689812
C22   C     C_2   0.167471 0.702491 0.624707 0.603802
C23   C     C_3   0.947406 0.640881 0.536741 0.190609
C24   C     C_2   0.919592 0.674472 0.686184 0.616034
C25   C     C_3   0.923883 0.477163 0.350404 -0.246519
C26   C     C_R   0.537647 0.059300 0.606428 0.005318
C27   C     C_R   0.489300 0.129764 0.502156 0.000832
C28   C     C_R   0.437589 0.066766 0.388839 -0.063904
C29   C     C_R   0.434698 0.937061 0.382870 0.253679
C30   C     C_R   0.492111 0.869526 0.490048 0.015090
Cu1   Cu    Cu3+1 0.499990 0.499980 0.640670 1.101518
Cu2   Cu    Cu3+1 0.500010 0.500020 0.359330 1.082477
H1    H     H_    0.070206 0.450763 0.708225 0.232449
H2    H     H_    0.711737 0.720514 0.865665 0.150808
H3    H     H_    0.743598 0.563386 0.123420 0.157978
H4    H     H_    0.708095 0.729172 0.112229 0.194060
H5    H     H_    0.875667 0.315235 0.550073 0.159986
H6    H     H_    0.868399 0.404836 0.696937 0.186064
H7    H     H_    0.106057 0.528954 0.270787 0.185971
H8    H     H_    0.870468 0.391392 0.319586 0.158776
H9    H     H_    0.741170 0.850974 0.364000 0.367094
H10   H     H_    0.417335 0.807996 0.041820 0.369024
H11   H     H_    0.350480 0.009208 0.946785 0.383757
H12   H     H_    0.902542 0.544981 0.269211 0.175543
H13   H     H_    0.060803 0.114275 0.738756 0.388042
H14   H     H_    0.323518 0.178215 0.043552 0.336879
H15   H     H_    0.266851 0.860706 0.665867 0.367960
H16   H     H_    0.901073 0.811868 0.818537 0.345024
H17   H     H_    0.961834 0.319283 0.104566 0.342450
H18   H     H_    0.117811 0.680412 0.421461 0.203490
H19   H     H_    0.398290 0.118595 0.305221 0.192228
H20   H     H_    0.564991 0.859688 0.802494 0.168740
H21   H     H_    0.710175 0.904590 0.703560 0.200634
H22   H     H_    0.687327 0.120830 0.744429 0.130776
H23   H     H_    0.390698 0.340544 0.145644 0.179006
H24   H     H_    0.740726 0.552079 0.880280 0.202527
N1    N     N_R   0.500800 0.500930 0.147930 -0.273499
N2    N     N_R   0.500800 0.500890 0.852020 -0.255060
O1    O     O_R   0.500000 0.319640 0.618810 -0.462483
O2    O     O_2   0.946081 0.755306 0.275282 -0.290453
O3    O     O_3   0.755134 0.780220 0.427372 -0.547766
O4    O     O_2   0.295195 0.745482 0.278539 -0.262659
O5    O     O_2   0.265064 0.951491 0.186042 -0.222608
O6    O     O_3   0.463116 0.852360 0.115368 -0.546304
O7    O     O_2   0.542579 0.139134 0.957679 -0.530558
O8    O     O_R   0.396180 0.012144 0.855987 -0.660565
O9    O     O_2   0.165315 0.235127 0.556347 -0.383407
O10   O     O_R   0.030285 0.199786 0.734208 -0.629117
O11   O     O_2   0.206699 0.409613 0.869128 -0.220088
O12   O     O_R   0.500010 0.319680 0.381230 -0.529473
O13   O     O_2   0.319329 0.255364 0.753957 -0.228396
O14   O     O_3   0.250787 0.214268 0.005476 -0.403314
O15   O     O_2   0.181238 0.660388 0.741838 -0.428692
O16   O     O_R   0.219943 0.820225 0.587379 -0.630597
O17   O     O_2   0.935929 0.602279 0.782214 -0.544633
O18   O     O_R   0.894828 0.794683 0.716329 -0.643271
O19   O     O_2   0.215802 0.281166 0.291502 -0.214059
O20   O     O_2   0.002780 0.211725 0.344782 -0.234560
O21   O     O_3   0.052187 0.322373 0.108155 -0.395679
O22   O     O_R   0.317690 0.499960 0.618790 -0.437286
O23   O     O_R   0.317700 0.500000 0.381210 -0.460701
O24   O     O_R   0.499990 0.680320 0.618770 -0.508383
O25   O     O_R   0.500000 0.680360 0.381190 -0.434594
O26   O     O_R   0.682300 0.500000 0.618790 -0.528016
O27   O     O_R   0.682310 0.500040 0.381210 -0.511128
O28   O     O_2   0.968991 0.888161 0.470957 -0.144313
S1    S     S_3+6 0.906528 0.769412 0.422629 0.036000
S2    S     S_3+6 0.358714 0.868995 0.239888 0.058023
S3    S     S_3+6 0.302711 0.320814 0.884453 0.099191
S4    S     S_3+6 0.086111 0.313135 0.277234 0.079416

loop_
_geom_bond_atom_site_label_1
_geom_bond_atom_site_label_2
_ccdc_geom_bond_type
O5    S2    D    
H16   O18   S    
C14   O26   A    
C6    C9    A    
C7    C8    A    
C5    C20   S    
O20   S4    D    
C15   C19   S    
Cu2   O23   S    
C12   C23   S    
C26   C27   A    
C17   C23   S    
Cu1   O24   S    
Cu1   N2    S    
C20   O8    S    
C11   H4    S    
C4    O22   A    
C1    O1    A    
C25   H8    S    
C28   H19   S    
C15   C16   S    
C18   C19   S    
Cu1   O1    S    
O21   S4    S    
O3    S1    S    
C8    N2    A    
C4    C19   S    
C4    O23   A    
C12   C16   S    
C29   S2    S    
C23   C24   S    
H9    O3    S    
C10   H24   S    
C9    C10   S    
H14   O14   S    
C16   H5    S    
C23   S1    S    
C21   O9    D    
C6    N1    A    
C18   C25   S    
Cu2   N1    S    
O11   S3    D    
C25   H12   S    
O2    S1    D    
O19   S4    D    
C18   S4    S    
C5    H22   S    
Cu1   O22   S    
H15   O16   S    
C2    C26   A    
C6    C11   S    
O28   S1    D    
C24   O18   S    
Cu2   O12   S    
O4    S2    D    
C13   O24   A    
Cu1   O26   S    
H17   O21   S    
C18   H7    S    
C29   C30   A    
C20   O7    D    
Cu1   Cu2   S    
O13   S3    D    
H13   O10   S    
C10   H2    S    
C7    H23   S    
C12   C14   S    
C21   O10   S    
C22   O16   S    
H10   O6    S    
Cu2   O25   S    
C28   C29   A    
C1    O12   A    
C14   O27   A    
C3    C5    S    
C17   H18   S    
C3    H20   S    
C24   O17   D    
C13   O25   A    
C17   C22   S    
C12   C25   S    
C2    C30   A    
C11   H3    S    
C2    C3    S    
O14   S3    S    
C3    H21   S    
H11   O8    S    
Cu2   O27   S    
C17   C19   S    
O6    S2    S    
C7    N1    A    
C10   C11   S    
C5    C26   S    
C15   C21   S    
C13   C30   S    
C9    N2    A    
C27   C28   A    
C1    C27   S    
C8    S3    S    
C22   O15   D    
C15   H1    S    
C16   H6    S    
