data_mof_unit_3523.cif
_audit_creation_date              2012-10-26T19:35:38-0400
_audit_creation_method            fapswitch 2.2
_symmetry_space_group_name_H-M    P1
_symmetry_Int_Tables_number       1
_space_group_crystal_system       triclinic
_cell_length_a                    15.852112
_cell_length_b                    10.836676
_cell_length_c                    9.603145
_cell_angle_alpha                 90.468848
_cell_angle_beta                  91.168624
_cell_angle_gamma                 90.717626
_cell_volume                      1649.13735294

loop_
_atom_site_label
_atom_site_type_symbol
_atom_type_description
_atom_site_fract_x
_atom_site_fract_y
_atom_site_fract_z
_atom_type_partial_charge
C1    C     C_R   0.498282 0.262523 0.499439 0.551844
C2    C     C_R   0.489716 0.129344 0.498119 -0.010800
C3    C     C_R   0.482695 0.063155 0.371775 -0.132509
C4    C     C_R   0.339983 0.499579 0.498672 0.567089
C5    C     C_R   0.482702 0.934424 0.372321 -0.151605
C6    C     C_R   0.489930 0.870774 0.499181 0.003387
C7    C     C_R   0.484992 0.937691 0.623439 0.026466
C8    C     C_3   0.539383 0.933651 0.752093 -0.271471
C9    C     C_3   0.539562 0.073930 0.751475 -0.053436
C10   C     C_R   0.571464 0.529269 0.076133 0.164537
C11   C     C_R   0.432673 0.454297 0.069244 0.171932
C12   C     C_3   0.082962 0.500641 0.494935 0.030259
C13   C     C_R   0.432489 0.457709 0.921486 0.030523
C14   C     C_R   0.571856 0.527651 0.929508 0.180509
C15   C     C_3   0.623003 0.643736 0.926255 -0.283545
C16   C     C_R   0.498451 0.737591 0.500175 0.544481
C17   C     C_3   0.621558 0.646272 0.084540 -0.278086
C18   C     C_R   0.660049 0.500170 0.501309 0.538448
C19   C     C_3   0.973248 0.404575 0.576586 -0.093014
C20   C     C_3   0.025393 0.393914 0.442008 -0.134328
C21   C     C_1   0.250282 0.499236 0.495536 0.025323
C22   C     C_1   0.749831 0.500213 0.504225 -0.027598
C23   C     C_3   0.973998 0.607606 0.556673 -0.092855
C24   C     C_3   0.031510 0.511591 0.627628 -0.000816
C25   C     C_2   0.495343 0.129905 0.873585 0.587779
C26   C     C_2   0.358615 0.395107 0.131376 0.588018
C27   C     C_2   0.054190 0.704415 0.341124 0.550106
C28   C     C_3   0.070700 0.525427 0.773223 -0.250107
C29   C     C_3   0.002976 0.550816 0.880323 -0.313949
C30   C     C_3   0.042338 0.572647 0.024225 -0.408074
C31   C     C_3   0.917113 0.500305 0.503555 0.026869
C32   C     C_3   0.025881 0.595112 0.423316 0.084900
C33   C     C_3   0.967446 0.489345 0.368883 -0.121422
C34   C     C_1   0.174717 0.499420 0.493999 -0.006230
C35   C     C_1   0.825445 0.500224 0.505201 -0.050494
C36   C     C_R   0.484746 0.064952 0.622990 0.044070
Cu1   Cu    Cu3+1 0.500000 0.499980 0.640670 0.977094
Cu2   Cu    Cu3+1 0.500000 0.500020 0.359330 1.022669
H1    H     H_    0.047566 0.306750 0.394434 0.127340
H2    H     H_    0.937945 0.477678 0.263885 0.109677
H3    H     H_    0.951857 0.695320 0.603037 0.117205
H4    H     H_    0.481545 0.110094 0.272624 0.190983
H5    H     H_    0.481352 0.885603 0.273411 0.146343
H6    H     H_    0.505261 0.891794 0.840445 0.161679
H7    H     H_    0.389223 0.141297 0.985114 0.349732
H8    H     H_    0.231937 0.390920 0.147561 0.333678
H9    H     H_    0.150762 0.799762 0.258550 0.344423
H10   H     H_    0.071424 0.486776 0.064119 0.163255
H11   H     H_    0.090889 0.647394 0.021612 0.195900
H12   H     H_    0.602581 0.894642 0.731971 0.107398
H13   H     H_    0.991979 0.601778 0.094941 0.166736
H14   H     H_    0.967157 0.634420 0.850492 0.167837
H15   H     H_    0.958090 0.471297 0.884253 0.162971
H16   H     H_    0.104768 0.439544 0.800100 0.161053
H17   H     H_    0.116887 0.603457 0.772685 0.162774
H18   H     H_    0.602863 0.115232 0.731989 0.109780
H19   H     H_    0.378192 0.422854 0.862752 0.146931
H20   H     H_    0.686942 0.628414 0.884436 0.133176
H21   H     H_    0.587882 0.720039 0.877742 0.140533
H22   H     H_    0.684801 0.632916 0.133846 0.141853
H23   H     H_    0.585103 0.724397 0.127435 0.145443
H24   H     H_    0.950492 0.326740 0.640844 0.117334
N1    N     N_R   0.500530 0.500930 0.147930 -0.255883
N2    N     N_R   0.500530 0.500890 0.852020 -0.246191
O1    O     O_R   0.500000 0.319640 0.618810 -0.493920
O2    O     O_R   0.411401 0.097973 0.899688 -0.692106
O3    O     O_2   0.367030 0.303868 0.203893 -0.514291
O4    O     O_R   0.278079 0.439606 0.100192 -0.720388
O5    O     O_2   0.001938 0.777172 0.297170 -0.533481
O6    O     O_R   0.139816 0.723057 0.315485 -0.692375
O7    O     O_R   0.500010 0.319680 0.381230 -0.461456
O8    O     O_R   0.379070 0.499970 0.618770 -0.517742
O9    O     O_R   0.379080 0.500010 0.381190 -0.458704
O10   O     O_R   0.499990 0.680320 0.618770 -0.502612
O11   O     O_R   0.500000 0.680360 0.381190 -0.517094
O12   O     O_R   0.620920 0.499990 0.618810 -0.501145
O13   O     O_R   0.620930 0.500030 0.381230 -0.501020
O14   O     O_2   0.533544 0.202748 0.950354 -0.531593

loop_
_geom_bond_atom_site_label_1
_geom_bond_atom_site_label_2
_ccdc_geom_bond_type
Cu1   O10   S    
C3    H4    S    
C16   O11   A    
C7    C36   A    
C10   N1    A    
C30   H13   S    
C19   C31   S    
C9    C25   S    
C7    C8    S    
C22   C35   T    
C1    O7    A    
C16   O10   A    
C26   O3    D    
C30   H10   S    
C28   C29   S    
Cu1   Cu2   S    
C11   N1    A    
C5    C6    A    
C13   H19   S    
C19   H24   S    
C1    C2    S    
C17   H23   S    
C19   C20   S    
C8    C9    S    
Cu1   O1    S    
C9    C36   S    
C1    O1    A    
C23   C24   S    
C31   C33   S    
C27   O5    D    
C5    H5    S    
C12   C32   S    
C28   H17   S    
Cu2   O11   S    
C33   H2    S    
C25   O14   D    
C8    H6    S    
C10   C14   A    
C20   H1    S    
C28   H16   S    
C21   C34   T    
C11   C26   S    
C23   C31   S    
H9    O6    S    
H8    O4    S    
C29   C30   S    
C14   N2    A    
C12   C20   S    
C9    H18   S    
C4    O9    A    
C27   O6    S    
C20   C33   S    
Cu1   O12   S    
C15   H20   S    
C31   C35   S    
C12   C34   S    
C8    H12   S    
C4    O8    A    
Cu1   N2    S    
Cu2   N1    S    
C2    C36   A    
C15   C17   S    
Cu2   O7    S    
C18   O12   A    
C27   C32   S    
C18   C22   S    
C15   H21   S    
C30   H11   S    
C25   O2    S    
C24   C28   S    
C3    C5    A    
C6    C7    A    
Cu2   O13   S    
C12   C24   S    
C23   H3    S    
C26   O4    S    
C23   C32   S    
C2    C3    A    
C32   C33   S    
C4    C21   S    
C11   C13   A    
C13   N2    A    
C29   H15   S    
C18   O13   A    
C19   C24   S    
C17   H22   S    
C6    C16   S    
Cu1   O8    S    
H7    O2    S    
C14   C15   S    
C10   C17   S    
Cu2   O9    S    
C29   H14   S    
