data_mof_unit_4201.cif
_audit_creation_date              2013-03-05T16:11:21-0500
_audit_creation_method            fapswitch 2.2
_symmetry_space_group_name_H-M    P1
_symmetry_Int_Tables_number       1
_space_group_crystal_system       triclinic
_cell_length_a                    10.584626
_cell_length_b                    9.983849
_cell_length_c                    10.710041
_cell_angle_alpha                 89.347758
_cell_angle_beta                  91.658758
_cell_angle_gamma                 90.111113
_cell_volume                      1131.23783891

loop_
_atom_site_label
_atom_site_type_symbol
_atom_site_description
_atom_site_fract_x
_atom_site_fract_y
_atom_site_fract_z
_atom_type_partial_charge
O1    O     O_R   0.316750 0.614620 0.499990 -0.578169
O2    O     O_R   0.316750 0.385380 0.499990 -0.588054
C1    C     C_R   0.260611 0.499933 0.500654 0.867155
O3    O     O_R   0.499970 0.614670 0.314790 -0.545655
O4    O     O_R   0.499970 0.385330 0.314790 -0.588553
C2    C     C_R   0.496115 0.501052 0.257757 0.972705
Zn1   Zn    Zn3+2 0.499980 0.653120 0.500000 1.071954
Zn2   Zn    Zn3+2 0.499980 0.346880 0.500000 1.066204
O5    O     O_R   0.683220 0.614710 0.500010 -0.579168
O6    O     O_R   0.683220 0.385290 0.500010 -0.580142
O7    O     O_R   0.500010 0.614660 0.685200 -0.618877
O8    O     O_R   0.500010 0.385340 0.685200 -0.588634
C3    C     C_R   0.739365 0.500141 0.500989 0.876263
C4    C     C_R   0.503033 0.499713 0.741943 0.969241
C5    C     C_3   0.487913 0.653936 0.068813 0.924121
C6    C     C_3   0.379572 0.416525 0.067103 0.974422
C7    C     C_3   0.505388 0.647210 0.925403 -0.619776
C8    C     C_3   0.380835 0.433092 0.921412 -0.644312
H1    H     H_    0.435892 0.707504 0.870786 0.188723
H2    H     H_    0.301336 0.498863 0.889399 0.168076
H3    H     H_    0.597837 0.692929 0.901946 0.261661
H4    H     H_    0.364406 0.339101 0.869945 0.208091
H5    H     H_    0.698716 0.501898 0.120275 0.195305
H6    H     H_    0.632260 0.340937 0.126065 0.227508
C9    C     C_3   0.621099 0.440344 0.079862 -0.698789
C10   C     C_3   0.494495 0.503645 0.119870 -0.158822
C11   C     C_3   0.504770 0.499910 0.879023 -0.114054
C12   C     C_3   0.625233 0.425234 0.933919 1.013217
C13   C     C_R   0.061806 0.424718 0.412842 -0.070451
C14   C     C_R   0.067818 0.575356 0.590785 -0.158123
H7    H     H_    0.110218 0.367782 0.343902 0.193713
H8    H     H_    0.120975 0.632176 0.660228 0.150929
C15   C     C_R   0.932311 0.425713 0.411928 -0.143974
C16   C     C_R   0.938095 0.574926 0.591093 -0.078049
H9    H     H_    0.879456 0.370314 0.341293 0.158539
H10   H     H_    0.889727 0.630498 0.661446 0.208715
C17   C     C_R   0.871878 0.500400 0.501391 0.002909
C18   C     C_R   0.128114 0.499872 0.501647 0.011093
C19   C     C_R   0.608330 0.070403 0.525567 0.199833
C20   C     C_R   0.606508 0.928034 0.532575 0.215057
N1    N     N_R   0.499970 0.857200 0.499970 -0.216434
N2    N     N_R   0.499970 0.142800 0.499970 -0.220066
C21   C     C_R   0.392623 0.928881 0.469716 0.182881
C22   C     C_R   0.391996 0.071235 0.472535 0.217457
O9    O     O_3   0.593749 0.724671 0.122158 -0.627222
C23   C     C_3   0.582373 0.865246 0.110111 -0.202656
H11   H     H_    0.565501 0.897655 0.011491 0.128984
H12   H     H_    0.672852 0.911307 0.142243 0.188739
H13   H     H_    0.507827 0.903839 0.171108 0.203360
O10   O     O_3   0.397979 0.282508 0.115491 -0.575300
C24   C     C_3   0.356696 0.174678 0.039940 -0.278095
H14   H     H_    0.430318 0.147666 0.973287 0.196252
H15   H     H_    0.265136 0.192372 0.989978 0.140232
H16   H     H_    0.343581 0.085901 0.101273 0.209899
N3    N     N_R   0.278480 0.861273 0.434548 0.262099
O11   O     O_R   0.181224 0.866487 0.505869 -0.321080
O12   O     O_R   0.265222 0.811864 0.323311 -0.328274
N4    N     N_R   0.277366 0.138820 0.439580 0.261893
O13   O     O_R   0.248087 0.158350 0.322161 -0.393027
O14   O     O_R   0.189585 0.147647 0.521690 -0.328110
O15   O     O_3   0.371800 0.709487 0.112589 -0.546330
C25   C     C_3   0.295863 0.784592 0.026805 -0.228452
H17   H     H_    0.219630 0.833128 0.078717 0.229358
H18   H     H_    0.248233 0.718082 0.957649 0.157557
H19   H     H_    0.349261 0.866464 0.981345 0.105910
O16   O     O_3   0.267767 0.472969 0.116262 -0.595021
C26   C     C_3   0.156005 0.402178 0.084859 -0.305566
H20   H     H_    0.152274 0.305128 0.135765 0.226270
H21   H     H_    0.142328 0.387983 0.982772 0.135379
H22   H     H_    0.074801 0.462119 0.115699 0.177836
O17   O     O_3   0.731506 0.483918 0.872390 -0.625859
C27   C     C_3   0.843509 0.500951 0.945548 -0.377599
H23   H     H_    0.862669 0.416958 0.012104 0.138956
H24   H     H_    0.840723 0.597982 0.995087 0.213392
H25   H     H_    0.924357 0.505935 0.882015 0.196269
O18   O     O_3   0.612055 0.287623 0.900951 -0.626078
C28   C     C_3   0.722681 0.211051 0.924139 -0.181052
H26   H     H_    0.752072 0.207978 0.024258 0.112309
H27   H     H_    0.801841 0.246409 0.866741 0.234873
H28   H     H_    0.702227 0.106160 0.896971 0.196932
N5    N     N_R   0.726996 0.136411 0.539950 0.275181
O19   O     O_R   0.800915 0.142421 0.445110 -0.353225
O20   O     O_R   0.774304 0.157069 0.651248 -0.369314
N6    N     N_R   0.715272 0.859564 0.582331 0.251335
O21   O     O_R   0.711872 0.806375 0.693575 -0.413078
O22   O     O_R   0.822561 0.868273 0.526474 -0.303350

loop_
_geom_bond_atom_site_label_1
_geom_bond_atom_site_label_2
_geom_bond_distance
_ccdc_geom_bond_type
C24   H15   1.106904 S    
N3    O11   1.300967 A    
C27   H24   1.110648 S    
C16   C17   1.393952 A    
C20   N6    1.426823 S    
Zn2   N2    2.037507 S    
N5    O19   1.300742 A    
C28   H26   1.107915 S    
C9    C12   1.573902 S    
Zn1   O7    2.016019 S    
C23   H13   1.111116 S    
C6    O10   1.440895 S    
O3    Zn1   2.024693 S    
O4    C2    1.300881 A    
O7    C4    1.292482 A    
N4    O14   1.301454 A    
C13   C15   1.370460 A    
C14   C18   1.392891 A    
Zn1   O5    1.977800 S    
O5    C3    1.289822 A    
C25   H18   1.109942 S    
C15   H9    1.083983 S    
N6    O21   1.300305 A    
C1    C18   1.402782 S    
C22   N4    1.423020 S    
C13   C18   1.391315 A    
C4    C11   1.467745 S    
C3    C17   1.402484 S    
Zn1   N1    2.037500 S    
O16   C26   1.411088 S    
O1    Zn1   1.976410 S    
N1    C21   1.372851 A    
N2    C22   1.373005 A    
C27   H25   1.109306 S    
N5    O20   1.297998 A    
C19   N2    1.376079 A    
C28   H27   1.108278 S    
C6    C10   1.588367 S    
C23   H12   1.109003 S    
C14   C16   1.373164 A    
C26   H20   1.107571 S    
C7    C11   1.557528 S    
H6    C9    1.108911 S    
C19   N5    1.422519 S    
O3    C2    1.294469 A    
C19   C20   1.422636 A    
C5    C10   1.592110 S    
N4    O13   1.299080 A    
O9    C23   1.412990 S    
C15   C17   1.391701 A    
C24   H14   1.107685 S    
C26   H21   1.109402 S    
C21   C22   1.421934 A    
C25   H17   1.108433 S    
Zn2   O8    2.024602 S    
O10   C24   1.414983 S    
C5    O15   1.442156 S    
O18   C28   1.414041 S    
C21   N3    1.425981 S    
C20   N1    1.368731 A    
O8    C4    1.299525 A    
N3    O12   1.298375 A    
C12   O17   1.440277 S    
C6    O16   1.428506 S    
C5    O9    1.431478 S    
C12   O18   1.427986 S    
C28   H28   1.109322 S    
C5    C7    1.554562 S    
C23   H11   1.110736 S    
C25   H19   1.108918 S    
C8    H4    1.104653 S    
Zn2   O6    1.976341 S    
O2    Zn2   1.977872 S    
C8    C11   1.547946 S    
N6    O22   1.301089 A    
C27   H23   1.109559 S    
O6    C3    1.290488 A    
O4    Zn2   2.016113 S    
C24   H16   1.108109 S    
C26   H22   1.108564 S    
O2    C1    1.290035 A    
C9    C10   1.556099 S    
O17   C27   1.413065 S    
C13   H7    1.078635 S    
C14   H8    1.084284 S    
C2    C10   1.476316 S    
C7    H1    1.102008 S    
C16   H10   1.081954 S    
C8    H2    1.112257 S    
H5    C9    1.106102 S    
O15   C25   1.412906 S    
C7    H3    1.113050 S    
C6    C8    1.567665 S    
C11   C12   1.574030 S    
O1    C1    1.289040 A    
