data_mof_unit_2399.cif
_audit_creation_date              2013-03-05T16:46:09-0500
_audit_creation_method            fapswitch 2.2
_symmetry_space_group_name_H-M    P1
_symmetry_Int_Tables_number       1
_space_group_crystal_system       triclinic
_cell_length_a                    10.830268
_cell_length_b                    10.679475
_cell_length_c                    9.898428
_cell_angle_alpha                 90.865734
_cell_angle_beta                  90.710863
_cell_angle_gamma                 90.738796
_cell_volume                      1144.55101077

loop_
_atom_site_label
_atom_site_type_symbol
_atom_site_description
_atom_site_fract_x
_atom_site_fract_y
_atom_site_fract_z
_atom_type_partial_charge
O1    O     O_R   0.500020 0.316790 0.614690 -0.618289
O2    O     O_R   0.500000 0.316760 0.385350 -0.627680
C1    C     C_R   0.497560 0.260332 0.499181 0.878333
O3    O     O_R   0.316770 0.500030 0.614670 -0.637113
O4    O     O_R   0.316750 0.499990 0.385330 -0.623546
C2    C     C_R   0.260232 0.501886 0.498677 0.858833
Zn1   Zn    Zn3+2 0.500010 0.500020 0.653130 0.964262
Zn2   Zn    Zn3+2 0.499990 0.499980 0.346870 0.974340
O5    O     O_R   0.500000 0.683240 0.614650 -0.621079
O6    O     O_R   0.499980 0.683210 0.385310 -0.610014
O7    O     O_R   0.683250 0.500010 0.614670 -0.600720
O8    O     O_R   0.683230 0.499970 0.385330 -0.599595
C3    C     C_R   0.497454 0.739797 0.500923 0.884986
C4    C     C_R   0.740126 0.498273 0.501505 0.885015
H1    H     H_    0.220116 0.606978 0.876276 0.139375
C5    C     C_R   0.194459 0.686290 0.076278 0.175987
C6    C     C_R   0.155834 0.661479 0.208138 -0.056275
H2    H     H_    0.156068 0.736293 0.283317 0.121607
C7    C     C_R   0.112786 0.541400 0.241599 0.113743
C8    C     C_R   0.109402 0.445969 0.142861 -0.168576
H3    H     H_    0.074237 0.353605 0.166697 0.144617
C9    C     C_R   0.148932 0.469931 0.012159 -0.179307
H4    H     H_    0.144326 0.396061 0.936382 0.142739
C10   C     C_R   0.191023 0.589481 0.978512 -0.164642
C11   C     C_R   0.932823 0.511796 0.381947 -0.205728
H5    H     H_    0.881236 0.521620 0.289483 0.198777
C12   C     C_R   0.873061 0.496668 0.504597 -0.099657
C13   C     C_R   0.942128 0.483642 0.625382 0.018120
C14   C     C_R   0.068726 0.485124 0.618846 -0.251986
H6    H     H_    0.120964 0.471545 0.711150 0.161594
C15   C     C_R   0.127975 0.503009 0.496251 -0.085300
C16   C     C_R   0.059317 0.518155 0.375848 -0.006201
C17   C     C_R   0.888894 0.574584 0.849432 -0.156574
H7    H     H_    0.923815 0.664028 0.815249 0.181979
C18   C     C_R   0.843353 0.563352 0.980890 0.395197
C19   C     C_R   0.800357 0.445841 0.023325 -0.261460
H8    H     H_    0.764100 0.434155 0.123508 0.170928
C20   C     C_R   0.804172 0.341508 0.936578 -0.205761
H9    H     H_    0.772043 0.251157 0.970870 0.172847
C21   C     C_R   0.848142 0.353846 0.805508 -0.121600
H10   H     H_    0.851559 0.272557 0.739159 0.133196
C22   C     C_R   0.889034 0.470837 0.760972 0.073319
C23   C     C_R   0.531008 0.066978 0.612742 0.089283
C24   C     C_R   0.487024 0.128481 0.500069 -0.087244
C25   C     C_R   0.425538 0.062165 0.395869 -0.206099
H11   H     H_    0.382338 0.109860 0.312375 0.158731
C26   C     C_R   0.424959 0.932351 0.397578 -0.171311
H12   H     H_    0.382902 0.880020 0.314319 0.151988
C27   C     C_R   0.484306 0.871512 0.504324 -0.142769
C28   C     C_R   0.527349 0.939193 0.616736 0.070598
C29   C     C_3   0.651329 0.935746 0.685029 0.154966
C30   C     C_3   0.656093 0.077317 0.677269 -0.558409
H13   H     H_    0.723051 0.887327 0.624661 0.107063
H14   H     H_    0.655090 0.127127 0.776505 0.225745
H15   H     H_    0.727133 0.112166 0.606367 0.170788
C31   C     C_R   0.510107 0.390840 0.069319 0.196404
N1    N     N_R   0.499160 0.499140 0.142800 -0.119640
C32   C     C_R   0.497540 0.609007 0.073392 -0.026176
H16   H     H_    0.494059 0.697166 0.127979 0.177363
C33   C     C_R   0.496750 0.608912 0.929928 -0.089413
H17   H     H_    0.489879 0.696435 0.877721 0.200385
N2    N     N_R   0.499160 0.499180 0.857150 -0.126132
C34   C     C_R   0.509947 0.390858 0.927211 0.231048
C35   C     C_3   0.424230 0.280629 0.918914 -0.479462
C36   C     C_3   0.425557 0.279900 0.072333 -0.499366
H18   H     H_    0.333232 0.303713 0.873571 0.203023
H19   H     H_    0.468235 0.196899 0.873864 0.233340
H20   H     H_    0.334935 0.301265 0.117976 0.216817
H21   H     H_    0.472483 0.196690 0.113805 0.222305
N3    N     N_R   0.642917 0.892012 0.823650 0.229719
O9    O     O_R   0.717289 0.805756 0.864588 -0.378919
O10   O     O_R   0.562033 0.937568 0.906760 -0.435709
N4    N     N_3   0.232140 0.810987 0.041926 -0.426222
H22   H     H_    0.251785 0.815431 0.938918 0.194120
H23   H     H_    0.314827 0.831170 0.093471 0.168300
N5    N     N_R   0.841615 0.670538 0.070461 0.214819
O11   O     O_R   0.914965 0.765854 0.050917 -0.360796
O12   O     O_R   0.760381 0.677961 0.165824 -0.397828

loop_
_geom_bond_atom_site_label_1
_geom_bond_atom_site_label_2
_geom_bond_distance
_ccdc_geom_bond_type
N4    H22   1.045810 S    
C7    C8    1.401170 A    
C26   C27   1.402278 A    
C25   H11   1.081974 S    
Zn1   O7    2.025357 S    
C14   H6    1.081292 S    
C17   C22   1.401797 A    
C13   C14   1.373318 A    
N5    O12   1.300566 A    
O4    C2    1.284731 A    
O7    C4    1.285037 A    
C23   C30   1.492621 S    
C32   C33   1.419973 A    
C31   C36   1.488913 S    
C31   N1    1.364198 A    
C33   N2    1.367002 A    
O5    C3    1.285698 A    
C17   C18   1.403555 A    
C18   C19   1.404958 A    
C5    C6    1.403531 A    
C26   H12   1.081290 S    
N3    O9    1.297631 A    
C29   N3    1.459637 S    
C4    C12   1.440000 S    
C30   H15   1.112163 S    
C11   C16   1.372896 A    
C21   C22   1.399534 A    
C2    C15   1.432496 S    
C5    C10   1.405228 A    
N4    H23   1.043598 S    
O3    Zn1   2.016080 S    
C7    C16   1.479247 S    
C30   H14   1.110210 S    
C17   H7    1.083322 S    
C25   C26   1.386636 A    
C18   N5    1.437730 S    
C1    C24   1.411422 S    
C29   C30   1.515264 S    
C35   H19   1.108954 S    
N5    O11   1.301375 A    
O3    C2    1.295040 A    
C28   C29   1.496917 S    
C11   H5    1.073576 S    
C5    N4    1.434815 S    
C33   H17   1.077815 S    
C29   H13   1.113717 S    
C35   H18   1.110018 S    
C23   C24   1.385352 A    
Zn1   N2    2.019767 S    
N2    C34   1.363280 A    
Zn2   N1    2.019765 S    
C15   C16   1.409397 A    
Zn2   O8    2.016081 S    
C36   H20   1.110455 S    
C6    H2    1.083544 S    
C31   C34   1.406628 A    
H1    C10   1.081854 S    
C3    C27   1.415589 S    
C21   H10   1.081919 S    
C8    C9    1.394088 A    
C9    C10   1.396548 A    
C24   C25   1.399124 A    
Zn1   O5    1.999064 S    
C19   H8    1.079480 S    
O1    Zn1   1.987800 S    
O2    Zn2   1.999062 S    
O8    C4    1.298360 A    
O6    C3    1.286815 A    
O4    Zn2   2.025357 S    
C23   C28   1.365920 A    
C11   C12   1.393424 A    
C35   C36   1.518630 S    
C19   C20   1.397730 A    
O2    C1    1.286175 A    
C32   H16   1.079733 S    
C14   C15   1.394260 A    
C20   C21   1.395072 A    
N1    C32   1.368788 A    
C20   H9    1.082356 S    
C36   H21   1.110843 S    
C13   C22   1.474223 S    
C6    C7    1.404569 A    
C34   C35   1.490410 S    
C8    H3    1.083176 S    
Zn2   O6    1.987801 S    
C27   C28   1.389967 A    
C12   C13   1.412017 A    
C9    H4    1.080570 S    
N3    O10   1.302921 A    
O1    C1    1.284335 A    
