data_mof_unit_734.cif
_audit_creation_date              2012-12-11T16:27:29-0500
_audit_creation_method            fapswitch 2.2
_symmetry_space_group_name_H-M    P1
_symmetry_Int_Tables_number       1
_space_group_crystal_system       triclinic
_cell_length_a                    21.656775
_cell_length_b                    6.940043
_cell_length_c                    14.980932
_cell_angle_alpha                 90.000013
_cell_angle_beta                  106.431326
_cell_angle_gamma                 90.000087
_cell_volume                      2159.66104401

loop_
_atom_site_label
_atom_site_type_symbol
_atom_type_description
_atom_site_fract_x
_atom_site_fract_y
_atom_site_fract_z
_atom_type_partial_charge
O1    O     O_R   0.835850 0.638310 0.002120 -0.536790
O2    O     O_R   0.164150 0.361690 0.997880 -0.536790
O3    O     O_R   0.664150 0.138310 0.997880 -0.536790
O4    O     O_R   0.335850 0.861690 0.002120 -0.536790
O5    O     O_R   0.717530 0.306070 0.861970 -0.543818
O6    O     O_R   0.282470 0.693930 0.138030 -0.543818
O7    O     O_R   0.782470 0.806070 0.138030 -0.543819
O8    O     O_R   0.217530 0.193930 0.861970 -0.543819
C1    C     C_R   0.705286 0.477458 0.825012 0.685179
C2    C     C_R   0.294714 0.522541 0.174988 0.685179
C3    C     C_R   0.794714 0.977459 0.174988 0.685178
C4    C     C_R   0.205286 0.022541 0.825012 0.685178
O9    O     O_R   0.838690 0.308440 0.993250 -0.540676
O10   O     O_R   0.161310 0.691560 0.006750 -0.540675
O11   O     O_R   0.661310 0.808440 0.006750 -0.540676
O12   O     O_R   0.338690 0.191560 0.993250 -0.540676
O13   O     O_R   0.786170 0.140510 0.130090 -0.540481
O14   O     O_R   0.213830 0.859490 0.869910 -0.540481
O15   O     O_R   0.713830 0.640510 0.869910 -0.540481
O16   O     O_R   0.286170 0.359490 0.130090 -0.540481
C5    C     C_R   0.865661 0.476792 0.000248 0.697845
C6    C     C_R   0.134338 0.523208 0.999752 0.697845
C7    C     C_R   0.634339 0.976791 0.999752 0.697844
C8    C     C_R   0.365661 0.023208 0.000248 0.697844
O17   O     O_3   0.732630 0.472520 0.044740 -0.369602
O18   O     O_3   0.267370 0.527480 0.955260 -0.369602
O19   O     O_3   0.767370 0.972520 0.955260 -0.369601
O20   O     O_3   0.232630 0.027480 0.044740 -0.369601
V1    V     V_3+5 0.753220 0.196740 0.991700 1.431273
V2    V     V_3+5 0.246780 0.803260 0.008300 1.431273
V3    V     V_3+5 0.746780 0.696740 0.008300 1.431272
V4    V     V_3+5 0.253220 0.303260 0.991700 1.431272
H1    H     H_    0.621410 0.958589 0.317712 0.120454
H2    H     H_    0.378590 0.041413 0.682288 0.120454
H3    H     H_    0.878589 0.458625 0.682288 0.120451
H4    H     H_    0.121411 0.541376 0.317712 0.120451
C9    C     C_R   0.530015 0.987717 0.828087 -0.218037
C10   C     C_R   0.469985 0.012284 0.171912 -0.218037
C11   C     C_R   0.969986 0.487704 0.171912 -0.218038
C12   C     C_R   0.030014 0.512297 0.828087 -0.218037
C13   C     C_R   0.481124 0.995805 0.743669 0.187109
C14   C     C_R   0.518876 0.004197 0.256331 0.187108
C15   C     C_R   0.018876 0.495783 0.256331 0.187106
C16   C     C_R   0.981124 0.504218 0.743669 0.187106
C17   C     C_R   0.417481 0.025863 0.745565 -0.122582
C18   C     C_R   0.582518 0.974138 0.254435 -0.122582
C19   C     C_R   0.082519 0.525836 0.254435 -0.122580
C20   C     C_R   0.917481 0.474165 0.745565 -0.122580
C21   C     C_R   0.402476 0.034185 0.829770 -0.192458
C22   C     C_R   0.597524 0.965816 0.170229 -0.192459
C23   C     C_R   0.097525 0.534164 0.170230 -0.192454
C24   C     C_R   0.902475 0.465836 0.829770 -0.192454
C25   C     C_R   0.450628 0.015514 0.915198 0.075184
C26   C     C_R   0.549372 0.984486 0.084802 0.075184
C27   C     C_R   0.049372 0.515504 0.084802 0.075184
C28   C     C_R   0.950628 0.484496 0.915197 0.075184
C29   C     C_R   0.515952 0.997520 0.914565 0.042829
C30   C     C_R   0.484048 0.002481 0.085435 0.042829
C31   C     C_R   0.984048 0.497512 0.085435 0.042829
C32   C     C_R   0.015952 0.502488 0.914565 0.042829
C33   C     C_R   0.434412 0.014697 0.000384 -0.160176
C34   C     C_R   0.565588 0.985303 0.999616 -0.160176
C35   C     C_R   0.065588 0.514695 0.999616 -0.160175
C36   C     C_R   0.934411 0.485305 0.000384 -0.160175
H5    H     H_    0.579065 0.968550 0.825242 0.105318
H6    H     H_    0.420935 0.031451 0.174758 0.105317
H7    H     H_    0.920935 0.468541 0.174758 0.105318
H8    H     H_    0.079065 0.531460 0.825241 0.105318
H9    H     H_    0.352517 0.054726 0.827132 0.100045
H10   H     H_    0.647483 0.945274 0.172868 0.100046
H11   H     H_    0.147484 0.554703 0.172869 0.100043
H12   H     H_    0.852516 0.445297 0.827131 0.100043
C37   C     C_R   0.177267 0.011472 0.724275 -0.021501
C38   C     C_R   0.822733 0.988528 0.275724 -0.021500
C39   C     C_R   0.322733 0.511474 0.275724 -0.021499
C40   C     C_R   0.677267 0.488526 0.724275 -0.021500
C41   C     C_R   0.188957 0.957010 0.570885 -0.171264
C42   C     C_R   0.811043 0.042992 0.429115 -0.171264
C43   C     C_R   0.311042 0.457044 0.429117 -0.171264
C44   C     C_R   0.688958 0.542961 0.570884 -0.171264
C45   C     C_R   0.216268 0.974925 0.666381 -0.174718
C46   C     C_R   0.783731 0.025077 0.333618 -0.174719
C47   C     C_R   0.283731 0.474949 0.333620 -0.174716
C48   C     C_R   0.716269 0.525055 0.666381 -0.174716
C49   C     C_R   0.110588 0.027116 0.686864 -0.247636
C50   C     C_R   0.889412 0.972883 0.313136 -0.247635
C51   C     C_R   0.389413 0.527106 0.313135 -0.247636
C52   C     C_R   0.610587 0.472893 0.686864 -0.247636
C53   C     C_R   0.081199 0.004232 0.590187 0.071789
C54   C     C_R   0.918801 0.995768 0.409813 0.071789
C55   C     C_R   0.418801 0.504233 0.409813 0.071789
C56   C     C_R   0.581199 0.495768 0.590187 0.071789
C57   C     C_R   0.122044 0.970916 0.532446 0.138524
C58   C     C_R   0.877955 0.029085 0.467554 0.138524
C59   C     C_R   0.377955 0.470939 0.467556 0.138521
C60   C     C_R   0.622045 0.529065 0.532444 0.138521
C61   C     C_R   0.012990 0.011786 0.549226 0.050891
C62   C     C_R   0.987010 0.988215 0.450774 0.050891
C63   C     C_R   0.487010 0.511779 0.450773 0.050886
C64   C     C_R   0.512990 0.488223 0.549226 0.050885
C65   C     C_R   0.030093 0.959470 0.396526 -0.179593
C66   C     C_R   0.969906 0.040532 0.603474 -0.179592
C67   C     C_R   0.469906 0.459499 0.603475 -0.179591
C68   C     C_R   0.530094 0.540505 0.396525 -0.179589
C69   C     C_R   0.096054 0.950610 0.436761 -0.237873
C70   C     C_R   0.903946 0.049392 0.563238 -0.237873
C71   C     C_R   0.403945 0.450646 0.563240 -0.237870
C72   C     C_R   0.596055 0.549359 0.436760 -0.237872
H13   H     H_    0.127069 0.926665 0.392282 0.131701
H14   H     H_    0.872930 0.073339 0.607718 0.131701
H15   H     H_    0.372930 0.426718 0.607721 0.131702
H16   H     H_    0.627071 0.573290 0.392279 0.131702
H17   H     H_    0.916585 0.945506 0.264370 0.100492
H18   H     H_    0.083415 0.054491 0.735631 0.100493
H19   H     H_    0.583414 0.445528 0.735631 0.100493
H20   H     H_    0.416586 0.554466 0.264368 0.100492
H21   H     H_    0.732262 0.040813 0.304945 0.098331
H22   H     H_    0.267738 0.959191 0.695054 0.098330
H23   H     H_    0.767739 0.540781 0.695053 0.098327
H24   H     H_    0.232261 0.459225 0.304948 0.098327
H25   H     H_    0.220175 0.929899 0.527030 0.114809
H26   H     H_    0.779824 0.070105 0.472969 0.114809
H27   H     H_    0.279823 0.429950 0.472972 0.114809
H28   H     H_    0.720177 0.570058 0.527028 0.114809
H29   H     H_    0.014682 0.943156 0.322109 0.137567
H30   H     H_    0.985318 0.056848 0.677891 0.137567
H31   H     H_    0.485317 0.443199 0.677893 0.137568
H32   H     H_    0.514683 0.556809 0.322107 0.137567
C73   C     C_3   0.499447 0.968170 0.654194 -0.358643
C74   C     C_3   0.442709 0.940865 0.566958 -0.749784
H33   H     H_    0.408314 0.833184 0.579222 0.235560
H34   H     H_    0.416875 0.077825 0.545436 0.234012
H35   H     H_    0.460398 0.888625 0.508968 0.233652
H36   H     H_    0.529002 0.092474 0.644322 0.181268
H37   H     H_    0.530297 0.838035 0.661942 0.191807
C75   C     C_3   0.500552 0.031833 0.345805 -0.358643
C76   C     C_3   0.557291 0.059140 0.433041 -0.749785
H38   H     H_    0.583125 0.922180 0.454564 0.234012
H39   H     H_    0.591686 0.166820 0.420777 0.235560
H40   H     H_    0.539602 0.111380 0.491031 0.233652
H41   H     H_    0.469703 0.161969 0.338057 0.191807
H42   H     H_    0.470998 0.907530 0.355678 0.181267
C77   C     C_3   0.000553 0.468148 0.345805 -0.358642
C78   C     C_3   0.057291 0.440838 0.433041 -0.749788
H43   H     H_    0.091682 0.333141 0.420778 0.235564
H44   H     H_    0.083131 0.577790 0.454559 0.234008
H45   H     H_    0.039602 0.388618 0.491034 0.233652
H46   H     H_    0.970999 0.592454 0.355678 0.181266
H47   H     H_    0.969702 0.338015 0.338057 0.191808
C79   C     C_3   0.999447 0.531854 0.654194 -0.358642
C80   C     C_3   0.942709 0.559165 0.566959 -0.749788
H48   H     H_    0.916868 0.422212 0.545441 0.234008
H49   H     H_    0.908318 0.666861 0.579223 0.235564
H50   H     H_    0.960398 0.611384 0.508966 0.233652
H51   H     H_    0.030298 0.661987 0.661943 0.191809
H52   H     H_    0.029001 0.407548 0.644321 0.181266

loop_
_geom_bond_atom_site_label_1
_geom_bond_atom_site_label_2
_ccdc_geom_bond_type
O17   V3    S    
C43   C47   A    
O1    C5    A    
C8    C33   S    
C12   C32   A    
C27   C31   A    
O19   V1    S    
O13   V1    S    
O3    C7    A    
O1    V3    S    
C44   C48   A    
O15   V3    S    
C40   C48   A    
C61   C62   A    
C29   C34   A    
O7    C3    A    
C76   H39   S    
C31   C36   A    
C22   C26   A    
C50   H17   S    
C14   C75   S    
C49   H18   S    
O10   V2    S    
C10   C14   A    
C51   C55   A    
C9    C13   A    
C44   H28   S    
O4    C8    A    
C77   C78   S    
C56   C60   A    
H4    C19   S    
O2    V4    S    
C14   C18   A    
C80   H50   S    
O3    V1    S    
C5    C36   S    
C75   H42   S    
C57   C69   A    
C6    C35   S    
C73   H37   S    
C25   C33   A    
C1    O15   A    
C7    C34   S    
C58   C70   A    
C52   C56   A    
C2    O16   A    
C9    H5    S    
O2    C6    A    
C77   H47   S    
C65   H29   S    
C80   H48   S    
C28   C36   A    
O14   V2    S    
C1    C40   S    
C41   C45   A    
C44   C60   A    
C67   H31   S    
C40   C52   A    
C12   C16   A    
C61   C66   A    
C71   H15   S    
C30   C33   A    
O11   C7    A    
C63   C68   A    
C60   C72   A    
O12   C8    A    
C21   H9    S    
C4    C37   S    
O17   V1    S    
H1    C18   S    
C27   C35   A    
C23   H11   S    
C38   C46   A    
C78   H45   S    
H3    C20   S    
C37   C45   A    
C54   C58   A    
O5    V1    S    
C65   C69   A    
C77   H46   S    
C76   H40   S    
O7    V3    S    
O19   V3    S    
O8    V4    S    
C10   H6    S    
O20   V4    S    
C78   H44   S    
C50   C54   A    
C25   C29   A    
O18   V4    S    
C78   H43   S    
C19   C23   A    
C26   C34   A    
C43   H27   S    
C45   H22   S    
C64   C67   A    
C16   C79   S    
C72   H16   S    
C53   C61   A    
C47   H24   S    
C74   H34   S    
C43   C59   A    
C75   H41   S    
C24   H12   S    
C2    C39   S    
C42   C46   A    
C63   C64   A    
C68   H32   S    
C17   C21   A    
O8    C4    A    
C11   C31   A    
C26   C30   A    
O9    C5    A    
H2    C17   S    
C10   C30   A    
C38   C50   A    
C37   C49   A    
C51   H20   S    
C59   C71   A    
C39   C51   A    
O6    V2    S    
O18   V2    S    
C79   H51   S    
C32   C35   A    
C74   H35   S    
C68   C72   A    
C56   C64   A    
C67   C71   A    
C15   C77   S    
O16   V4    S    
O9    V1    S    
C69   H13   S    
C3    O13   A    
C49   C53   A    
C11   H7    S    
O5    C1    A    
C75   C76   S    
C66   H30   S    
C3    C38   S    
O6    C2    A    
C11   C15   A    
O11   V3    S    
O12   V4    S    
C62   C65   A    
C76   H38   S    
C18   C22   A    
O10   C6    A    
C52   H19   S    
O20   V2    S    
C74   H33   S    
C73   C74   S    
C16   C20   A    
C13   C73   S    
C39   C47   A    
C22   H10   S    
C42   C58   A    
C48   H23   S    
C21   C25   A    
C41   C57   A    
C66   C70   A    
C23   C27   A    
C80   H49   S    
C53   C57   A    
C42   H26   S    
O4    V2    S    
C41   H25   S    
C55   C59   A    
C73   H36   S    
C28   C32   A    
C20   C24   A    
C70   H14   S    
C12   H8    S    
C4    O14   A    
C13   C17   A    
C79   C80   S    
C79   H52   S    
C46   H21   S    
C55   C63   A    
C15   C19   A    
C54   C62   A    
C9    C29   A    
C24   C28   A    
