data_mof_unit_3498.cif
_audit_creation_date              2012-12-10T18:48:43-0500
_audit_creation_method            fapswitch 2.2
_symmetry_space_group_name_H-M    P1
_symmetry_Int_Tables_number       1
_space_group_crystal_system       triclinic
_cell_length_a                    15.453939
_cell_length_b                    15.035209
_cell_length_c                    9.80131
_cell_angle_alpha                 89.999906
_cell_angle_beta                  89.999891
_cell_angle_gamma                 89.999962
_cell_volume                      2277.36576952

loop_
_atom_site_label
_atom_site_type_symbol
_atom_type_description
_atom_site_fract_x
_atom_site_fract_y
_atom_site_fract_z
_atom_type_partial_charge
C1    C     C_R   0.125511 0.385701 0.500000 0.979328
C2    C     C_R   0.874489 0.614299 0.500000 0.979328
C3    C     C_R   0.874489 0.385700 0.500000 0.979328
C4    C     C_R   0.125511 0.614299 0.500000 0.979328
C5    C     C_R   0.625511 0.885700 0.500000 0.979328
C6    C     C_R   0.374489 0.114299 0.500000 0.979328
C7    C     C_R   0.374489 0.885700 0.500000 0.979328
C8    C     C_R   0.625511 0.114299 0.500000 0.979328
C9    C     C_R   0.000000 0.578506 0.072364 0.038212
C10   C     C_R   0.000000 0.421494 0.927636 0.038212
C11   C     C_R   1.000000 0.421494 0.072364 0.038212
C12   C     C_R   0.000000 0.578506 0.927636 0.038213
C13   C     C_R   0.500000 0.078506 0.072364 0.038212
C14   C     C_R   0.500000 0.921494 0.927636 0.038212
C15   C     C_R   0.500000 0.921494 0.072364 0.038212
C16   C     C_R   0.500000 0.078506 0.927636 0.038213
C17   C     C_R   0.773231 0.289128 0.374873 0.316828
C18   C     C_R   0.226769 0.710872 0.625127 0.316828
C19   C     C_R   0.226767 0.710874 0.374872 0.316829
C20   C     C_R   0.773233 0.289126 0.625128 0.316829
C21   C     C_R   0.226768 0.289127 0.625127 0.316828
C22   C     C_R   0.773232 0.710873 0.374873 0.316828
C23   C     C_R   0.773232 0.710873 0.625127 0.316828
C24   C     C_R   0.226768 0.289127 0.374872 0.316828
C25   C     C_R   0.273231 0.789128 0.374873 0.316828
C26   C     C_R   0.726769 0.210872 0.625127 0.316828
C27   C     C_R   0.726767 0.210874 0.374872 0.316829
C28   C     C_R   0.273233 0.789126 0.625128 0.316829
C29   C     C_R   0.726768 0.789127 0.625127 0.316828
C30   C     C_R   0.273232 0.210873 0.374873 0.316828
C31   C     C_R   0.273232 0.210873 0.625127 0.316828
C32   C     C_R   0.726768 0.789127 0.374872 0.316828
C33   C     C_R   0.196971 0.676084 0.499999 -0.364789
C34   C     C_R   0.803029 0.323916 0.500000 -0.364789
C35   C     C_R   0.803028 0.676084 0.500000 -0.364788
C36   C     C_R   0.196972 0.323916 0.500000 -0.364788
C37   C     C_R   0.696971 0.176084 0.499999 -0.364789
C38   C     C_R   0.303028 0.823916 0.500000 -0.364789
C39   C     C_R   0.303028 0.176084 0.500000 -0.364788
C40   C     C_R   0.696972 0.823916 0.500000 -0.364788
N1    N     N_R   0.000000 0.500000 0.857200 -0.122528
N2    N     N_R   0.000000 0.500000 0.142800 -0.122528
N3    N     N_R   0.500000 0.000000 0.857200 -0.122528
N4    N     N_R   0.500000 0.000000 0.142800 -0.122528
O1    O     O_R   0.091610 0.408380 0.614620 -0.597797
O2    O     O_R   0.908390 0.591620 0.385380 -0.597797
O3    O     O_R   0.908390 0.591620 0.614620 -0.597797
O4    O     O_R   0.091610 0.408380 0.385380 -0.597797
O5    O     O_R   0.908390 0.408380 0.385380 -0.597797
O6    O     O_R   0.091610 0.591620 0.614620 -0.597797
O7    O     O_R   0.091610 0.591620 0.385380 -0.597797
O8    O     O_R   0.908390 0.408380 0.614620 -0.597797
O9    O     O_R   0.591610 0.908380 0.614620 -0.597797
O10   O     O_R   0.408390 0.091620 0.385380 -0.597797
O11   O     O_R   0.408390 0.091620 0.614620 -0.597797
O12   O     O_R   0.591610 0.908380 0.385380 -0.597797
O13   O     O_R   0.408390 0.908380 0.385380 -0.597797
O14   O     O_R   0.591610 0.091620 0.614620 -0.597797
O15   O     O_R   0.591610 0.091620 0.385380 -0.597797
O16   O     O_R   0.408390 0.908380 0.614620 -0.597797
Zn1   Zn    Zn3+2 0.000000 0.500000 0.653120 1.064110
Zn2   Zn    Zn3+2 0.000000 0.500000 0.346880 1.064110
Zn3   Zn    Zn3+2 0.500000 0.000000 0.653120 1.064110
Zn4   Zn    Zn3+2 0.500000 0.000000 0.346880 1.064110
C41   C     C_1   1.000000 0.661531 0.146242 0.388020
N5    N     N_1   0.000000 0.728468 0.204614 -0.110635
C42   C     C_1   1.000000 0.338469 0.853758 0.388020
N6    N     N_1   1.000000 0.271532 0.795386 -0.110635
C43   C     C_1   1.000000 0.338469 0.146243 0.388019
N7    N     N_1   1.000000 0.271532 0.204615 -0.110636
C44   C     C_1   0.000000 0.661531 0.853757 0.388019
N8    N     N_1   0.000000 0.728468 0.795385 -0.110636
C45   C     C_1   0.500000 0.161531 0.146242 0.388020
N9    N     N_1   0.500000 0.228468 0.204614 -0.110635
C46   C     C_1   0.500000 0.838469 0.853758 0.388020
N10   N     N_1   0.500000 0.771532 0.795386 -0.110635
C47   C     C_1   0.500000 0.838468 0.146243 0.388019
N11   N     N_1   0.500000 0.771532 0.204615 -0.110636
C48   C     C_1   0.500000 0.161531 0.853757 0.388019
N12   N     N_1   0.500000 0.228468 0.795385 -0.110636
Cl1   Cl    Cl    0.784490 0.345859 0.216588 -0.419494
Cl2   Cl    Cl    0.215510 0.654141 0.783412 -0.419494
Cl3   Cl    Cl    0.215508 0.654146 0.216585 -0.419495
Cl4   Cl    Cl    0.784492 0.345854 0.783415 -0.419495
Cl5   Cl    Cl    0.215509 0.345856 0.783412 -0.419494
Cl6   Cl    Cl    0.784490 0.654144 0.216587 -0.419494
Cl7   Cl    Cl    0.784491 0.654144 0.783414 -0.419494
Cl8   Cl    Cl    0.215509 0.345856 0.216586 -0.419494
Cl9   Cl    Cl    0.284490 0.845859 0.216588 -0.419494
Cl10  Cl    Cl    0.715510 0.154141 0.783412 -0.419494
Cl11  Cl    Cl    0.715508 0.154146 0.216585 -0.419495
Cl12  Cl    Cl    0.284492 0.845854 0.783415 -0.419495
Cl13  Cl    Cl    0.715510 0.845856 0.783412 -0.419494
Cl14  Cl    Cl    0.284490 0.154143 0.216587 -0.419494
Cl15  Cl    Cl    0.284491 0.154144 0.783414 -0.419494
Cl16  Cl    Cl    0.715509 0.845856 0.216586 -0.419494

loop_
_geom_bond_atom_site_label_1
_geom_bond_atom_site_label_2
_ccdc_geom_bond_type
C2    C35   S    
C45   N9    T    
C5    O12   A    
N1    Zn1   S    
C6    O11   A    
C3    O5    A    
N3    Zn3   S    
C21   C36   A    
C10   C42   S    
N4    Zn4   S    
C22   C35   A    
C21   C31   A    
O15   Zn4   S    
C24   C36   A    
C22   C32   A    
O2    Zn2   S    
O16   Zn3   S    
C23   C29   A    
C5    O9    A    
C15   N4    A    
O8    Zn1   S    
C8    O15   A    
C11   N2    A    
C8    O14   A    
O11   Zn3   S    
O12   Zn4   S    
C27   Cl11  S    
N2    Zn2   S    
C20   C34   A    
C22   Cl6   S    
C23   Cl7   S    
C10   N1    A    
O7    Zn2   S    
C6    O10   A    
C19   Cl3   S    
C9    C12   A    
C9    C41   S    
C21   Cl5   S    
C4    O7    A    
C42   N6    T    
C17   C27   A    
C18   C28   A    
C19   C33   A    
C26   C37   A    
C3    C34   S    
C47   N11   T    
C2    O2    A    
C4    O6    A    
C46   N10   T    
C12   N1    A    
C25   C38   A    
O4    Zn2   S    
C28   C38   A    
C9    N2    A    
C28   Cl12  S    
C24   Cl8   S    
C16   N3    A    
C32   Cl16  S    
C12   C44   S    
C13   C45   S    
C23   C35   A    
C20   Cl4   S    
C5    C40   S    
C8    C37   S    
C7    O16   A    
O13   Zn4   S    
O14   Zn3   S    
C4    C33   S    
O5    Zn2   S    
C14   C15   A    
O3    Zn1   S    
C3    O8    A    
C11   C43   S    
C1    O4    A    
C2    O3    A    
C26   Cl10  S    
C25   Cl9   S    
C16   C48   S    
C14   C46   S    
C44   N8    T    
C30   Cl14  S    
C29   Cl13  S    
O9    Zn3   S    
C1    O1    A    
C15   C47   S    
C20   C26   A    
C27   C37   A    
C31   Cl15  S    
C29   C40   A    
O1    Zn1   S    
C18   Cl2   S    
C7    C38   S    
C31   C39   A    
C30   C39   A    
C17   Cl1   S    
C32   C40   A    
C43   N7    T    
C19   C25   A    
C18   C33   A    
C24   C30   A    
C10   C11   A    
C48   N12   T    
O10   Zn4   S    
C41   N5    T    
C17   C34   A    
C13   C16   A    
O6    Zn1   S    
C6    C39   S    
C7    O13   A    
C13   N4    A    
C1    C36   S    
C14   N3    A    
