data_mof_unit_4591.cif
_audit_creation_date              2012-10-26T19:02:37-0400
_audit_creation_method            fapswitch 2.2
_symmetry_space_group_name_H-M    P1
_symmetry_Int_Tables_number       1
_space_group_crystal_system       triclinic
_cell_length_a                    17.297081
_cell_length_b                    8.680749
_cell_length_c                    7.435894
_cell_angle_alpha                 102.941436
_cell_angle_beta                  90.170043
_cell_angle_gamma                 92.944732
_cell_volume                      1086.59455884

loop_
_atom_site_label
_atom_site_type_symbol
_atom_type_description
_atom_site_fract_x
_atom_site_fract_y
_atom_site_fract_z
_atom_type_partial_charge
C1    C     C_R   0.497651 0.199723 0.453617 0.550467
C2    C     C_R   0.778376 0.562900 0.619315 -0.143063
C3    C     C_R   0.141783 0.430364 0.390383 -0.157485
C4    C     C_R   0.858218 0.569612 0.609613 -0.157490
C5    C     C_R   0.105614 0.481081 0.560298 0.037827
C6    C     C_R   0.894386 0.518891 0.439698 0.037832
C7    C     C_R   0.150567 0.531809 0.723043 0.271188
C8    C     C_R   0.849432 0.468169 0.276953 0.271186
C9    C     C_R   0.231353 0.534259 0.712829 -0.120040
C10   C     C_R   0.768646 0.465729 0.287169 -0.120047
C11   C     C_2   0.021103 0.483883 0.568687 -0.151591
C12   C     C_R   0.502349 0.800277 0.546383 0.550467
C13   C     C_2   0.978896 0.516079 0.431307 -0.151582
C14   C     C_3   0.112888 0.741510 0.939600 -0.015173
C15   C     C_3   0.069013 0.790150 0.118569 -0.375536
C16   C     C_3   0.887085 0.258462 0.060366 -0.015171
C17   C     C_3   0.930970 0.209816 0.881411 -0.375534
C18   C     C_2   0.496510 0.031855 0.427429 -0.156970
C19   C     C_2   0.503490 0.968145 0.572571 -0.156970
C20   C     C_R   0.351122 0.499199 0.525857 0.547731
C21   C     C_R   0.648878 0.500800 0.474142 0.547731
C22   C     C_R   0.266982 0.490860 0.541088 -0.033580
C23   C     C_R   0.733018 0.509132 0.458910 -0.033577
C24   C     C_R   0.221625 0.437086 0.380683 -0.143060
Cu1   Cu    Cu3+1 0.508700 0.517250 0.683000 0.952564
Cu2   Cu    Cu3+1 0.491300 0.482750 0.317000 0.952564
H1    H     H_    0.247774 0.398893 0.246954 0.147443
H2    H     H_    0.510079 0.039646 0.712477 0.133486
H3    H     H_    0.439179 0.379298 0.958114 0.237810
H4    H     H_    0.560821 0.620702 0.041886 0.237810
H5    H     H_    0.082142 0.785622 0.830573 0.130742
H6    H     H_    0.172378 0.798608 0.960769 0.130897
H7    H     H_    0.098872 0.750467 0.231368 0.158996
H8    H     H_    0.066395 0.920989 0.156675 0.093992
H9    H     H_    0.009048 0.736180 0.101053 0.170361
H10   H     H_    0.827588 0.201404 0.039164 0.130897
H11   H     H_    0.917811 0.214312 0.169391 0.130741
H12   H     H_    0.752228 0.601096 0.753045 0.147441
H13   H     H_    0.990941 0.263760 0.898955 0.170358
H14   H     H_    0.933575 0.078974 0.843289 0.093991
H15   H     H_    0.901126 0.249525 0.768608 0.158990
H16   H     H_    0.734217 0.427001 0.161697 0.135558
H17   H     H_    0.265781 0.572993 0.838301 0.135567
H18   H     H_    0.006382 0.536126 0.307100 0.168942
H19   H     H_    0.993618 0.463837 0.692894 0.168940
H20   H     H_    0.891410 0.615207 0.735664 0.135822
H21   H     H_    0.108592 0.384765 0.264333 0.135826
H22   H     H_    0.489921 0.960354 0.287523 0.133487
N1    N     N_2   0.478180 0.456750 0.041980 -0.259042
N2    N     N_2   0.521820 0.543250 0.958020 -0.259042
O1    O     O_R   0.505650 0.286040 0.618880 -0.503943
O2    O     O_3   0.884401 0.424928 0.107406 -0.574551
O3    O     O_R   0.494350 0.713960 0.381120 -0.503943
O4    O     O_R   0.490960 0.256910 0.309800 -0.499232
O5    O     O_R   0.509040 0.743090 0.690200 -0.499232
O6    O     O_R   0.394600 0.516230 0.672450 -0.510489
O7    O     O_R   0.605400 0.483770 0.327550 -0.510490
O8    O     O_R   0.379910 0.487100 0.363380 -0.503137
O9    O     O_R   0.620090 0.512900 0.636620 -0.503137
O10   O     O_3   0.115598 0.575048 0.892591 -0.574546

loop_
_geom_bond_atom_site_label_1
_geom_bond_atom_site_label_2
_ccdc_geom_bond_type
C2    C4    A    
C1    O4    A    
Cu1   O1    S    
C21   O7    A    
C10   C23   A    
C10   H16   S    
C1    O1    A    
C8    O2    S    
C15   H8    S    
C12   O3    A    
Cu1   O6    S    
C14   H5    S    
C20   O6    A    
C24   H1    S    
N1    N2    D    
H4    N2    S    
C5    C7    A    
C21   O9    A    
H3    N1    S    
C16   H10   S    
C6    C13   S    
C19   H2    S    
Cu2   O8    S    
C1    C18   S    
Cu2   O4    S    
C12   C19   S    
C3    H21   S    
C3    C24   A    
C20   C22   S    
C5    C11   S    
C22   C24   A    
C21   C23   S    
C4    H20   S    
Cu2   O7    S    
C17   H15   S    
C9    C22   A    
C9    H17   S    
C12   O5    A    
C11   H19   S    
C20   O8    A    
Cu2   O3    S    
Cu1   O5    S    
C7    O10   S    
C11   C13   D    
C14   O10   S    
C8    C10   A    
C4    C6    A    
C17   H13   S    
Cu2   N1    S    
C15   H9    S    
C2    C23   A    
C7    C9    A    
C2    H12   S    
C14   C15   S    
C18   C19   D    
C6    C8    A    
Cu1   O9    S    
Cu1   Cu2   S    
Cu1   N2    S    
C15   H7    S    
C13   H18   S    
C16   O2    S    
C16   H11   S    
C14   H6    S    
C16   C17   S    
C3    C5    A    
C17   H14   S    
C18   H22   S    
