data_mof_unit_111.cif
_audit_creation_date              2012-12-10T18:09:30-0500
_audit_creation_method            fapswitch 2.2
_symmetry_space_group_name_H-M    P1
_symmetry_Int_Tables_number       1
_space_group_crystal_system       triclinic
_cell_length_a                    15.241547
_cell_length_b                    15.125808
_cell_length_c                    9.409179
_cell_angle_alpha                 89.962016
_cell_angle_beta                  89.918101
_cell_angle_gamma                 90.000759
_cell_volume                      2169.19614758

loop_
_atom_site_label
_atom_site_type_symbol
_atom_type_description
_atom_site_fract_x
_atom_site_fract_y
_atom_site_fract_z
_atom_type_partial_charge
C1    C     C_R   0.119810 0.379470 0.499932 0.816129
C2    C     C_R   0.120217 0.620117 0.500029 0.817952
C3    C     C_R   0.620196 0.879863 0.500061 0.817923
C4    C     C_R   0.619768 0.120576 0.499974 0.815969
C5    C     C_3   0.091807 0.499543 0.083680 -0.191710
C6    C     C_3   0.091809 0.499453 0.915937 -0.191587
C7    C     C_3   0.591796 0.001523 0.083700 -0.191659
C8    C     C_3   0.591800 0.001438 0.915958 -0.191766
C9    C     C_R   0.880356 0.379567 0.500247 0.801460
C10   C     C_R   0.880657 0.620739 0.500193 0.802629
C11   C     C_R   0.380670 0.879250 0.500239 0.802656
C12   C     C_R   0.380413 0.120495 0.499834 0.801385
C13   C     C_3   0.789661 0.281402 0.654918 -0.395469
C14   C     C_3   0.840636 0.229997 0.412915 -0.391232
C15   C     C_3   0.794805 0.723689 0.653852 -0.394235
C16   C     C_3   0.838652 0.767894 0.404538 -0.385108
C17   C     C_3   0.294920 0.776075 0.653882 -0.394295
C18   C     C_3   0.338637 0.732219 0.404452 -0.385069
C19   C     C_3   0.340335 0.269890 0.587859 -0.391838
C20   C     C_3   0.290407 0.219090 0.345179 -0.394578
C21   C     C_3   0.225448 0.702969 0.653166 -0.441071
C22   C     C_3   0.267815 0.659493 0.407589 -0.464278
C23   C     C_3   0.269503 0.342581 0.584203 -0.462186
C24   C     C_3   0.220677 0.291895 0.345552 -0.441056
C25   C     C_3   0.719901 0.208635 0.654442 -0.440224
C26   C     C_3   0.769806 0.157294 0.416484 -0.462548
C27   C     C_3   0.725326 0.796782 0.653197 -0.441174
C28   C     C_3   0.767834 0.840621 0.407751 -0.463628
C29   C     C_3   0.726263 0.350132 0.433616 -0.459484
C30   C     C_3   0.724929 0.648788 0.443064 -0.461297
C31   C     C_3   0.224923 0.851262 0.443315 -0.462014
C32   C     C_3   0.226074 0.149815 0.565651 -0.460453
C33   C     C_3   0.810726 0.311467 0.500604 0.134768
C34   C     C_3   0.811270 0.689099 0.500557 0.134217
C35   C     C_3   0.311296 0.810878 0.500636 0.134693
C36   C     C_3   0.310812 0.188634 0.499491 0.135291
C37   C     C_3   0.188609 0.689872 0.499975 0.178971
C38   C     C_3   0.188058 0.309565 0.500171 0.178523
C39   C     C_3   0.687991 0.190520 0.499666 0.178390
C40   C     C_3   0.688579 0.810102 0.499996 0.178596
C41   C     C_3   0.150368 0.780162 0.441818 0.373271
C42   C     C_3   0.151688 0.221050 0.568151 0.376818
C43   C     C_3   0.651928 0.278845 0.430813 0.376631
C44   C     C_3   0.650374 0.719889 0.441607 0.373221
C45   C     C_3   0.956650 0.579214 0.083716 -0.188581
C46   C     C_3   0.956676 0.579220 0.916349 -0.190392
C47   C     C_3   0.955809 0.421274 0.083848 -0.190151
C48   C     C_3   0.955766 0.421306 0.916485 -0.188303
C49   C     C_3   0.454894 0.078169 0.083684 -0.189105
C50   C     C_3   0.454984 0.078231 0.916327 -0.188901
C51   C     C_3   0.457565 0.920261 0.083856 -0.190229
C52   C     C_3   0.457482 0.920321 0.916484 -0.189045
Cu1   Cu    Cu3+1 0.000100 0.500000 0.642410 0.900292
Cu2   Cu    Cu3+1 0.000100 0.500000 0.357590 0.899187
Cu3   Cu    Cu3+1 0.500100 0.000000 0.642410 0.890340
Cu4   Cu    Cu3+1 0.500100 0.000000 0.357590 0.909127
H1    H     H_    0.765322 0.338395 0.718612 0.156819
H2    H     H_    0.853545 0.249390 0.300673 0.162219
H3    H     H_    0.772029 0.668753 0.723566 0.157615
H4    H     H_    0.848192 0.745246 0.293041 0.163775
H5    H     H_    0.272171 0.830908 0.723711 0.157903
H6    H     H_    0.348141 0.755024 0.292982 0.163688
H7    H     H_    0.352736 0.250236 0.700075 0.162157
H8    H     H_    0.266296 0.162263 0.280986 0.157018
H9    H     H_    0.850088 0.256039 0.707437 0.173690
H10   H     H_    0.902692 0.203288 0.457163 0.184863
H11   H     H_    0.856815 0.750067 0.699761 0.171690
H12   H     H_    0.902111 0.795687 0.441557 0.182085
H13   H     H_    0.356959 0.749644 0.699665 0.171760
H14   H     H_    0.402104 0.704364 0.441366 0.182032
H15   H     H_    0.402594 0.296707 0.544234 0.184809
H16   H     H_    0.351074 0.244529 0.293206 0.173589
H17   H     H_    0.255741 0.640303 0.691419 0.161445
H18   H     H_    0.296467 0.597815 0.452606 0.150402
H19   H     H_    0.296931 0.402767 0.532323 0.150330
H20   H     H_    0.249666 0.353358 0.300102 0.162439
H21   H     H_    0.748659 0.147297 0.700570 0.162228
H22   H     H_    0.797001 0.097251 0.468979 0.150340
H23   H     H_    0.755596 0.859390 0.691606 0.160903
H24   H     H_    0.796476 0.902225 0.452911 0.150635
H25   H     H_    0.705456 0.409529 0.494859 0.129648
H26   H     H_    0.740800 0.374414 0.324358 0.147219
H27   H     H_    0.706130 0.590960 0.509776 0.129913
H28   H     H_    0.736241 0.621827 0.334487 0.146271
H29   H     H_    0.206151 0.908989 0.510156 0.130450
H30   H     H_    0.236185 0.878374 0.334766 0.145676
H31   H     H_    0.240130 0.125376 0.674918 0.146738
H32   H     H_    0.205593 0.090507 0.503987 0.129919
H33   H     H_    0.988937 0.640344 0.123513 0.154484
H34   H     H_    0.988970 0.640347 0.876276 0.137694
H35   H     H_    0.987503 0.359803 0.123674 0.136660
H36   H     H_    0.987338 0.359811 0.876505 0.155499
H37   H     H_    0.485759 0.140022 0.123546 0.155033
H38   H     H_    0.486077 0.140033 0.876428 0.136571
H39   H     H_    0.490587 0.859510 0.123686 0.154985
H40   H     H_    0.490329 0.859531 0.876405 0.137640
H41   H     H_    0.887430 0.581541 0.121054 0.132837
H42   H     H_    0.887474 0.581510 0.879370 0.134065
H43   H     H_    0.886583 0.419656 0.121264 0.134736
H44   H     H_    0.886538 0.419829 0.879483 0.131991
H45   H     H_    0.385640 0.078831 0.120944 0.131946
H46   H     H_    0.385774 0.079150 0.879083 0.134488
H47   H     H_    0.388392 0.917070 0.121230 0.132958
H48   H     H_    0.388285 0.917361 0.879614 0.134219
H49   H     H_    0.128736 0.558215 0.122014 0.140259
H50   H     H_    0.128852 0.558012 0.877201 0.134290
H51   H     H_    0.128186 0.440555 0.122208 0.134831
H52   H     H_    0.128095 0.440355 0.877527 0.142808
H53   H     H_    0.627435 0.061024 0.121926 0.142518
H54   H     H_    0.627544 0.060843 0.877382 0.136086
H55   H     H_    0.629448 0.943376 0.122365 0.138662
H56   H     H_    0.629388 0.943210 0.877413 0.135383
N1    N     N_3   0.001260 0.500000 0.143650 -0.109060
N2    N     N_3   0.001260 0.500000 0.856350 -0.109138
N3    N     N_3   0.501260 1.000000 0.143650 -0.110185
N4    N     N_3   0.501260 1.000000 0.856350 -0.107993
O1    O     O_R   0.091250 0.408820 0.620260 -0.573673
O2    O     O_R   0.091250 0.408820 0.379740 -0.606793
O3    O     O_R   0.091250 0.591180 0.620260 -0.605398
O4    O     O_R   0.091250 0.591180 0.379740 -0.575679
O5    O     O_R   0.591250 0.908820 0.620260 -0.603900
O6    O     O_R   0.591250 0.908820 0.379740 -0.577062
O7    O     O_R   0.591250 0.091180 0.620260 -0.605908
O8    O     O_R   0.591250 0.091180 0.379740 -0.574561
O9    O     O_R   0.908940 0.408800 0.620260 -0.595916
O10   O     O_R   0.908940 0.408800 0.379740 -0.599551
O11   O     O_R   0.908940 0.591200 0.620260 -0.599934
O12   O     O_R   0.908940 0.591200 0.379740 -0.595162
O13   O     O_R   0.408940 0.908800 0.620260 -0.598891
O14   O     O_R   0.408940 0.908800 0.379740 -0.596163
O15   O     O_R   0.408940 0.091200 0.620260 -0.599041
O16   O     O_R   0.408940 0.091200 0.379740 -0.596525
H57   H     H_    0.172866 0.719083 0.730881 0.169168
H58   H     H_    0.247594 0.642722 0.297481 0.166171
H59   H     H_    0.252115 0.362771 0.694188 0.165437
H60   H     H_    0.165984 0.273368 0.273489 0.168699
H61   H     H_    0.664867 0.227377 0.725931 0.168588
H62   H     H_    0.752920 0.136799 0.306516 0.165675
H63   H     H_    0.672699 0.780550 0.730803 0.169249
H64   H     H_    0.747664 0.857573 0.297654 0.166528
N5    N     N_3   0.076526 0.809129 0.532055 -0.620318
H65   H     H_    0.098971 0.828961 0.631905 0.195485
H66   H     H_    0.047966 0.865604 0.487568 0.193840
N6    N     N_3   0.117215 0.768428 0.295708 -0.591388
H67   H     H_    0.086272 0.826548 0.262255 0.192648
H68   H     H_    0.169094 0.758561 0.224771 0.192632
N7    N     N_3   0.123023 0.236902 0.715905 -0.589243
H69   H     H_    0.176984 0.248591 0.781623 0.192024
H70   H     H_    0.093142 0.179848 0.756117 0.191676
N8    N     N_3   0.075291 0.189689 0.486500 -0.624963
H71   H     H_    0.047760 0.134907 0.537805 0.195400
H72   H     H_    0.094686 0.166730 0.386601 0.194687
N9    N     N_3   0.575064 0.310331 0.511531 -0.625127
H73   H     H_    0.593894 0.333536 0.611477 0.194392
H74   H     H_    0.547751 0.364961 0.459630 0.195557
N10   N     N_3   0.624084 0.262631 0.282878 -0.589097
H75   H     H_    0.594345 0.319556 0.242062 0.191719
H76   H     H_    0.678415 0.250886 0.217738 0.191878
N11   N     N_3   0.576485 0.690778 0.531682 -0.620283
H77   H     H_    0.598876 0.670804 0.631533 0.195499
H78   H     H_    0.547958 0.634363 0.487056 0.193809
N12   N     N_3   0.617300 0.731837 0.295471 -0.591549
H79   H     H_    0.586390 0.673760 0.261865 0.192388
H80   H     H_    0.669216 0.741826 0.224628 0.192666

loop_
_geom_bond_atom_site_label_1
_geom_bond_atom_site_label_2
_ccdc_geom_bond_type
C12   O16   A    
C18   H14   S    
Cu3   Cu4   S    
Cu3   O5    S    
C17   H13   S    
C31   H29   S    
C12   O15   A    
Cu2   O4    S    
C19   H15   S    
N7    H69   S    
C28   H64   S    
C13   C25   S    
C14   C33   S    
C7    C8    S    
C5    H49   S    
Cu1   Cu2   S    
C29   H25   S    
Cu2   O10   S    
C26   H22   S    
C22   H58   S    
C37   C41   S    
C25   H21   S    
C32   C36   S    
N10   H75   S    
N7    H70   S    
C38   C42   S    
C27   H23   S    
C19   C36   S    
N5    H66   S    
C49   H45   S    
C5    C6    S    
Cu1   O1    S    
C26   C39   S    
C13   H1    S    
Cu3   N4    S    
C28   C40   S    
C51   H47   S    
C32   H32   S    
Cu2   N1    S    
C21   H17   S    
C47   H43   S    
C4    O8    A    
C51   N3    S    
C16   H4    S    
C7    N3    S    
C30   H27   S    
C6    N2    S    
Cu1   O11   S    
C16   C34   S    
C20   C24   S    
C29   C33   S    
C19   H7    S    
Cu3   O13   S    
C24   C38   S    
N11   H78   S    
C16   H12   S    
C12   C36   S    
C45   H33   S    
C18   C35   S    
C15   C34   S    
C16   C28   S    
C3    O6    A    
C17   H5    S    
C24   H60   S    
C46   H42   S    
C31   H30   S    
C29   C43   S    
C9    C33   S    
C30   C44   S    
C44   N12   S    
C10   O12   A    
C42   N7    S    
C11   O13   A    
C21   H57   S    
C47   H35   S    
N12   H80   S    
C52   N4    S    
C6    H50   S    
C14   H2    S    
Cu3   O7    S    
C30   C34   S    
C8    H56   S    
C51   C52   S    
C47   C48   S    
C10   O11   A    
C48   H44   S    
C41   N6    S    
N6    H68   S    
C2    O4    A    
C50   H38   S    
C13   H9    S    
C45   C46   S    
C22   C37   S    
Cu2   O12   S    
C9    O9    A    
C25   H61   S    
C7    H53   S    
C4    O7    A    
Cu4   O6    S    
C20   H8    S    
C19   C23   S    
C13   C33   S    
C8    H54   S    
C42   N8    S    
C15   C27   S    
N11   H77   S    
C4    C39   S    
C27   C40   S    
C15   H11   S    
C14   H10   S    
C10   C34   S    
C1    O1    A    
C14   C26   S    
Cu4   O16   S    
Cu1   O9    S    
C1    C38   S    
C49   N3    S    
C3    C40   S    
C50   H46   S    
Cu3   O15   S    
Cu2   O2    S    
N8    H72   S    
N9    H74   S    
C22   H18   S    
C43   N10   S    
C11   O14   A    
Cu4   O8    S    
Cu1   N2    S    
C48   N2    S    
N12   H79   S    
C5    H51   S    
C47   N1    S    
C52   H48   S    
C6    H52   S    
C31   C41   S    
C5    N1    S    
C18   C22   S    
C15   H3    S    
C24   H20   S    
C46   N2    S    
C23   H19   S    
N6    H67   S    
C26   H62   S    
C39   C43   S    
C2    O3    A    
Cu1   O3    S    
C46   H34   S    
C23   C38   S    
C41   N5    S    
C9    O10   A    
C23   H59   S    
N10   H76   S    
C29   H26   S    
C45   H41   S    
N5    H65   S    
C25   C39   S    
C32   H31   S    
C2    C37   S    
C31   C35   S    
C11   C35   S    
Cu4   N3    S    
C7    H55   S    
C52   H40   S    
C50   N4    S    
C1    O2    A    
C30   H28   S    
C28   H24   S    
C27   H63   S    
C8    N4    S    
C20   C36   S    
C45   N1    S    
C40   C44   S    
C21   C37   S    
C49   C50   S    
C48   H36   S    
C44   N11   S    
C32   C42   S    
N8    H71   S    
C20   H16   S    
C18   H6    S    
C17   C35   S    
C49   H37   S    
N9    H73   S    
C43   N9    S    
Cu4   O14   S    
C3    O5    A    
C51   H39   S    
C17   C21   S    
