data_mof_unit_4160.cif
_audit_creation_date              2012-12-10T16:58:29-0500
_audit_creation_method            fapswitch 2.2
_symmetry_space_group_name_H-M    P1
_symmetry_Int_Tables_number       1
_space_group_crystal_system       triclinic
_cell_length_a                    7.742084
_cell_length_b                    8.567154
_cell_length_c                    23.280445
_cell_angle_alpha                 90.924731
_cell_angle_beta                  85.966907
_cell_angle_gamma                 93.730666
_cell_volume                      1536.94501608

loop_
_atom_site_label
_atom_site_type_symbol
_atom_type_description
_atom_site_fract_x
_atom_site_fract_y
_atom_site_fract_z
_atom_type_partial_charge
C1    C     C_R   0.545879 0.794825 0.498091 0.993537
C2    C     C_R   0.454037 0.205117 0.501246 0.964444
C3    C     C_R   0.484960 0.401912 0.765587 -0.075549
C4    C     C_R   0.372034 0.642748 0.248261 -0.100317
C5    C     C_R   0.487268 0.385501 0.706107 -0.302600
C6    C     C_R   0.375518 0.618112 0.306834 -0.325657
C7    C     C_R   0.510589 0.518299 0.671715 -0.125042
C8    C     C_R   0.493763 0.518495 0.327350 -0.140234
C9    C     C_R   0.534843 0.668246 0.696384 0.430407
C10   C     C_R   0.610272 0.443191 0.288674 0.428309
C11   C     C_R   0.527874 0.684024 0.756095 -0.175429
C12   C     C_R   0.599920 0.463417 0.229606 -0.207820
C13   C     C_R   0.503447 0.551321 0.790569 0.243706
C14   C     C_R   0.483748 0.565091 0.209565 0.253420
C15   C     C_2   0.569938 0.958193 0.496132 -0.373206
C16   C     C_2   0.429714 0.041605 0.501693 -0.364882
C17   C     C_R   0.502577 0.501260 0.610339 0.925017
C18   C     C_R   0.497710 0.500979 0.389296 0.918976
C19   C     C_R   0.329182 0.539435 0.123219 0.523880
C20   C     C_R   0.640421 0.624124 0.877553 0.516133
C21   C     C_R   0.624102 0.643912 0.118138 0.512630
C22   C     C_R   0.342462 0.528256 0.882601 0.517271
C23   C     C_R   0.628366 0.648280 0.058137 -0.018668
C24   C     C_R   0.333333 0.537418 0.942668 -0.022569
C25   C     C_R   0.478561 0.596002 0.030625 -0.021099
C26   C     C_R   0.482499 0.591554 0.970199 -0.018643
C27   C     C_R   0.326138 0.544528 0.063364 -0.013062
C28   C     C_R   0.636776 0.637923 0.937466 -0.018076
C29   C     C_R   0.779666 0.699327 0.025149 -0.177118
C30   C     C_R   0.180300 0.491333 0.975672 -0.178626
C31   C     C_R   0.784048 0.693619 0.965287 -0.166654
C32   C     C_R   0.176850 0.494468 0.035542 -0.164876
H1    H     H_    0.896077 0.740713 0.045413 0.196935
H2    H     H_    0.063856 0.450073 0.955402 0.198315
H3    H     H_    0.903659 0.730895 0.940973 0.200318
H4    H     H_    0.057812 0.455540 0.059855 0.198045
H5    H     H_    0.466434 0.299183 0.792374 0.157225
H6    H     H_    0.282001 0.721421 0.232856 0.170195
H7    H     H_    0.468296 0.270154 0.686926 0.167509
H8    H     H_    0.287529 0.679003 0.336244 0.183547
H9    H     H_    0.540438 0.799382 0.775700 0.162611
H10   H     H_    0.681291 0.399357 0.199056 0.164429
H11   H     H_    0.702317 0.009368 0.490738 0.176616
H12   H     H_    0.297334 0.990441 0.507058 0.178901
H13   H     H_    0.013991 0.381752 0.457242 0.189180
H14   H     H_    0.986209 0.618081 0.542929 0.185253
N1    N     N_R   0.477596 0.586281 0.149109 -0.345408
N2    N     N_R   0.495133 0.568711 0.851634 -0.350218
N3    N     N_2   0.950330 0.457950 0.484560 -0.175692
N4    N     N_2   0.049670 0.542050 0.515440 -0.173044
O1    O     O_R   0.389250 0.738570 0.503790 -0.609480
O2    O     O_R   0.610750 0.261430 0.496210 -0.610689
O3    O     O_R   0.678390 0.711620 0.493890 -0.642957
O4    O     O_R   0.321610 0.288380 0.506110 -0.633026
O5    O     O_R   0.355400 0.513520 0.588790 -0.594623
O6    O     O_R   0.644600 0.486480 0.411210 -0.588517
O7    O     O_R   0.644550 0.486570 0.578900 -0.638117
O8    O     O_R   0.355450 0.513430 0.421100 -0.640951
O9    O     O_2   0.186833 0.484060 0.155216 -0.571392
O10   O     O_2   0.788397 0.663164 0.845387 -0.537424
O11   O     O_2   0.765611 0.695021 0.145455 -0.553920
O12   O     O_2   0.200443 0.479104 0.855211 -0.528397
Zn1   Zn    Zn3+2 0.306930 0.518000 0.506610 0.954251
Zn2   Zn    Zn3+2 0.693070 0.482000 0.493390 0.949378
O13   O     O_3   0.552037 0.800618 0.662752 -0.620785
C33   C     C_3   0.730295 0.845942 0.652389 0.080122
H15   H     H_    0.783307 0.782299 0.613785 0.156248
H16   H     H_    0.809208 0.822927 0.689362 0.158549
C34   C     C_3   0.751109 0.020762 0.641000 -0.794091
H17   H     H_    0.711329 0.086592 0.680686 0.252235
H18   H     H_    0.888921 0.055375 0.628088 0.216535
H19   H     H_    0.669486 0.051429 0.606095 0.260462
O14   O     O_3   0.718985 0.336719 0.308348 -0.609005
C35   C     C_3   0.893228 0.396121 0.299193 0.135576
H20   H     H_    0.915474 0.506781 0.324161 0.148922
H21   H     H_    0.929710 0.418014 0.252785 0.184484
C36   C     C_3   0.011920 0.276681 0.319480 -0.765245
H22   H     H_    0.997458 0.167192 0.293586 0.259656
H23   H     H_    0.149062 0.323689 0.314299 0.219457
H24   H     H_    0.978202 0.249594 0.365512 0.240421

loop_
_geom_bond_atom_site_label_1
_geom_bond_atom_site_label_2
_ccdc_geom_bond_type
C33   H16   S    
O14   C35   S    
C22   N2    A    
C36   H22   S    
C35   H21   S    
C23   C29   A    
C24   C26   A    
C10   O14   S    
C19   N1    A    
C33   C34   S    
O4    Zn1   S    
C15   C16   D    
C29   H1    S    
C34   H18   S    
C1    O3    A    
C12   H10   S    
C18   O8    A    
C7    C17   S    
C35   C36   S    
O5    Zn1   S    
O6    Zn2   S    
C1    C15   S    
C20   O10   S    
C2    C16   S    
C16   H12   S    
C21   O11   S    
C3    C13   A    
C18   O6    A    
C33   H15   S    
N3    Zn2   S    
N4    Zn1   S    
C10   C12   A    
C24   C30   A    
C36   H23   S    
C35   H20   S    
C30   H2    S    
C6    H8    S    
O1    Zn1   S    
C4    C6    A    
O2    Zn2   S    
C5    C7    A    
C6    C8    A    
C20   C28   A    
C19   O9    S    
C25   C26   A    
C8    C18   S    
C34   H19   S    
C22   O12   S    
C1    O1    A    
H13   N3    S    
C9    C11   A    
C20   N2    A    
C2    O2    A    
C4    H6    S    
N3    N4    D    
C21   C23   A    
C2    O4    A    
C31   H3    S    
C32   H4    S    
C19   C27   A    
O7    Zn2   S    
C36   H24   S    
O8    Zn1   S    
C7    C9    A    
C17   O5    A    
C27   C32   A    
C28   C31   A    
C12   C14   A    
C3    C5    A    
C13   N2    S    
C14   N1    S    
C25   C27   A    
H14   N4    S    
C26   C28   A    
C5    H7    S    
C15   H11   S    
C29   C31   A    
C30   C32   A    
C11   C13   A    
O3    Zn2   S    
C11   H9    S    
C22   C24   A    
C23   C25   A    
C4    C14   A    
C34   H17   S    
C9    O13   S    
C3    H5    S    
C8    C10   A    
O13   C33   S    
C17   O7    A    
C21   N1    A    
