data_mof_unit_757.cif
_audit_creation_date              2012-12-10T17:33:44-0500
_audit_creation_method            fapswitch 2.2
_symmetry_space_group_name_H-M    P1
_symmetry_Int_Tables_number       1
_space_group_crystal_system       triclinic
_cell_length_a                    11.695255
_cell_length_b                    12.407759
_cell_length_c                    13.18894
_cell_angle_alpha                 116.596813
_cell_angle_beta                  76.64887
_cell_angle_gamma                 100.916767
_cell_volume                      1656.93778582

loop_
_atom_site_label
_atom_site_type_symbol
_atom_type_description
_atom_site_fract_x
_atom_site_fract_y
_atom_site_fract_z
_atom_type_partial_charge
C1    C     C_R   0.516807 0.855432 0.286515 0.768564
C2    C     C_R   0.488476 0.226425 0.837916 -0.174499
C3    C     C_R   0.653193 0.809964 0.104472 -0.184611
C4    C     C_R   0.715797 0.723535 0.010074 -0.140696
C5    C     C_R   0.674542 0.601535 0.973272 -0.201514
C6    C     C_R   0.561769 0.563159 0.020652 0.105467
C7    C     C_R   0.500117 0.652400 0.119973 0.094597
C8    C     C_R   0.511110 0.439261 0.979491 0.010111
C9    C     C_R   0.413384 0.408272 0.052027 0.069248
C10   C     C_R   0.354288 0.497501 0.147860 -0.198974
C11   C     C_R   0.392344 0.617958 0.176454 -0.177006
C12   C     C_R   0.715714 0.999287 0.499139 0.799934
C13   C     C_R   0.547394 0.345318 0.868755 0.231343
C14   C     C_R   0.415198 0.195142 0.924330 -0.071275
C15   C     C_R   0.550135 0.774212 0.164983 -0.099275
C16   C     C_R   0.686809 0.338917 0.319948 -0.278711
C17   C     C_R   0.326923 0.746180 0.630789 0.159361
C18   C     C_R   0.278135 0.634666 0.631447 -0.179309
C19   C     C_R   0.339563 0.534550 0.570758 -0.164148
C20   C     C_R   0.456068 0.544237 0.515919 0.023122
C21   C     C_R   0.497257 0.652663 0.501102 0.218702
C22   C     C_R   0.527018 0.444619 0.465713 -0.069718
C23   C     C_R   0.490259 0.144453 0.713863 0.804103
C24   C     C_R   0.624153 0.442355 0.378253 0.070400
C25   C     C_R   0.657904 0.543619 0.351625 0.205319
C26   C     C_R   0.597598 0.648388 0.417060 -0.202637
C27   C     C_R   0.505970 0.347301 0.500286 0.144261
C28   C     C_R   0.654489 0.241063 0.349145 0.067179
C29   C     C_R   0.284349 0.000299 0.500264 0.806932
C30   C     C_1   0.837467 0.999053 0.499184 -0.190033
C31   C     C_1   0.940039 0.999293 0.499376 0.005560
C32   C     C_1   0.059989 0.999849 0.499698 0.014512
C33   C     C_1   0.162583 0.000260 0.499982 -0.168226
C34   C     C_R   0.373337 0.287741 0.028266 -0.172262
Cu1   Cu    Cu3+1 0.526510 0.098270 0.475420 0.945582
Cu2   Cu    Cu3+1 0.473490 0.901730 0.524580 0.913893
H1    H     H_    0.761130 0.332565 0.251855 0.157620
H2    H     H_    0.292527 0.448883 0.565167 0.126848
H3    H     H_    0.190373 0.623485 0.677400 0.187635
H4    H     H_    0.626265 0.722629 0.395183 0.215576
H5    H     H_    0.275693 0.474048 0.199227 0.148669
H6    H     H_    0.307999 0.266037 0.091350 0.184079
H7    H     H_    0.692760 0.902865 0.137751 0.150232
H8    H     H_    0.736417 0.540002 0.912396 0.159251
H9    H     H_    0.801168 0.750380 0.970221 0.165755
H10   H     H_    0.338551 0.683978 0.246671 0.161112
H11   H     H_    0.701944 0.161353 0.302202 0.129245
N1    N     N_R   0.566700 0.246290 0.438210 -0.212720
N2    N     N_R   0.434010 0.754320 0.561170 -0.241057
O1    O     O_R   0.533340 0.972510 0.318140 -0.574904
O2    O     O_R   0.488570 0.806530 0.359650 -0.596599
O3    O     O_R   0.685190 0.083000 0.479260 -0.568506
O4    O     O_R   0.640410 0.917020 0.520770 -0.589220
O5    O     O_R   0.511430 0.193470 0.640350 -0.540901
O6    O     O_R   0.466660 0.027490 0.681860 -0.640525
O7    O     O_R   0.359590 0.082980 0.479230 -0.597422
O8    O     O_R   0.314810 0.917000 0.520740 -0.598631
C35   C     C_2   0.381457 0.068313 0.910007 0.365916
H12   H     H_    0.437830 0.997806 0.851669 0.095616
O9    O     O_2   0.292030 0.041572 0.966681 -0.524959
N3    N     N_2   0.751755 0.537603 0.257987 -0.427183
H13   H     H_    0.739323 0.465977 0.180375 0.251425
C36   C     C_3   0.809696 0.647339 0.248192 -0.677389
H14   H     H_    0.890008 0.625664 0.181373 0.234998
H15   H     H_    0.837318 0.714197 0.330948 0.239991
H16   H     H_    0.750125 0.686486 0.221860 0.223097
C37   C     C_2   0.430602 0.360555 0.611016 0.399997
H17   H     H_    0.360757 0.291349 0.615719 0.090758
O10   O     O_2   0.445271 0.451150 0.699053 -0.560227
C38   C     C_2   0.253490 0.849225 0.700916 0.406269
H18   H     H_    0.283453 0.939722 0.711211 0.128388
O11   O     O_2   0.154315 0.834035 0.751128 -0.551655
N4    N     N_2   0.631778 0.369100 0.782176 -0.402373
H19   H     H_    0.632229 0.448232 0.774578 0.291194
C39   C     C_3   0.742438 0.315722 0.747842 -0.655745
H20   H     H_    0.798490 0.337336 0.677715 0.233370
H21   H     H_    0.726566 0.215851 0.715812 0.223431
H22   H     H_    0.790545 0.350868 0.821541 0.204248

loop_
_geom_bond_atom_site_label_1
_geom_bond_atom_site_label_2
_ccdc_geom_bond_type
C27   N1    A    
C16   C28   A    
C21   C26   A    
C36   H15   S    
C28   H11   S    
C8    C13   A    
N4    H19   S    
C19   C20   A    
C34   H6    S    
C18   H3    S    
C21   N2    A    
C7    C11   A    
C3    H7    S    
C5    C6    A    
C35   O9    D    
C29   C33   S    
C18   C19   A    
N3    C36   S    
C2    C13   A    
Cu2   O4    S    
Cu1   Cu2   S    
C8    C9    A    
C38   H18   S    
C1    C15   S    
C9    C10   A    
C12   O4    A    
C16   H1    S    
C7    C15   A    
C36   H16   S    
C17   C38   S    
C16   C24   A    
Cu1   O5    S    
N4    C39   S    
Cu1   N1    S    
C12   O3    A    
C4    H9    S    
C14   C35   S    
C37   H17   S    
C24   C25   A    
Cu2   O8    S    
C17   N2    A    
C6    C8    A    
C25   C26   A    
C37   O10   D    
C39   H20   S    
C19   H2    S    
C39   H21   S    
C31   C32   S    
Cu1   O1    S    
C17   C18   A    
C25   N3    S    
C1    O2    A    
Cu2   O2    S    
C5    H8    S    
C29   O8    A    
C22   C27   A    
C9    C34   A    
C22   C24   A    
C3    C4    A    
Cu1   O3    S    
C3    C15   A    
C23   O5    A    
C1    O1    A    
C28   N1    A    
C12   C30   S    
Cu1   O7    S    
C13   N4    S    
C20   C22   A    
C4    C5    A    
C14   C34   A    
C23   O6    A    
C6    C7    A    
C29   O7    A    
C32   C33   T    
C35   H12   S    
Cu2   O6    S    
C26   H4    S    
C30   C31   T    
N3    H13   S    
C2    C14   A    
C39   H22   S    
C27   C37   S    
C10   C11   A    
C36   H14   S    
C20   C21   A    
C2    C23   S    
C11   H10   S    
C38   O11   D    
Cu2   N2    S    
C10   H5    S    
