data_mof_unit_2225.cif
_audit_creation_date              2012-12-10T20:02:28-0500
_audit_creation_method            fapswitch 2.2
_symmetry_space_group_name_H-M    P1
_symmetry_Int_Tables_number       1
_space_group_crystal_system       triclinic
_cell_length_a                    10.679044
_cell_length_b                    14.908408
_cell_length_c                    14.157239
_cell_angle_alpha                 90.469205
_cell_angle_beta                  89.837693
_cell_angle_gamma                 89.777893
_cell_volume                      2253.83750572

loop_
_atom_site_label
_atom_site_type_symbol
_atom_type_description
_atom_site_fract_x
_atom_site_fract_y
_atom_site_fract_z
_atom_type_partial_charge
C1    C     C_R   0.500883 0.327691 0.499636 0.890200
C2    C     C_R   0.517824 0.816289 0.417151 -0.244775
C3    C     C_R   0.515161 0.232207 0.499225 -0.097222
C4    C     C_R   0.522535 0.768504 0.501535 -0.103788
C5    C     C_R   0.596442 0.191877 0.433939 -0.285889
C6    C     C_R   0.551337 0.812027 0.586739 -0.272591
C7    C     C_R   0.620567 0.100562 0.438256 0.495652
C8    C     C_R   0.573980 0.903428 0.588493 0.489859
C9    C     C_R   0.555150 0.049255 0.505723 -0.014101
C10   C     C_R   0.559935 0.952136 0.504051 -0.005021
C11   C     C_R   0.439372 0.431976 0.104814 -0.290608
C12   C     C_R   0.503618 0.672647 0.500388 0.896976
C13   C     C_R   0.601423 0.534567 0.895041 -0.286015
C14   C     C_R   0.440597 0.433280 0.204122 0.024946
C15   C     C_R   0.599498 0.534228 0.795734 0.035688
C16   C     C_R   0.260055 0.502466 0.500057 0.881955
C17   C     C_R   0.739912 0.497335 0.499911 0.870848
C18   C     C_R   0.558316 0.567135 0.204937 0.028162
C19   C     C_R   0.400512 0.465532 0.795354 0.023947
C20   C     C_R   0.558834 0.568643 0.105648 -0.289371
C21   C     C_R   0.398200 0.465177 0.894655 -0.285894
C22   C     C_R   0.499227 0.500225 0.053399 0.133903
C23   C     C_R   0.872348 0.495028 0.499566 -0.077723
C24   C     C_R   0.499609 0.500004 0.946683 0.140606
C25   C     C_R   0.230115 0.742932 0.314563 -0.139454
C26   C     C_R   0.753152 0.258346 0.676966 -0.126823
C27   C     C_R   0.169890 0.690712 0.382388 -0.146064
C28   C     C_R   0.808751 0.314553 0.610444 -0.123573
C29   C     C_R   0.122891 0.605972 0.357704 0.135019
C30   C     C_R   0.877592 0.389664 0.640128 0.144325
C31   C     C_R   0.137185 0.573882 0.264772 -0.122269
C32   C     C_R   0.889895 0.407853 0.737156 -0.170823
C33   C     C_R   0.199449 0.625675 0.197580 -0.128035
C34   C     C_R   0.127568 0.503858 0.500156 -0.074159
C35   C     C_R   0.832617 0.352210 0.803424 -0.137539
C36   C     C_R   0.245809 0.710172 0.222449 -0.113835
C37   C     C_R   0.764441 0.277447 0.773345 -0.101780
C38   C     C_R   0.932952 0.544592 0.430004 -0.252122
C39   C     C_R   0.067052 0.454321 0.569726 -0.256917
C40   C     C_3   0.812139 0.033739 0.407223 0.078410
C41   C     C_3   0.895176 0.113029 0.436876 -0.395093
C42   C     C_3   0.028516 0.082442 0.458453 -0.936458
C43   C     C_3   0.718128 0.973598 0.684308 0.077443
C44   C     C_3   0.805816 0.894851 0.706824 -0.376614
C45   C     C_R   0.938574 0.448333 0.569678 -0.003085
C46   C     C_3   0.937638 0.927474 0.729587 -0.947451
C47   C     C_R   0.061296 0.549834 0.429726 -0.009554
C48   C     C_R   0.472511 0.090535 0.569963 -0.179919
C49   C     C_R   0.534233 0.907978 0.418685 -0.191501
C50   C     C_R   0.454337 0.182028 0.567827 -0.240698
H1    H     H_    0.293689 0.750304 0.170332 0.123824
H2    H     H_    0.316463 0.438920 0.930122 0.129730
H3    H     H_    0.264895 0.808710 0.333493 0.132049
H4    H     H_    0.701511 0.199916 0.653889 0.134483
H5    H     H_    0.159690 0.716184 0.453880 0.118049
H6    H     H_    0.798764 0.299622 0.535899 0.095225
H7    H     H_    0.102054 0.508333 0.244992 0.120258
H8    H     H_    0.942638 0.465521 0.761283 0.122129
H9    H     H_    0.211912 0.600278 0.126307 0.131139
H10   H     H_    0.841287 0.366960 0.878097 0.130347
H11   H     H_    0.880077 0.581386 0.377506 0.157711
H12   H     H_    0.720709 0.234162 0.824705 0.124157
H13   H     H_    0.120269 0.417405 0.621929 0.150250
H14   H     H_    0.419052 0.051624 0.620104 0.189654
H15   H     H_    0.521268 0.944840 0.353807 0.187235
H16   H     H_    0.391117 0.213440 0.618284 0.159266
H17   H     H_    0.498025 0.783335 0.350420 0.169101
H18   H     H_    0.644064 0.231680 0.381219 0.167996
H19   H     H_    0.556878 0.775355 0.652376 0.176475
H20   H     H_    0.861506 0.995163 0.350828 0.179857
H21   H     H_    0.799578 0.986427 0.466529 0.121115
H22   H     H_    0.897759 0.163339 0.379413 0.236570
H23   H     H_    0.393408 0.376958 0.068865 0.136340
H24   H     H_    0.855445 0.145224 0.501289 0.203399
H25   H     H_    0.028060 0.031564 0.515238 0.257788
H26   H     H_    0.084834 0.140800 0.482324 0.267698
H27   H     H_    0.073028 0.053170 0.394190 0.264082
H28   H     H_    0.721187 0.022274 0.744092 0.172186
H29   H     H_    0.751758 0.010640 0.621483 0.115300
H30   H     H_    0.768425 0.857515 0.768336 0.232950
H31   H     H_    0.810939 0.848278 0.645240 0.209078
H32   H     H_    0.977086 0.964581 0.668802 0.260898
H33   H     H_    0.999091 0.869044 0.744410 0.266213
H34   H     H_    0.683089 0.560705 0.930800 0.130745
H35   H     H_    0.936009 0.972109 0.792788 0.264940
H36   H     H_    0.394166 0.380547 0.242644 0.128208
H37   H     H_    0.678206 0.561197 0.757195 0.126113
H38   H     H_    0.604483 0.620053 0.244081 0.120784
H39   H     H_    0.322075 0.438382 0.756501 0.119987
H40   H     H_    0.604337 0.623810 0.070362 0.134548
N1    N     N_R   0.500000 0.499980 0.252470 -0.088294
N2    N     N_R   0.500000 0.500020 0.747530 -0.089416
O1    O     O_R   0.500010 0.369070 0.579480 -0.610286
O2    O     O_3   0.592593 0.944855 0.675345 -0.662923
O3    O     O_R   0.499990 0.630930 0.420520 -0.622489
O4    O     O_R   0.500010 0.369060 0.420520 -0.630237
O5    O     O_R   0.499990 0.630940 0.579480 -0.626303
O6    O     O_R   0.316760 0.500010 0.579480 -0.636231
O7    O     O_R   0.683240 0.499990 0.420520 -0.628119
O8    O     O_R   0.316760 0.500000 0.420520 -0.608770
O9    O     O_R   0.683240 0.500000 0.579480 -0.619873
O10   O     O_3   0.696479 0.062454 0.368998 -0.660560
Zn1   Zn    Zn3+2 0.500000 0.500010 0.606140 0.947277
Zn2   Zn    Zn3+2 0.500000 0.499990 0.393860 0.947178

loop_
_geom_bond_atom_site_label_1
_geom_bond_atom_site_label_2
_ccdc_geom_bond_type
C6    H19   S    
C23   C45   A    
C40   H21   S    
C27   C29   A    
C41   C42   S    
C30   C45   S    
C32   H8    S    
N1    Zn2   S    
O1    Zn1   S    
C37   H12   S    
C28   H6    S    
C43   O2    S    
C43   H28   S    
C13   H34   S    
C42   H25   S    
C17   C23   S    
C40   H20   S    
C29   C47   S    
C18   N1    A    
C35   C37   A    
C25   H3    S    
C11   C14   A    
C27   H5    S    
C48   H14   S    
C43   H29   S    
O6    Zn1   S    
O8    Zn2   S    
C33   C36   A    
C17   O9    A    
C19   N2    A    
N2    Zn1   S    
C16   C34   S    
C15   N2    A    
C46   H32   S    
C7    O10   S    
C31   C33   A    
C12   O3    A    
C4    C12   S    
C9    C10   S    
C39   C45   A    
C38   H11   S    
C48   C50   A    
O7    Zn2   S    
C41   H24   S    
C33   H9    S    
C5    H18   S    
C26   H4    S    
C3    C50   A    
C44   C46   S    
C34   C39   A    
C32   C35   A    
C44   H30   S    
C8    O2    S    
C14   H36   S    
C4    C6    A    
C44   H31   S    
C11   H23   S    
C5    C7    A    
C16   O8    A    
C6    C8    A    
C20   H40   S    
C18   H38   S    
C46   H35   S    
C13   C24   A    
C35   H10   S    
C1    C3    S    
C2    C4    A    
C43   C44   S    
C19   H39   S    
C2    C49   A    
C50   H16   S    
C38   C47   A    
C17   O7    A    
C12   O5    A    
O5    Zn1   S    
C36   H1    S    
C49   H15   S    
C9    C48   A    
C41   H22   S    
C8    C10   A    
C40   C41   S    
C20   C22   A    
C2    H17   S    
C13   C15   A    
C22   C24   S    
O3    Zn2   S    
C15   H37   S    
O9    Zn1   S    
C7    C9    A    
C19   C21   A    
C26   C28   A    
C3    C5    A    
C26   C37   A    
C25   C27   A    
C23   C38   A    
C39   H13   S    
C11   C22   A    
C42   H26   S    
C31   H7    S    
O4    Zn2   S    
C29   C31   A    
C30   C32   A    
C16   O6    A    
C1    O4    A    
C28   C30   A    
C18   C20   A    
C14   N1    A    
C25   C36   A    
C40   O10   S    
C46   H33   S    
C42   H27   S    
C1    O1    A    
C21   C24   A    
C34   C47   A    
C10   C49   A    
C21   H2    S    
