data_mof_unit_3881.cif
_audit_creation_date              2012-10-26T20:37:58-0400
_audit_creation_method            fapswitch 2.2
_symmetry_space_group_name_H-M    P1
_symmetry_Int_Tables_number       1
_space_group_crystal_system       triclinic
_cell_length_a                    9.846227
_cell_length_b                    11.034806
_cell_length_c                    13.02574
_cell_angle_alpha                 89.790414
_cell_angle_beta                  75.071212
_cell_angle_gamma                 110.799001
_cell_volume                      1271.26549737

loop_
_atom_site_label
_atom_site_type_symbol
_atom_type_description
_atom_site_fract_x
_atom_site_fract_y
_atom_site_fract_z
_atom_type_partial_charge
C1    C     C_R   0.439742 0.253996 0.507780 0.559292
C2    C     C_R   0.701874 0.555925 0.996562 -0.134825
C3    C     C_R   0.307853 0.455499 0.895062 -0.024075
C4    C     C_R   0.692140 0.544488 0.104937 -0.024078
C5    C     C_R   0.582706 0.528968 0.854072 -0.151570
C6    C     C_R   0.417284 0.471020 0.145928 -0.151589
C7    C     C_R   0.571529 0.521854 0.962481 0.028408
C8    C     C_R   0.428457 0.478117 0.037520 0.028391
C9    C     C_2   0.405753 0.114770 0.512063 -0.132521
C10   C     C_2   0.594247 0.885230 0.487939 -0.132522
C11   C     C_2   0.517053 0.069568 0.497890 -0.166602
C12   C     C_R   0.560257 0.746004 0.492221 0.559292
C13   C     C_2   0.482946 0.930432 0.502113 -0.166600
C14   C     C_R   0.835754 0.572063 0.133229 0.061496
C15   C     C_R   0.867019 0.470189 0.174530 -0.041312
C16   C     C_R   0.001807 0.496605 0.202383 -0.114944
C17   C     C_R   0.109040 0.623612 0.184900 -0.126216
C18   C     C_R   0.080436 0.724825 0.141101 -0.120350
C19   C     C_R   0.944134 0.699375 0.115418 -0.095164
C20   C     C_R   0.164247 0.427927 0.866760 0.061484
C21   C     C_R   0.055907 0.300612 0.884504 -0.095128
C22   C     C_R   0.919664 0.275142 0.858726 -0.120339
C23   C     C_2   0.083293 0.512848 0.492550 -0.035796
C24   C     C_R   0.891072 0.376344 0.814914 -0.126240
C25   C     C_R   0.998241 0.503367 0.797536 -0.114897
C26   C     C_R   0.132975 0.529795 0.825472 -0.041325
C27   C     C_2   0.916706 0.487155 0.507453 -0.035792
C28   C     C_R   0.472024 0.496938 0.703216 0.543786
C29   C     C_R   0.527976 0.503063 0.296783 0.543785
C30   C     C_R   0.547442 0.505271 0.181185 -0.012572
C31   C     C_R   0.452554 0.494724 0.818814 -0.012572
C32   C     C_R   0.298113 0.444037 0.003437 -0.134838
Cu1   Cu    Cu3+1 0.647370 0.522180 0.481340 0.934826
Cu2   Cu    Cu3+1 0.352630 0.477820 0.518660 0.934835
H1    H     H_    0.306336 0.439027 0.202967 0.120016
H2    H     H_    0.166207 0.591494 0.433675 0.144339
H3    H     H_    0.950216 0.632093 0.400450 0.213783
H4    H     H_    0.049786 0.367899 0.599540 0.213794
H5    H     H_    0.785528 0.371128 0.187249 0.105246
H6    H     H_    0.023405 0.418440 0.237152 0.096670
H7    H     H_    0.213930 0.643641 0.205705 0.109321
H8    H     H_    0.163550 0.823125 0.127570 0.106884
H9    H     H_    0.922692 0.778646 0.082138 0.097840
H10   H     H_    0.077345 0.221347 0.917788 0.097839
H11   H     H_    0.836599 0.176830 0.872175 0.106880
H12   H     H_    0.693655 0.560981 0.797033 0.120022
H13   H     H_    0.786246 0.356295 0.794012 0.109266
H14   H     H_    0.976651 0.581522 0.762755 0.096692
H15   H     H_    0.214431 0.628855 0.812804 0.105232
H16   H     H_    0.188159 0.409600 0.061242 0.110394
H17   H     H_    0.811828 0.590329 0.938755 0.110401
H18   H     H_    0.365797 0.864638 0.516953 0.153038
H19   H     H_    0.634202 0.135362 0.483051 0.153037
H20   H     H_    0.711191 0.951314 0.473122 0.099984
H21   H     H_    0.288809 0.048686 0.526879 0.099984
H22   H     H_    0.833792 0.408513 0.566333 0.144318
N1    N     N_2   0.131210 0.444490 0.546730 -0.349160
N2    N     N_2   0.868790 0.555510 0.453270 -0.349156
O1    O     O_R   0.578710 0.332530 0.490040 -0.499851
O2    O     O_R   0.421290 0.667470 0.509960 -0.499851
O3    O     O_R   0.329810 0.295070 0.521560 -0.490970
O4    O     O_R   0.670190 0.704930 0.478440 -0.490969
O5    O     O_R   0.604230 0.515670 0.637800 -0.506798
O6    O     O_R   0.395770 0.484330 0.362200 -0.506790
O7    O     O_R   0.355330 0.478200 0.669330 -0.482570
O8    O     O_R   0.644670 0.521800 0.330670 -0.482586

loop_
_geom_bond_atom_site_label_1
_geom_bond_atom_site_label_2
_ccdc_geom_bond_type
Cu2   N1    S    
C2    C4    A    
C24   C25   A    
Cu1   N2    S    
C9    H21   S    
C23   C27   S    
C21   H10   S    
C9    C11   D    
C5    H12   S    
H3    N2    S    
C11   H19   S    
Cu1   O5    S    
C15   H5    S    
Cu2   O6    S    
C17   C18   A    
C29   O6    A    
C1    C9    S    
C3    C20   S    
Cu1   O1    S    
C21   C22   A    
C20   C21   A    
C3    C31   A    
Cu2   O2    S    
C11   C13   S    
C25   H14   S    
C32   H16   S    
C29   C30   S    
C8    C32   A    
C20   C26   A    
C16   H6    S    
C10   C12   S    
Cu2   O7    S    
C6    C30   A    
C19   H9    S    
Cu1   O8    S    
Cu1   Cu2   S    
C22   C24   A    
C1    O1    A    
C4    C14   S    
C3    C32   A    
C10   H20   S    
C17   H7    S    
C16   C17   A    
C2    H17   S    
C13   H18   S    
C15   C16   A    
H4    N1    S    
C28   O5    A    
C7    C8    A    
C22   H11   S    
C12   O4    A    
C6    H1    S    
C2    C7    A    
C23   N1    D    
C23   H2    S    
Cu2   O3    S    
C26   H15   S    
C12   O2    A    
C5    C7    A    
C14   C15   A    
C18   C19   A    
C6    C8    A    
C18   H8    S    
C25   C26   A    
C27   H22   S    
C24   H13   S    
C28   O7    A    
C14   C19   A    
C27   N2    D    
C28   C31   S    
C4    C30   A    
C29   O8    A    
Cu1   O4    S    
C5    C31   A    
C10   C13   D    
C1    O3    A    
