data_mof_unit_2062.cif
_audit_creation_date              2012-12-11T14:52:36-0500
_audit_creation_method            fapswitch 2.2
_symmetry_space_group_name_H-M    P1
_symmetry_Int_Tables_number       1
_space_group_crystal_system       triclinic
_cell_length_a                    18.935374
_cell_length_b                    10.92595
_cell_length_c                    18.843577
_cell_angle_alpha                 89.932225
_cell_angle_beta                  90.740809
_cell_angle_gamma                 90.107884
_cell_volume                      3898.15477989

loop_
_atom_site_label
_atom_site_type_symbol
_atom_type_description
_atom_site_fract_x
_atom_site_fract_y
_atom_site_fract_z
_atom_type_partial_charge
C1    C     C_R   0.272062 0.043810 0.853341 0.538139
C2    C     C_R   0.693047 0.549390 0.034677 -0.188605
C3    C     C_3   0.028493 0.329012 0.064666 0.036119
C4    C     C_1   0.523960 0.068604 0.044293 0.219176
C5    C     C_1   0.590025 0.939187 0.901822 0.245325
C6    C     C_1   0.023957 0.568605 0.044293 0.219120
C7    C     C_1   0.090020 0.439198 0.901815 0.245396
C8    C     C_R   0.793403 0.018388 0.960390 -0.184146
C9    C     C_R   0.193048 0.049386 0.034679 -0.188336
C10   C     C_R   0.289991 0.500575 0.033443 -0.170530
C11   C     C_R   0.695398 0.545614 0.960686 -0.175694
C12   C     C_R   0.789995 0.000584 0.033446 -0.170194
C13   C     C_R   0.195400 0.045607 0.960688 -0.175919
C14   C     C_R   0.245694 0.574684 0.074419 -0.008884
C15   C     C_R   0.756405 0.582511 0.925694 0.005915
C16   C     C_R   0.745698 0.074692 0.074422 -0.008163
C17   C     C_R   0.727636 0.040946 0.146232 0.545991
C18   C     C_R   0.256407 0.082503 0.925697 0.005366
C19   C     C_R   0.205319 0.665248 0.042352 -0.116901
C20   C     C_R   0.811655 0.636324 0.964508 -0.121967
C21   C     C_R   0.705325 0.165260 0.042356 -0.116689
C22   C     C_R   0.311659 0.136311 0.964512 -0.122136
C23   C     C_R   0.202207 0.674880 0.969515 0.100463
C24   C     C_R   0.810299 0.641601 0.037596 0.075011
C25   C     C_R   0.702214 0.174893 0.969519 0.100192
C26   C     C_R   0.310302 0.141588 0.037600 0.075314
C27   C     C_R   0.250520 0.606668 0.927772 0.070665
C28   C     C_R   0.772061 0.543812 0.853340 0.536330
C29   C     C_R   0.749700 0.599657 0.073792 0.049556
C30   C     C_R   0.750524 0.106679 0.927775 0.069779
C31   C     C_R   0.249701 0.099650 0.073794 0.050302
C32   C     C_R   0.520116 0.724954 0.543205 -0.135459
C33   C     C_R   0.526265 0.721849 0.470665 -0.130108
C34   C     C_R   0.020625 0.226691 0.543083 -0.132597
C35   C     C_R   0.026562 0.222979 0.470559 -0.124941
C36   C     C_R   0.516036 0.828396 0.430033 0.032753
C37   C     C_R   0.500295 0.833333 0.576758 0.032431
C38   C     C_R   0.014381 0.328310 0.429399 0.034295
C39   C     C_R   0.227635 0.540944 0.146231 0.548083
C40   C     C_R   0.998596 0.334101 0.576085 0.030998
C41   C     C_R   0.501883 0.939664 0.463859 -0.135659
C42   C     C_R   0.493682 0.942016 0.537239 -0.130855
C43   C     C_R   0.996938 0.438663 0.462498 -0.147242
C44   C     C_R   0.988434 0.441399 0.535833 -0.138676
C45   C     C_R   0.443817 0.817469 0.863003 0.553613
C46   C     C_R   0.557041 0.818418 0.137090 0.568128
C47   C     C_R   0.943817 0.317469 0.863003 0.553615
C48   C     C_R   0.057043 0.318418 0.137090 0.568111
C49   C     C_R   0.183089 0.589683 0.544180 -0.132885
C50   C     C_3   0.493002 0.712059 0.980039 0.111050
C51   C     C_R   0.793249 0.683732 0.473195 -0.127748
C52   C     C_R   0.707007 0.184004 0.526670 -0.125035
C53   C     C_R   0.315866 0.109005 0.458557 -0.131712
C54   C     C_R   0.176887 0.582857 0.471812 -0.124939
C55   C     C_R   0.793718 0.676355 0.545559 -0.136946
C56   C     C_R   0.706501 0.176305 0.454313 -0.134205
C57   C     C_R   0.319373 0.107626 0.530944 -0.127193
C58   C     C_R   0.237002 0.562962 0.430494 0.039664
C59   C     C_R   0.748975 0.593308 0.578653 0.037127
C60   C     C_R   0.750975 0.092966 0.421417 0.036198
C61   C     C_3   0.457693 0.771645 0.043220 0.105730
C62   C     C_R   0.261173 0.068151 0.570216 0.038891
C63   C     C_R   0.302859 0.542950 0.462421 -0.135739
C64   C     C_R   0.696538 0.530766 0.539598 -0.137150
C65   C     C_R   0.803185 0.030367 0.460636 -0.130699
C66   C     C_R   0.199263 0.028868 0.535760 -0.135135
C67   C     C_R   0.309383 0.552261 0.535313 -0.131009
C68   C     C_R   0.694506 0.541246 0.466407 -0.144509
C69   C     C_R   0.805330 0.041288 0.533794 -0.136975
C70   C     C_R   0.194656 0.035675 0.462485 -0.133494
C71   C     C_R   0.249826 0.581532 0.575701 0.033532
C72   C     C_3   0.993007 0.212060 0.980038 0.111038
C73   C     C_R   0.744609 0.614645 0.432926 0.041971
C74   C     C_R   0.755398 0.114866 0.567105 0.039890
C75   C     C_R   0.252054 0.081536 0.424283 0.035610
C76   C     C_R   0.261138 0.640655 0.853377 0.567568
C77   C     C_R   0.739261 0.637872 0.147487 0.553747
C78   C     C_R   0.761139 0.140660 0.853379 0.569567
C79   C     C_R   0.239261 0.137871 0.147487 0.551328
C80   C     C_R   0.273082 0.042406 0.644219 0.551963
C81   C     C_R   0.729510 0.047874 0.352841 0.550566
C82   C     C_R   0.770449 0.548100 0.647218 0.552040
C83   C     C_3   0.957698 0.271643 0.043219 0.105820
C84   C     C_R   0.226288 0.540830 0.356188 0.550297
C85   C     C_R   0.470791 0.824063 0.647426 0.559120
C86   C     C_R   0.533376 0.822904 0.355116 0.559199
C87   C     C_R   0.970355 0.324172 0.647179 0.559835
C88   C     C_R   0.032683 0.322954 0.354747 0.558709
C89   C     C_R   0.259800 0.634464 0.644705 0.556802
C90   C     C_R   0.738712 0.641685 0.358381 0.551204
C91   C     C_R   0.761292 0.141910 0.641621 0.557249
C92   C     C_R   0.240577 0.133796 0.355104 0.550631
C93   C     C_3   0.510287 0.943457 0.020080 -0.032020
C94   C     C_R   0.293399 0.518379 0.960387 -0.183873
C95   C     C_3   0.544921 0.883323 0.955492 -0.035054
C96   C     C_3   0.010288 0.443458 0.020079 -0.032114
C97   C     C_3   0.044922 0.383328 0.955490 -0.034886
C98   C     C_3   0.437853 0.886001 0.999142 -0.168060
C99   C     C_3   0.564595 0.769527 0.000231 -0.152142
C100  C     C_3   0.937855 0.385999 0.999143 -0.167962
C101  C     C_3   0.064600 0.269531 0.000228 -0.152137
C102  C     C_3   0.473801 0.824347 0.934978 0.030341
C103  C     C_3   0.528489 0.829010 0.064667 0.036248
C104  C     C_3   0.973802 0.324348 0.934977 0.030446
Cr1   Cr    Cr6+3 0.229630 0.835900 0.747350 1.035119
Cr2   Cr    Cr6+3 0.614200 0.677120 0.250660 1.019671
Cr3   Cr    Cr6+3 0.885800 0.177120 0.749340 1.030009
Cr4   Cr    Cr6+3 0.114200 0.177120 0.250660 1.020194
Cr5   Cr    Cr6+3 0.770370 0.835900 0.252650 1.031793
Cr6   Cr    Cr6+3 0.729630 0.335900 0.747350 1.032075
Cr7   Cr    Cr6+3 0.270370 0.335900 0.252650 1.034812
Cr8   Cr    Cr6+3 0.387410 0.989850 0.750850 1.033738
Cr9   Cr    Cr6+3 0.612590 0.989850 0.249150 1.041143
Cr10  Cr    Cr6+3 0.887410 0.489850 0.750850 1.031640
Cr11  Cr    Cr6+3 0.112590 0.489850 0.249150 1.041329
Cr12  Cr    Cr6+3 0.385800 0.677120 0.749340 1.028489
H1    H     H_    0.385136 0.929434 0.998321 0.116455
H2    H     H_    0.833416 0.727770 0.574930 0.126334
H3    H     H_    0.667010 0.227829 0.424806 0.127768
H4    H     H_    0.368769 0.135079 0.555764 0.130898
H5    H     H_    0.348955 0.522554 0.431099 0.125184
H6    H     H_    0.660387 0.468041 0.564926 0.120098
H7    H     H_    0.839095 0.967368 0.435471 0.124174
H8    H     H_    0.154903 0.993551 0.565257 0.122613
H9    H     H_    0.361589 0.545227 0.559169 0.137364
H10   H     H_    0.654751 0.491535 0.436209 0.113398
H11   H     H_    0.844994 0.991680 0.564104 0.120566
H12   H     H_    0.618235 0.731916 0.000631 0.125864
H13   H     H_    0.145337 0.011759 0.436296 0.122793
H14   H     H_    0.328244 0.461946 0.929240 0.127694
H15   H     H_    0.644834 0.521771 0.060614 0.138309
H16   H     H_    0.828247 0.961953 0.929243 0.127408
H17   H     H_    0.144834 0.021770 0.060616 0.138529
H18   H     H_    0.320631 0.427754 0.057530 0.173078
H19   H     H_    0.649291 0.516036 0.930895 0.146235
H20   H     H_    0.820634 0.927762 0.057532 0.173154
H21   H     H_    0.149293 0.016031 0.930898 0.146173
H22   H     H_    0.171513 0.722965 0.073928 0.157516
H23   H     H_    0.885137 0.429432 0.998323 0.116572
H24   H     H_    0.859100 0.667747 0.938576 0.144256
H25   H     H_    0.671520 0.222977 0.073934 0.157303
H26   H     H_    0.359105 0.167730 0.938581 0.144317
H27   H     H_    0.526706 0.640158 0.572431 0.129663
H28   H     H_    0.540228 0.635249 0.446760 0.134333
H29   H     H_    0.029213 0.142916 0.572797 0.127614
H30   H     H_    0.041942 0.136933 0.447043 0.130189
H31   H     H_    0.496550 0.023699 0.433729 0.119581
H32   H     H_    0.479164 0.027072 0.562461 0.122223
H33   H     H_    0.989271 0.521580 0.431815 0.120115
H34   H     H_    0.118240 0.231921 0.000628 0.125932
H35   H     H_    0.970764 0.525365 0.560351 0.132693
H36   H     H_    0.431735 0.568230 0.951137 0.234312
H37   H     H_    0.502053 0.530462 0.001478 0.219351
H38   H     H_    0.423231 0.620168 0.095807 0.241888
H39   H     H_    0.359438 0.718152 0.069974 0.225564
H40   H     H_    0.931742 0.068227 0.951138 0.234228
H41   H     H_    0.002063 0.030464 0.001475 0.219413
H42   H     H_    0.923235 0.120162 0.095803 0.241942
H43   H     H_    0.859443 0.218154 0.069979 0.225465
H44   H     H_    0.174036 0.827612 0.918992 0.251073
H45   H     H_    0.136545 0.610096 0.574884 0.132588
H46   H     H_    0.113467 0.784133 0.976242 0.231835
H47   H     H_    0.905840 0.732762 0.040236 0.232066
H48   H     H_    0.896224 0.617558 0.100038 0.256777
H49   H     H_    0.674045 0.327622 0.918991 0.251096
H50   H     H_    0.613478 0.284158 0.976248 0.231887
H51   H     H_    0.405844 0.232743 0.040241 0.232135
H52   H     H_    0.396226 0.117538 0.100042 0.256344
H53   H     H_    0.830958 0.745202 0.449168 0.130808
H54   H     H_    0.669549 0.245763 0.550557 0.132021
H55   H     H_    0.361448 0.141950 0.429958 0.129896
H56   H     H_    0.124629 0.592311 0.448438 0.139072
N1    N     N_1   0.534875 0.166810 0.064480 -0.340461
N2    N     N_3   0.870661 0.690656 0.074900 -0.595094
N3    N     N_3   0.648372 0.251147 0.938346 -0.569508
N4    N     N_3   0.370665 0.190638 0.074905 -0.595361
N5    N     N_1   0.624456 0.981461 0.857904 -0.261613
N6    N     N_1   0.034868 0.666812 0.064481 -0.339971
N7    N     N_1   0.124444 0.481476 0.857894 -0.263871
N8    N     N_3   0.485425 0.584697 0.958734 -0.600099
N9    N     N_3   0.409851 0.712735 0.092561 -0.589483
N10   N     N_3   0.985431 0.084697 0.958733 -0.600277
N11   N     N_3   0.909858 0.212731 0.092562 -0.589401
N12   N     N_3   0.148365 0.751131 0.938341 -0.569685
O1    O     O_R   0.214270 0.709000 0.827470 -0.477203
O2    O     O_R   0.543270 0.717630 0.330160 -0.522938
O3    O     O_R   0.956730 0.217630 0.669840 -0.519842
O4    O     O_R   0.043270 0.217630 0.330160 -0.521098
O5    O     O_R   0.320620 0.625640 0.672920 -0.508944
O6    O     O_R   0.679380 0.625640 0.327080 -0.509407
O7    O     O_R   0.820620 0.125640 0.672920 -0.504573
O8    O     O_R   0.179380 0.125640 0.327080 -0.511067
O9    O     O_3   0.334280 0.834290 0.749180 -0.277142
O10   O     O_3   0.665720 0.834290 0.250820 -0.278213
O11   O     O_3   0.834280 0.334290 0.749180 -0.276708
O12   O     O_R   0.785730 0.709000 0.172530 -0.472671
O13   O     O_3   0.165720 0.334290 0.250820 -0.279097
O14   O     O_R   0.236160 0.958490 0.823130 -0.514197
O15   O     O_R   0.763840 0.958490 0.176870 -0.501633
O16   O     O_R   0.736160 0.458490 0.823130 -0.514865
O17   O     O_R   0.263840 0.458490 0.176870 -0.500858
O18   O     O_R   0.332080 0.075470 0.831280 -0.528847
O19   O     O_R   0.667920 0.075470 0.168720 -0.514988
O20   O     O_R   0.832080 0.575470 0.831280 -0.530567
O21   O     O_R   0.167920 0.575470 0.168720 -0.512806
O22   O     O_R   0.446300 0.918110 0.826620 -0.493688
O23   O     O_R   0.714270 0.209000 0.827470 -0.474738
O24   O     O_R   0.553700 0.918110 0.173380 -0.485697
O25   O     O_R   0.946300 0.418110 0.826620 -0.494089
O26   O     O_R   0.053700 0.418110 0.173380 -0.485093
O27   O     O_R   0.457110 0.716200 0.831760 -0.481754
O28   O     O_R   0.542890 0.716200 0.168240 -0.493978
O29   O     O_R   0.957110 0.216200 0.831760 -0.482355
O30   O     O_R   0.042890 0.216200 0.168240 -0.493586
O31   O     O_R   0.320980 0.624310 0.823030 -0.529345
O32   O     O_R   0.679020 0.624310 0.176970 -0.530766
O33   O     O_R   0.820980 0.124310 0.823030 -0.528770
O34   O     O_R   0.285730 0.209000 0.172530 -0.475201
O35   O     O_R   0.179020 0.124310 0.176970 -0.531629
O36   O     O_R   0.213890 0.710430 0.665540 -0.516271
O37   O     O_R   0.786110 0.710430 0.334460 -0.528016
O38   O     O_R   0.713890 0.210430 0.665540 -0.522566
O39   O     O_R   0.286110 0.210430 0.334460 -0.522538
O40   O     O_R   0.235810 0.959820 0.673020 -0.501684
O41   O     O_R   0.764190 0.959820 0.326980 -0.509091
O42   O     O_R   0.735810 0.459820 0.673020 -0.508605
O43   O     O_R   0.264190 0.459820 0.326980 -0.501127
O44   O     O_R   0.331700 0.076900 0.669350 -0.527940
O45   O     O_R   0.445950 0.919440 0.676520 -0.499681
O46   O     O_R   0.668300 0.076900 0.330650 -0.525008
O47   O     O_R   0.831700 0.576900 0.669350 -0.525552
O48   O     O_R   0.168300 0.576900 0.330650 -0.529029
O49   O     O_R   0.554050 0.919440 0.323480 -0.497303
O50   O     O_R   0.945950 0.419440 0.676520 -0.498730
O51   O     O_R   0.054050 0.419440 0.323480 -0.502758
O52   O     O_R   0.456730 0.717630 0.669840 -0.523341

loop_
_geom_bond_atom_site_label_1
_geom_bond_atom_site_label_2
_ccdc_geom_bond_type
C99   C103  S    
C82   O47   A    
C16   C21   A    
Cr8   O44   S    
C55   C59   A    
C85   O52   A    
C41   C42   A    
C101  H34   S    
C50   N8    S    
C61   C98   S    
C59   C82   S    
Cr8   O18   S    
Cr12  O5    S    
C24   N2    S    
C93   C103  S    
Cr11  O51   S    
C57   C62   A    
Cr2   O10   S    
C66   C70   A    
Cr1   O9    S    
C82   O42   A    
C78   O23   A    
C1    C18   S    
C94   H14   S    
C87   O50   A    
C81   O41   A    
C13   C18   A    
C64   H6    S    
C2    C29   A    
C34   C40   A    
C64   C68   A    
C40   C87   S    
C37   C85   S    
C61   C103  S    
C77   O12   A    
C73   C90   S    
Cr12  O27   S    
C58   C84   S    
C67   H9    S    
C78   O33   A    
C90   O6    A    
C4    N1    T    
C34   H29   S    
C95   C99   S    
C67   C71   A    
C72   C101  S    
C10   C94   A    
C49   C54   A    
C77   O32   A    
H38   N9    S    
Cr3   O3    S    
C3    C48   S    
Cr4   O13   S    
C33   C36   A    
Cr5   O12   S    
C34   C35   A    
Cr9   O10   S    
Cr1   O1    S    
C37   C42   A    
C17   O19   A    
C9    C13   A    
C24   C29   A    
C32   H27   S    
C63   H5    S    
C14   C39   S    
Cr3   O33   S    
Cr4   O35   S    
C11   C15   A    
C100  C104  S    
C12   C16   A    
C16   C17   S    
Cr3   O29   S    
C8    H16   S    
C12   H20   S    
H48   N2    S    
C3    C96   S    
Cr7   O34   S    
C23   C27   A    
H42   N11   S    
C49   H45   S    
C43   H33   S    
C95   C102  S    
C8    C30   A    
C3    C101  S    
C1    O14   A    
Cr9   O19   S    
H37   N8    S    
C42   H32   S    
C26   C31   A    
C93   C95   S    
C6    N6    T    
Cr7   O17   S    
C36   C41   A    
C53   C75   A    
C88   O4    A    
Cr12  O31   S    
C2    C11   A    
Cr3   O11   S    
C5    C95   S    
Cr7   O39   S    
C9    C31   A    
C48   O30   A    
C33   H28   S    
C15   C20   A    
C13   H21   S    
C63   C67   A    
Cr8   O22   S    
C86   O49   A    
Cr10  O11   S    
C62   C66   A    
Cr6   O16   S    
C44   H35   S    
Cr9   O24   S    
C51   C73   A    
Cr9   O46   S    
C35   C38   A    
C85   O45   A    
Cr2   O2    S    
C90   O37   A    
Cr10  O50   S    
Cr6   O42   S    
C52   H54   S    
Cr10  O47   S    
Cr5   O41   S    
C79   O34   A    
C87   O3    A    
C72   C104  S    
C36   C86   S    
C68   C73   A    
C98   C102  S    
C91   O7    A    
C70   H13   S    
Cr8   O45   S    
C56   C60   A    
C38   C88   S    
C35   H30   S    
C28   O20   A    
C74   C91   S    
H36   N8    S    
C19   C23   A    
C43   C44   A    
C45   O22   A    
H46   N12   S    
C46   O24   A    
C100  H23   S    
C11   H19   S    
C80   O40   A    
C50   C102  S    
Cr11  O13   S    
C60   C81   S    
C25   N3    S    
C79   O35   A    
C41   H31   S    
C51   H53   S    
C8    C12   A    
Cr1   O36   S    
Cr2   O28   S    
C96   C97   S    
Cr12  O52   S    
C2    H15   S    
C50   C99   S    
C83   N11   S    
C69   C74   A    
C28   O16   A    
C32   C37   A    
C80   O44   A    
C91   O38   A    
C58   C63   A    
C5    N5    T    
Cr11  O48   S    
Cr6   O23   S    
C71   C89   S    
C46   O28   A    
C57   H4    S    
Cr5   O10   S    
Cr12  O9    S    
C75   C92   S    
C26   N4    S    
C48   O26   A    
C60   C65   A    
C86   O2    A    
C6    C96   S    
C81   O46   A    
C47   O25   A    
C3    C83   S    
C56   H3    S    
C66   H8    S    
Cr5   O15   S    
H41   N10   S    
Cr2   O6    S    
C1    O18   A    
C27   C76   S    
Cr6   O38   S    
C68   H10   S    
C72   C83   S    
Cr6   O11   S    
Cr5   O37   S    
Cr10  O25   S    
C98   H1    S    
C54   C58   A    
C62   C80   S    
C25   C30   A    
H52   N4    S    
C88   O51   A    
C21   C25   A    
Cr1   O14   S    
Cr10  O20   S    
H40   N10   S    
C47   C104  S    
C7    C97   S    
Cr11  O26   S    
C18   C22   A    
C14   C19   A    
Cr4   O4    S    
C92   O39   A    
C10   H18   S    
C53   C57   A    
C22   H26   S    
H39   N9    S    
C31   C79   S    
C99   H12   S    
H49   N3    S    
Cr1   O40   S    
Cr2   O32   S    
C46   C103  S    
C96   C100  S    
C61   N9    S    
H50   N3    S    
C7    N7    T    
Cr7   O43   S    
C32   C33   A    
C20   H24   S    
Cr11  O21   S    
C21   H25   S    
C38   C43   A    
Cr7   O13   S    
C89   O36   A    
C84   O43   A    
C76   O31   A    
C15   C28   S    
Cr9   O49   S    
C49   C71   A    
C19   H22   S    
C65   C69   A    
C52   C56   A    
C47   O29   A    
C83   C100  S    
C23   N12   S    
H44   N12   S    
C17   O15   A    
C51   C55   A    
C65   H7    S    
C39   O17   A    
C84   O48   A    
C97   C101  S    
Cr8   O9    S    
C97   C104  S    
C45   C102  S    
C53   H55   S    
C72   N10   S    
C4    C93   S    
C30   C78   S    
C59   C64   A    
C40   C44   A    
C29   C77   S    
C69   H11   S    
C22   C26   A    
Cr3   O7    S    
C70   C75   A    
C50   C61   S    
C89   O5    A    
Cr4   O8    S    
C27   C94   A    
C52   C74   A    
H43   N11   S    
C39   O21   A    
H47   N2    S    
C54   H56   S    
C93   C98   S    
C20   C24   A    
C45   O27   A    
C76   O1    A    
C92   O8    A    
Cr4   O30   S    
C10   C14   A    
H51   N4    S    
C55   H2    S    
C9    H17   S    
