data_mof_unit_4241.cif
_audit_creation_date              2012-12-11T17:47:25-0500
_audit_creation_method            fapswitch 2.2
_symmetry_space_group_name_H-M    P1
_symmetry_Int_Tables_number       1
_space_group_crystal_system       triclinic
_cell_length_a                    14.91788
_cell_length_b                    15.161656
_cell_length_c                    15.242678
_cell_angle_alpha                 111.108352
_cell_angle_beta                  108.561896
_cell_angle_gamma                 108.831948
_cell_volume                      2649.85650588

loop_
_atom_site_label
_atom_site_type_symbol
_atom_type_description
_atom_site_fract_x
_atom_site_fract_y
_atom_site_fract_z
_atom_type_partial_charge
Br1   Br    Br    0.758436 0.132852 0.970188 -0.669669
Br2   Br    Br    0.140227 0.849118 0.927216 -0.624831
Br3   Br    Br    0.480523 0.217218 0.120929 -0.619822
Br4   Br    Br    0.497466 0.608467 0.778385 -0.641423
C1    C     C_R   0.902192 0.195626 0.988623 0.275118
C2    C     C_R   0.898113 0.009452 0.997045 -0.189384
C3    C     C_R   0.951611 0.929728 0.599775 -0.166648
C4    C     C_R   0.879938 0.947029 0.254781 -0.210159
C5    C     C_R   0.908393 0.913819 0.665156 -0.147904
C6    C     C_R   0.919151 0.953251 0.183945 -0.184728
C7    C     C_R   0.615494 0.219408 0.177074 0.393101
C8    C     C_R   0.405139 0.671196 0.764490 0.377132
C9    C     C_R   0.709515 0.314565 0.266823 -0.227177
C10   C     C_R   0.293145 0.602888 0.695781 -0.193841
C11   C     C_R   0.806696 0.312612 0.310129 0.060349
C12   C     C_R   0.034070 0.763038 0.950359 0.304729
C13   C     C_R   0.224461 0.647060 0.678624 0.046191
C14   C     C_R   0.808664 0.215269 0.262785 -0.193595
C15   C     C_R   0.268220 0.760334 0.734003 -0.154046
C16   C     C_R   0.313013 0.778814 0.224622 -0.125917
C17   C     C_R   0.685636 0.242217 0.776701 -0.066240
C18   C     C_R   0.715871 0.122028 0.171694 -0.112350
C19   C     C_R   0.379999 0.828601 0.804937 -0.107762
C20   C     C_R   0.619123 0.123705 0.129175 -0.099199
C21   C     C_R   0.448628 0.784244 0.818468 -0.171254
C22   C     C_R   0.936264 0.408345 0.501790 -0.235610
C23   C     C_R   0.321552 0.812912 0.326309 0.041433
C24   C     C_R   0.077645 0.579947 0.500653 -0.234676
C25   C     C_R   0.036542 0.490023 0.593970 0.063662
C26   C     C_R   0.977912 0.497686 0.407843 0.062877
C27   C     C_R   0.109679 0.574349 0.592757 0.049232
C28   C     C_R   0.906671 0.409566 0.407396 0.047398
C29   C     C_R   0.976256 0.970295 0.777227 0.049130
C30   C     C_R   0.846472 0.901226 0.073543 0.056728
C31   C     C_R   0.131777 0.053297 0.757252 0.335620
C32   C     C_R   0.694508 0.850759 0.108513 0.338485
C33   C     C_R   0.101981 0.912533 0.365858 -0.118525
C34   C     C_R   0.677473 0.215800 0.675855 0.027724
C35   C     C_R   0.892529 0.102386 0.605479 -0.095492
C36   C     C_R   0.211315 0.965836 0.395179 -0.179196
C37   C     C_R   0.788260 0.062994 0.592858 -0.195260
C38   C     C_R   0.290047 0.973328 0.482294 0.070929
C39   C     C_R   0.704614 0.055082 0.509528 0.062648
C40   C     C_R   0.225410 0.408950 0.969433 -0.136427
C41   C     C_R   0.787589 0.590028 0.094019 -0.150064
C42   C     C_R   0.259736 0.937327 0.547517 0.302343
C43   C     C_R   0.723847 0.075578 0.431751 0.289120
C44   C     C_R   0.149327 0.885040 0.517185 -0.184477
C45   C     C_R   0.326436 0.501029 0.040024 0.039809
C46   C     C_R   0.827099 0.105167 0.440816 -0.179407
C47   C     C_R   0.070769 0.872191 0.426344 -0.205199
C48   C     C_R   0.911092 0.118727 0.527322 -0.208173
C49   C     C_R   0.484038 0.096505 0.564010 -0.252561
C50   C     C_R   0.513599 0.934272 0.435910 -0.252614
C51   C     C_R   0.586971 0.118150 0.577571 0.086431
C52   C     C_R   0.411091 0.912924 0.422310 0.082791
C53   C     C_R   0.601684 0.036502 0.510744 0.054070
C54   C     C_R   0.395832 0.994166 0.488074 0.049650
C55   C     C_R   0.061465 0.004977 0.646900 -0.165730
C56   C     C_R   0.695551 0.498708 0.060827 0.038537
C57   C     C_R   0.768053 0.894547 0.216989 -0.136043
C58   C     C_R   0.885664 0.917173 0.999873 0.039243
C59   C     C_R   0.932832 0.951737 0.846648 0.044238
C60   C     C_R   0.089087 0.033138 0.821783 -0.140762
C61   C     C_R   0.734243 0.851574 0.036628 -0.160248
C62   C     C_R   0.909368 0.846880 0.932926 0.095730
C63   C     C_R   0.923451 0.030110 0.923230 0.085607
C64   C     C_R   0.007655 0.589123 0.304604 -0.163467
C65   C     C_R   0.000477 0.407129 0.699786 -0.168487
C66   C     C_3   0.489709 0.396498 0.004412 -0.150498
C67   C     C_R   0.963521 0.497270 0.310447 0.052899
C68   C     C_3   0.540741 0.602851 0.128120 -0.173533
C69   C     C_3   0.444270 0.459888 0.963399 -0.139282
C70   C     C_3   0.587532 0.539532 0.169353 -0.146266
C71   C     C_3   0.427769 0.501486 0.061327 0.129892
C72   C     C_3   0.602541 0.497802 0.070486 0.154970
C73   C     C_3   0.471861 0.438134 0.102686 -0.084345
C74   C     C_3   0.557447 0.560980 0.029724 -0.102166
C75   C     C_R   0.316086 0.591749 0.057089 -0.105246
C76   C     C_R   0.697513 0.408427 0.000227 -0.099618
C77   C     C_R   0.926054 0.407217 0.213880 -0.097647
C78   C     C_R   0.051693 0.495219 0.693356 0.048207
C79   C     C_R   0.087334 0.587723 0.787454 -0.084636
C80   C     C_R   0.220308 0.759209 0.313135 -0.104081
C81   C     C_R   0.780763 0.260593 0.690665 -0.115039
C82   C     C_R   0.004193 0.199265 0.909159 -0.201897
C83   C     C_R   0.929732 0.744936 0.028379 -0.180949
C84   C     C_R   0.942086 0.136172 0.936662 0.005994
C85   C     C_R   0.951688 0.782484 0.964114 -0.010700
C86   C     C_3   0.251048 0.127871 0.807123 -1.032617
C87   C     C_3   0.575840 0.812958 0.071639 -1.076466
C88   C     C_3   0.339573 0.940482 0.640360 -1.036933
C89   C     C_R   0.918246 0.857379 0.848462 -0.169714
C90   C     C_3   0.639383 0.072106 0.342024 -1.012519
H1    H     H_    0.898490 0.889817 0.513726 0.133410
H2    H     H_    0.413854 0.915988 0.847049 0.158235
H3    H     H_    0.879053 0.343472 0.502944 0.139689
H4    H     H_    0.135853 0.643359 0.498699 0.134493
H5    H     H_    0.822202 0.859569 0.628986 0.132308
H6    H     H_    0.005855 0.998555 0.214730 0.136460
H7    H     H_    0.432173 0.390021 0.132802 0.170131
H8    H     H_    0.595291 0.609705 0.999045 0.164607
H9    H     H_    0.374604 0.814342 0.206131 0.110730
H10   H     H_    0.620521 0.216468 0.794522 0.112799
H11   H     H_    0.142661 0.070893 0.907546 0.175155
H12   H     H_    0.936311 0.985394 0.339726 0.142184
H13   H     H_    0.678755 0.819186 0.953128 0.174708
H14   H     H_    0.985378 0.828615 0.401400 0.128129
H15   H     H_    0.991672 0.146021 0.536025 0.131990
H16   H     H_    0.041047 0.895983 0.292105 0.133379
H17   H     H_    0.959583 0.121636 0.676774 0.134573
H18   H     H_    0.233209 0.990486 0.343175 0.143459
H19   H     H_    0.775377 0.049602 0.654084 0.149812
H20   H     H_    0.123638 0.851030 0.562062 0.150696
H21   H     H_    0.843531 0.120494 0.382292 0.148336
H22   H     H_    0.473154 0.158222 0.616198 0.141388
H23   H     H_    0.546918 0.050475 0.059465 0.145007
H24   H     H_    0.524269 0.872127 0.383895 0.133062
H25   H     H_    0.928604 0.798613 0.792141 0.161390
H26   H     H_    0.893698 0.068721 0.059072 0.160356
H27   H     H_    0.383945 0.427587 0.878798 0.147746
H28   H     H_    0.649210 0.571489 0.253204 0.120937
H29   H     H_    0.471581 0.312268 0.954377 0.155491
H30   H     H_    0.560496 0.686869 0.181160 0.120137
H31   H     H_    0.206840 0.325271 0.934955 0.107080
H32   H     H_    0.814405 0.673220 0.151241 0.105103
H33   H     H_    0.036397 0.671383 0.363830 0.116958
H34   H     H_    0.535306 0.838104 0.869873 0.154454
H35   H     H_    0.972407 0.323558 0.644506 0.124260
H36   H     H_    0.380607 0.674531 0.099276 0.098601
H37   H     H_    0.642932 0.324752 0.971408 0.122769
H38   H     H_    0.888504 0.322748 0.188337 0.155932
H39   H     H_    0.140323 0.669665 0.812327 0.164981
H40   H     H_    0.197463 0.764612 0.373885 0.121423
H41   H     H_    0.803202 0.259546 0.630054 0.123767
H42   H     H_    0.035197 0.175670 0.855771 0.118754
H43   H     H_    0.869836 0.743049 0.053167 0.145436
H44   H     H_    0.091382 0.027136 0.597946 0.146014
H45   H     H_    0.706424 0.388594 0.303587 0.149044
H46   H     H_    0.739024 0.892364 0.273236 0.129062
H47   H     H_    0.273001 0.135441 0.746038 0.252665
H48   H     H_    0.273844 0.209634 0.869219 0.249024
H49   H     H_    0.298080 0.096253 0.846133 0.286709
H50   H     H_    0.557366 0.818436 0.137751 0.241124
H51   H     H_    0.553082 0.865607 0.045514 0.258755
H52   H     H_    0.524943 0.727858 0.003002 0.286455
H53   H     H_    0.425368 0.994495 0.666974 0.270344
H54   H     H_    0.326844 0.971013 0.710762 0.260550
H55   H     H_    0.326456 0.857033 0.615633 0.259624
H56   H     H_    0.260225 0.515586 0.651877 0.148988
H57   H     H_    0.560135 0.047983 0.340184 0.265325
H58   H     H_    0.669264 0.154110 0.352092 0.267121
H59   H     H_    0.624860 0.013000 0.263168 0.260417
H60   H     H_    0.883532 0.213087 0.294327 0.129859
H61   H     H_    0.216093 0.795458 0.720743 0.154034
H62   H     H_    0.719197 0.048632 0.134059 0.161709
N1    N     N_R   0.947560 0.293820 0.002910 -0.062988
N2    N     N_R   0.789450 0.443190 0.997090 -0.038023
N3    N     N_R   0.945970 0.443180 0.152110 -0.040089
N4    N     N_R   0.054030 0.556820 0.847890 -0.046323
N5    N     N_R   0.151530 0.706170 0.208880 -0.044526
N6    N     N_R   0.848470 0.293830 0.791120 -0.047173
N7    N     N_R   0.004980 0.293810 0.946140 -0.053965
N8    N     N_R   0.995020 0.706190 0.053860 -0.060645
N9    N     N_R   0.052440 0.706180 0.997090 -0.065209
N10   N     N_R   0.208960 0.706170 0.152110 -0.039253
N11   N     N_R   0.791040 0.293830 0.847890 -0.031608
N12   N     N_R   0.154330 0.443160 0.946140 -0.041941
N13   N     N_R   0.845670 0.556840 0.053860 -0.039848
N14   N     N_R   0.002190 0.556820 0.208880 -0.041528
N15   N     N_R   0.997810 0.443180 0.791120 -0.043420
N16   N     N_R   0.210550 0.556810 0.002910 -0.040644
Ni1   Ni    Ni4+2 0.869690 0.369690 0.000000 0.262845
Ni2   Ni    Ni4+2 0.130310 0.630310 0.000000 0.252519
Ni3   Ni    Ni4+2 0.001390 0.369680 0.869810 0.210305
Ni4   Ni    Ni4+2 0.998610 0.630320 0.130190 0.214878

loop_
_geom_bond_atom_site_label_1
_geom_bond_atom_site_label_2
_ccdc_geom_bond_type
C40   C45   A    
N12   Ni3   S    
C41   C56   A    
C22   C28   A    
C77   N3    A    
N3    N14   A    
C74   H8    S    
C15   H61   S    
C11   C14   A    
C73   H7    S    
C43   C46   A    
N7    Ni3   S    
C38   C54   S    
C26   C67   S    
C60   H11   S    
C35   C37   A    
C16   H9    S    
N14   Ni4   S    
C80   H40   S    
C63   C84   S    
C70   C72   S    
Br1   C1    S    
C9    H45   S    
N8    N9    A    
C21   H34   S    
C72   C74   S    
C33   C36   A    
C29   C60   A    
C40   N12   A    
C33   C47   A    
C82   C84   A    
C7    C9    A    
C42   C88   S    
C90   H58   S    
C57   H46   S    
C7    C20   A    
C30   C58   S    
C19   H2    S    
C31   C55   A    
C46   H21   S    
C38   C42   A    
C3    C55   A    
C68   C74   S    
C65   C78   A    
C17   H10   S    
C64   N14   A    
C66   H29   S    
N4    N15   A    
C44   C47   A    
C34   C51   S    
C52   C54   A    
C47   H14   S    
C70   C73   S    
C46   C48   A    
C69   C74   S    
C45   C71   S    
C31   C60   A    
C90   H59   S    
C65   H35   S    
Br4   C8    S    
Br2   C12   S    
C41   H32   S    
N5    N10   A    
C14   H60   S    
C49   H22   S    
C4    C57   A    
N11   Ni1   S    
C35   H17   S    
C35   C48   A    
C12   C85   A    
C5    H5    S    
C76   H37   S    
C14   C18   A    
C68   H30   S    
C88   H53   S    
C5    C29   A    
C81   N6    A    
C37   C39   A    
C10   C13   A    
C83   H43   S    
C68   C71   S    
C30   C61   A    
C2    H26   S    
N16   Ni2   S    
C62   C85   S    
C50   C52   A    
C49   C51   A    
C42   C44   A    
C40   H31   S    
N10   Ni2   S    
C17   C34   A    
C34   C81   A    
C11   C28   S    
C68   C70   S    
N5    Ni4   S    
C58   C62   A    
C23   C52   S    
C77   H38   S    
C18   H62   S    
N6    Ni3   S    
C55   H44   S    
N9    Ni2   S    
C75   H36   S    
N15   Ni3   S    
C56   C72   S    
C79   N4    A    
C4    H12   S    
C75   N16   A    
C15   C19   A    
C59   C63   A    
N2    Ni1   S    
C76   N2    A    
C12   N9    A    
C29   C59   S    
C83   N8    A    
C10   H56   S    
C66   C69   S    
C20   H23   S    
C6    C30   A    
C6    H6    S    
C71   C73   S    
C64   H33   S    
C33   H16   S    
C86   H48   S    
C81   H41   S    
C62   C89   A    
C32   C87   S    
C82   H42   S    
C2    C63   A    
C70   H28   S    
C8    C10   A    
C1    N1    A    
C51   C53   A    
C66   C72   S    
C13   C27   S    
C18   C20   A    
C69   C71   S    
C32   C57   A    
C50   H24   S    
C87   H51   S    
C3    H1    S    
C44   H20   S    
C87   H50   S    
C24   H4    S    
C3    C5    A    
C23   C80   A    
N1    N7    A    
C56   C76   A    
C32   C61   A    
N4    Ni2   S    
C24   C27   A    
C86   H49   S    
C37   H19   S    
C41   N13   A    
C49   C54   A    
N2    N13   A    
C16   C23   A    
C16   N10   A    
C59   C89   A    
C69   H27   S    
C17   N11   A    
C8    C21   A    
C2    C58   A    
C9    C11   A    
C90   H57   S    
C25   C78   S    
C25   C27   A    
C26   C28   A    
C88   H54   S    
C36   H18   S    
C48   H15   S    
C64   C67   A    
C36   C38   A    
C13   C15   A    
N13   Ni4   S    
C24   C26   A    
N8    Ni4   S    
C19   C21   A    
C65   N15   A    
C79   H39   S    
C86   H47   S    
Br3   C7    S    
C39   C53   S    
C22   H3    S    
N6    N11   A    
C31   C86   S    
C45   C75   A    
N12   N16   A    
C22   C25   A    
C4    C6    A    
C78   C79   A    
N3    Ni1   S    
C88   H55   S    
C1    C84   A    
C83   C85   A    
C82   N7    A    
C89   H25   S    
C67   C77   A    
C39   C43   A    
C61   H13   S    
C87   H52   S    
C43   C90   S    
C80   N5    A    
N1    Ni1   S    
C66   C73   S    
C50   C53   A    
