data_mof_unit_795.cif
_audit_creation_date              2013-03-05T16:11:29-0500
_audit_creation_method            fapswitch 2.2
_symmetry_space_group_name_H-M    P1
_symmetry_Int_Tables_number       1
_space_group_crystal_system       triclinic
_cell_length_a                    9.638877
_cell_length_b                    11.223768
_cell_length_c                    17.382473
_cell_angle_alpha                 91.451346
_cell_angle_beta                  86.911047
_cell_angle_gamma                 89.540609
_cell_volume                      1877.09691615

loop_
_atom_site_label
_atom_site_type_symbol
_atom_site_description
_atom_site_fract_x
_atom_site_fract_y
_atom_site_fract_z
_atom_type_partial_charge
O1    O     O_R   0.379740 0.682430 0.499960 -0.477580
O2    O     O_R   0.620260 0.682190 0.500020 -0.526146
C1    C     C_R   0.499631 0.738526 0.499376 0.918484
O3    O     O_R   0.365800 0.500150 0.613560 -0.560153
O4    O     O_R   0.606310 0.499910 0.613620 -0.593842
C2    C     C_R   0.483184 0.501730 0.650052 0.793073
Cu1   Cu    Cu3+1 0.357600 0.500140 0.499960 1.084394
Cu2   Cu    Cu3+1 0.642400 0.499860 0.500040 1.049951
O5    O     O_R   0.379740 0.317810 0.499980 -0.506746
O6    O     O_R   0.620260 0.317570 0.500040 -0.585452
O7    O     O_R   0.393690 0.500090 0.386380 -0.578577
O8    O     O_R   0.634200 0.499850 0.386440 -0.508627
C3    C     C_R   0.501148 0.259179 0.499007 0.797368
C4    C     C_R   0.517099 0.499960 0.350719 0.900350
C5    C     C_R   0.483536 0.502906 0.736142 -0.244292
C6    C     C_R   0.597107 0.557650 0.772597 0.013576
C7    C     C_R   0.622083 0.531188 0.849615 -0.047486
C8    C     C_R   0.530525 0.456864 0.891567 -0.018229
C9    C     C_R   0.411421 0.410179 0.857963 0.504315
C10   C     C_R   0.387067 0.434470 0.780739 -0.114263
C11   C     C_R   0.401793 0.491073 0.147409 0.467753
C12   C     C_R   0.401993 0.480004 0.227230 -0.269820
C13   C     C_R   0.643558 0.538593 0.225667 -0.045775
C14   C     C_R   0.645654 0.551456 0.145787 -0.124828
C15   C     C_R   0.523530 0.526999 0.106927 -0.114888
C16   C     C_2   0.549243 0.443133 0.974526 0.277211
C17   C     C_2   0.519444 0.537812 0.022897 0.302253
C18   C     C_R   0.522134 0.504190 0.266576 -0.095776
H1    H     H_    0.307654 0.453286 0.258446 0.187612
H2    H     H_    0.735346 0.559455 0.256342 0.244877
C19   C     C_3   0.365798 0.923977 0.462304 0.035851
H3    H     H_    0.368138 0.887976 0.402803 0.189270
C20   C     C_3   0.367806 0.064155 0.461160 0.272178
C21   C     C_3   0.509340 0.928578 0.586422 0.314251
C22   C     C_3   0.625910 0.917424 0.441409 0.241140
C23   C     C_3   0.499949 0.874793 0.499341 -0.270786
C24   C     C_3   0.505065 0.118098 0.499806 -0.271087
C25   C     C_3   0.501155 0.074103 0.588422 -0.168268
C26   C     C_3   0.642986 0.059548 0.450907 -0.157895
C27   C     C_3   0.916178 0.377516 0.510686 0.183835
C28   C     C_3   0.084465 0.373652 0.501398 0.247163
H4    H     H_    0.144252 0.521913 0.376314 0.121696
C29   C     C_3   0.926126 0.547138 0.423644 0.717965
C30   C     C_3   0.912514 0.582844 0.558007 -0.348939
N1    N     N_3   0.856560 0.499750 0.498270 -0.232108
H5    H     H_    0.894584 0.677496 0.544038 0.240186
H6    H     H_    0.853542 0.578374 0.613127 0.214376
N2    N     N_3   0.143860 0.496700 0.498910 -0.187436
C31   C     C_3   0.091879 0.558850 0.429755 0.191760
C32   C     C_3   0.073868 0.562107 0.567813 0.399605
H7    H     H_    0.081883 0.508740 0.619985 0.139067
C33   C     C_2   0.687262 0.644219 0.729712 0.502435
H8    H     H_    0.648596 0.688792 0.680936 0.113790
O9    O     O_2   0.807197 0.663014 0.745390 -0.523807
C34   C     C_2   0.774469 0.592303 0.104220 0.448661
H9    H     H_    0.774597 0.612926 0.043875 0.092961
O10   O     O_2   0.882448 0.604124 0.137198 -0.503375
O11   O     O_3   0.235948 0.877814 0.487071 -0.597450
H10   H     H_    0.228314 0.870462 0.542839 0.353577
C35   C     C_2   0.356000 0.102808 0.378465 0.425500
H11   H     H_    0.400619 0.184977 0.359242 0.162451
O12   O     O_2   0.280719 0.050424 0.334699 -0.520643
O13   O     O_3   0.246676 0.110032 0.499263 -0.737903
H12   H     H_    0.214350 0.061782 0.543212 0.339151
C36   C     C_2   0.396169 0.871251 0.639406 0.372832
H13   H     H_    0.295855 0.912627 0.652609 0.124029
O14   O     O_2   0.414189 0.773263 0.666172 -0.570048
C37   C     C_2   0.377085 0.126233 0.637237 0.178369
H14   H     H_    0.320699 0.201678 0.617915 0.190134
O15   O     O_2   0.353447 0.098425 0.704270 -0.442471
O16   O     O_3   0.754216 0.859418 0.452481 -0.617958
H15   H     H_    0.769091 0.846713 0.507035 0.422873
C38   C     C_2   0.600084 0.876938 0.357932 0.347600
H16   H     H_    0.546022 0.933554 0.319485 0.052481
O17   O     O_2   0.634073 0.777185 0.333863 -0.504542
C39   C     C_2   0.670832 0.115040 0.371222 0.183157
H17   H     H_    0.736624 0.067195 0.327899 0.139725
O18   O     O_2   0.635075 0.215750 0.356095 -0.563582
C40   C     C_2   0.785063 0.076939 0.485755 0.511147
H18   H     H_    0.875057 0.094114 0.447528 0.136073
O19   O     O_2   0.812630 0.043207 0.549118 -0.532844
O20   O     O_3   0.638031 0.891209 0.612850 -0.687029
H19   H     H_    0.634335 0.890598 0.670010 0.389794
C41   C     C_2   0.611556 0.136747 0.634405 0.617681
H20   H     H_    0.631158 0.229693 0.625201 0.021118
O21   O     O_2   0.662628 0.093002 0.690062 -0.452027
O22   O     O_3   0.867977 0.296182 0.456182 -0.845716
H21   H     H_    0.804117 0.332071 0.421406 0.437959
C42   C     C_2   0.866879 0.328091 0.588994 0.495884
H22   H     H_    0.865408 0.233353 0.595009 0.122828
O23   O     O_2   0.844701 0.387945 0.647830 -0.568369
O24   O     O_3   0.138317 0.318486 0.565522 -0.730775
H23   H     H_    0.097624 0.238329 0.570649 0.328176
C43   C     C_2   0.130088 0.297524 0.429462 0.471546
H24   H     H_    0.086584 0.209582 0.421678 0.166566
O25   O     O_2   0.213030 0.330625 0.379533 -0.604563
O26   O     O_3   0.896878 0.477228 0.357610 -0.757506
H25   H     H_    0.971654 0.418489 0.344098 0.307069
O27   O     O_3   0.139479 0.670625 0.582494 -0.624708
H26   H     H_    0.101257 0.701514 0.633413 0.327033
O28   O     O_3   0.869838 0.660162 0.410831 -0.592066
H27   H     H_    0.900864 0.683951 0.358010 0.365883
O29   O     O_3   0.129816 0.679550 0.432323 -0.579835
H28   H     H_    0.139189 0.707926 0.378603 0.334257
O30   O     O_3   0.473404 0.643482 0.993207 -0.673419
H29   H     H_    0.455445 0.701716 0.036556 0.362178
O31   O     O_3   0.312564 0.345145 0.899486 -0.626617
H30   H     H_    0.341442 0.330199 0.952038 0.376752
O32   O     O_3   0.284114 0.468022 0.107620 -0.679458
H31   H     H_    0.207843 0.444261 0.144510 0.348226
C44   C     C_2   0.255486 0.392804 0.749211 0.527318
H32   H     H_    0.199680 0.449462 0.712615 0.078295
O33   O     O_2   0.204830 0.297247 0.766667 -0.411208
O34   O     O_3   0.593036 0.332422 0.998001 -0.694533
H33   H     H_    0.609315 0.334569 0.053687 0.340654
C45   C     C_2   0.742572 0.581675 0.888715 0.508930
H34   H     H_    0.815165 0.522316 0.914605 0.065421
O35   O     O_2   0.756380 0.689363 0.896122 -0.448624

loop_
_geom_bond_atom_site_label_1
_geom_bond_atom_site_label_2
_geom_bond_distance
_ccdc_geom_bond_type
C34   H9    1.079834 S    
O28   H27   0.993910 S    
C12   H1    1.081976 S    
C38   H16   1.084292 S    
C44   H32   1.072505 S    
C8    C16   1.474666 S    
O22   H21   0.977251 S    
C16   O34   1.387286 S    
O26   H25   0.987725 S    
Cu1   Cu2   2.745205 S    
C30   N1    1.502765 S    
C14   C34   1.484286 S    
Cu1   O7    1.986152 S    
C32   O27   1.400908 S    
C27   O22   1.399011 S    
C39   O18   1.218272 D    
O4    C2    1.314492 A    
O7    C4    1.311362 A    
C17   O30   1.384617 S    
C5    C6    1.429425 A    
C45   H34   1.085194 S    
C35   O12   1.222565 D    
C8    C9    1.414255 A    
O5    C3    1.337061 A    
Cu2   N1    2.062823 S    
O1    Cu1   2.058781 S    
C2    C5    1.496373 S    
C41   H20   1.076070 S    
C22   C38   1.543152 S    
C19   H3    1.099837 S    
C33   O9    1.220718 D    
C37   H14   1.073277 S    
C36   O14   1.219734 D    
O31   H30   0.987163 S    
C19   C20   1.574215 S    
C27   C42   1.535946 S    
C42   O23   1.217491 D    
C3    C24   1.584038 S    
C30   H6    1.089860 S    
C20   O13   1.398832 S    
N2    C32   1.512936 S    
C22   O16   1.417553 S    
C12   C18   1.401245 A    
C11   C12   1.396273 A    
C38   O17   1.221275 D    
C5    C10   1.421095 A    
O3    Cu1   1.980480 S    
C21   C36   1.544397 S    
C30   H5    1.109984 S    
C7    C8    1.407031 A    
C27   N1    1.508206 S    
C13   H2    1.081540 S    
C29   O26   1.416156 S    
C14   C15   1.413778 A    
O3    C2    1.326632 A    
C40   O19   1.215757 D    
C29   C31   1.613092 S    
O11   H10   0.973847 S    
C13   C18   1.398584 A    
C20   C24   1.629792 S    
O13   H12   0.985898 S    
C35   H11   1.074062 S    
O1    C1    1.320106 A    
C22   C23   1.618346 S    
C26   C40   1.538889 S    
C22   C26   1.610187 S    
C29   O28   1.403385 S    
C24   C25   1.628049 S    
C10   C44   1.482917 S    
C28   C43   1.538697 S    
Cu2   O8    1.980477 S    
C32   H7    1.105221 S    
C16   C17   1.357390 D    
C44   O33   1.220520 D    
C26   C39   1.544282 S    
C39   H17   1.086387 S    
C43   O25   1.215215 D    
C29   N1    1.536924 S    
Cu2   O6    2.058781 S    
N2    C31   1.511428 S    
C25   C37   1.531923 S    
C36   H13   1.080154 S    
C20   C35   1.521795 S    
C34   O10   1.221520 D    
C33   H8    1.077293 S    
C19   O11   1.408532 S    
C30   C32   1.589610 S    
Cu1   O5    2.055835 S    
C11   C15   1.402717 A    
C27   C28   1.621557 S    
C13   C14   1.398709 A    
C25   C41   1.529972 S    
C21   C25   1.634006 S    
O2    Cu2   2.055836 S    
C6    C33   1.495101 S    
O8    C4    1.317230 A    
O6    C3    1.327275 A    
C31   O29   1.406260 S    
O4    Cu2   1.986154 S    
C11   O32   1.382779 S    
O34   H33   0.988626 S    
C15   C17   1.471349 S    
O30   H29   0.992032 S    
O27   H26   0.993274 S    
Cu1   N2    2.061940 S    
C9    C10   1.408124 A    
O2    C1    1.319785 A    
O16   H15   0.980478 S    
C24   C26   1.660592 S    
O32   H31   0.991854 S    
C6    C7    1.411461 A    
C1    C23   1.529479 S    
O24   H23   0.988502 S    
C28   N2    1.500000 S    
C45   O35   1.221345 D    
C21   C23   1.622717 S    
C43   H24   1.083695 S    
H4    C31   1.102833 S    
C40   H18   1.085445 S    
C28   O24   1.409740 S    
C37   O15   1.223923 D    
O20   H19   0.992486 S    
O29   H28   0.993979 S    
C19   C23   1.577188 S    
C41   O21   1.221019 D    
C21   O20   1.410123 S    
C4    C18   1.462788 S    
C42   H22   1.071208 S    
C7    C45   1.485913 S    
C9    O31   1.387598 S    
