data_mof_unit_660.cif
_audit_creation_date              2012-12-10T18:47:00-0500
_audit_creation_method            fapswitch 2.2
_symmetry_space_group_name_H-M    P1
_symmetry_Int_Tables_number       1
_space_group_crystal_system       triclinic
_cell_length_a                    10.723364
_cell_length_b                    9.870371
_cell_length_c                    15.011331
_cell_angle_alpha                 89.912597
_cell_angle_beta                  90.910745
_cell_angle_gamma                 89.982049
_cell_volume                      1588.65036932

loop_
_atom_site_label
_atom_site_type_symbol
_atom_type_description
_atom_site_fract_x
_atom_site_fract_y
_atom_site_fract_z
_atom_type_partial_charge
C1    C     C_R   0.259951 0.500012 0.499912 0.881887
C2    C     C_R   0.740049 0.499988 0.500088 0.881887
C3    C     C_R   0.446211 0.739912 0.046622 -0.233185
C4    C     C_R   0.553782 0.260084 0.953378 -0.233184
C5    C     C_R   0.063839 0.376470 0.498211 -0.174163
C6    C     C_R   0.936161 0.623530 0.501789 -0.174164
C7    C     C_R   0.936149 0.376458 0.498217 -0.174800
C8    C     C_R   0.063851 0.623542 0.501783 -0.174800
C9    C     C_R   0.872556 0.499986 0.500055 -0.018187
C10   C     C_R   0.127443 0.500014 0.499945 -0.018187
C11   C     C_R   0.578739 0.071987 0.555651 -0.007493
C12   C     C_R   0.421261 0.928013 0.444349 -0.007492
C13   C     C_R   0.421513 0.072354 0.444173 -0.013798
C14   C     C_R   0.578486 0.927646 0.555827 -0.013798
C15   C     C_R   0.500058 0.500052 0.326684 0.903975
C16   C     C_R   0.499942 0.499948 0.673316 0.903975
C17   C     C_R   0.525155 0.380376 0.815319 -0.215872
C18   C     C_R   0.474841 0.619622 0.184681 -0.215873
C19   C     C_R   0.499509 0.500073 0.769145 -0.078664
C20   C     C_R   0.500490 0.499927 0.230854 -0.078665
C21   C     C_R   0.473506 0.620163 0.814249 -0.232503
C22   C     C_R   0.526493 0.379836 0.185750 -0.232502
C23   C     C_R   0.472695 0.622261 0.906884 0.063031
C24   C     C_R   0.527302 0.377738 0.093116 0.063031
C25   C     C_R   0.499718 0.500586 0.953588 0.048137
C26   C     C_R   0.500278 0.499412 0.046412 0.048137
C27   C     C_R   0.526213 0.379836 0.907370 0.100982
C28   C     C_R   0.473783 0.620161 0.092630 0.100982
C29   C     C_R   0.445525 0.742150 0.954012 -0.001008
C30   C     C_R   0.554469 0.257847 0.045988 -0.001008
H1    H     H_    0.545158 0.287582 0.779727 0.173049
H2    H     H_    0.454838 0.712415 0.220273 0.173050
H3    H     H_    0.453059 0.711543 0.776736 0.173808
H4    H     H_    0.546940 0.288457 0.223264 0.173808
H5    H     H_    0.424761 0.831723 0.082998 0.166994
H6    H     H_    0.575230 0.168272 0.917001 0.166991
H7    H     H_    0.112200 0.280122 0.496831 0.164943
H8    H     H_    0.887800 0.719878 0.503169 0.164943
H9    H     H_    0.887772 0.280116 0.496697 0.165151
H10   H     H_    0.112228 0.719884 0.503303 0.165151
N1    N     N_R   0.500000 0.857200 0.500000 -0.126770
N2    N     N_R   0.500000 0.142800 0.500000 -0.126770
O1    O     O_R   0.316770 0.614620 0.499990 -0.626301
O2    O     O_R   0.683230 0.385380 0.500010 -0.626300
O3    O     O_R   0.683230 0.614620 0.500010 -0.625698
O4    O     O_R   0.316770 0.385380 0.499990 -0.625698
O5    O     O_R   0.499980 0.614680 0.367850 -0.621521
O6    O     O_R   0.500020 0.385320 0.632150 -0.621521
O7    O     O_R   0.500020 0.614680 0.632150 -0.623220
O8    O     O_R   0.499980 0.385320 0.367850 -0.623220
Zn1   Zn    Zn3+2 0.500000 0.653120 0.500000 0.970306
Zn2   Zn    Zn3+2 0.500000 0.346880 0.500000 0.970306
C31   C     C_1   0.415808 0.868428 0.909487 0.157503
N3    N     N_1   0.391822 0.969349 0.873797 -0.213253
C32   C     C_1   0.584180 0.131566 0.090513 0.157503
N4    N     N_1   0.608160 0.030642 0.126203 -0.213255
C33   C     C_1   0.663168 0.145009 0.613932 0.214173
N5    N     N_1   0.731460 0.202645 0.660791 -0.216387
C34   C     C_1   0.336832 0.854991 0.386068 0.214173
N6    N     N_1   0.268540 0.797355 0.339209 -0.216388
C35   C     C_1   0.339087 0.145854 0.384508 0.223509
N7    N     N_1   0.272763 0.204005 0.336354 -0.204624
C36   C     C_1   0.660913 0.854146 0.615492 0.223509
N8    N     N_1   0.727236 0.795995 0.663646 -0.204624

loop_
_geom_bond_atom_site_label_1
_geom_bond_atom_site_label_2
_ccdc_geom_bond_type
O8    Zn2   S    
C32   N4    T    
C4    H6    S    
C12   N1    A    
C21   H3    S    
C5    H7    S    
C25   C27   A    
C3    H5    S    
C26   C28   A    
C15   O5    A    
O1    Zn1   S    
C7    C9    A    
C16   O6    A    
C6    C9    A    
C6    H8    S    
C20   C22   A    
C13   C35   S    
C34   N6    T    
C31   N3    T    
C16   O7    A    
C2    C9    S    
O2    Zn2   S    
C33   N5    T    
C15   C20   S    
C29   C31   S    
C14   N1    A    
C17   H1    S    
C14   C36   S    
C23   C29   A    
C5    C10   A    
C3    C28   A    
C19   C21   A    
N1    Zn1   S    
C24   C26   A    
C6    C8    A    
C18   C20   A    
C16   C19   S    
C2    O3    A    
C35   N7    T    
C22   H4    S    
C11   C14   A    
C22   C24   A    
C1    O4    A    
C24   C30   A    
C18   H2    S    
O3    Zn1   S    
C36   N8    T    
C17   C27   A    
O4    Zn2   S    
O6    Zn2   S    
C23   C25   A    
C18   C28   A    
C12   C13   A    
C11   N2    A    
C8    C10   A    
C30   C32   S    
C15   O8    A    
N2    Zn2   S    
C5    C7    A    
C7    H9    S    
C13   N2    A    
C3    C29   A    
O5    Zn1   S    
C4    C27   A    
C8    H10   S    
C17   C19   A    
C25   C26   A    
C11   C33   S    
C12   C34   S    
C21   C23   A    
C1    O1    A    
C4    C30   A    
C1    C10   S    
C2    O2    A    
O7    Zn1   S    
