data_mof_unit_751.cif
_audit_creation_date              2012-12-11T16:25:35-0500
_audit_creation_method            fapswitch 2.2
_symmetry_space_group_name_H-M    P1
_symmetry_Int_Tables_number       1
_space_group_crystal_system       triclinic
_cell_length_a                    19.862951
_cell_length_b                    7.266012
_cell_length_c                    13.985391
_cell_angle_alpha                 90.000018
_cell_angle_beta                  102.417891
_cell_angle_gamma                 90.0
_cell_volume                      1971.21283123

loop_
_atom_site_label
_atom_site_type_symbol
_atom_type_description
_atom_site_fract_x
_atom_site_fract_y
_atom_site_fract_z
_atom_type_partial_charge
O1    O     O_R   0.449520 0.506760 0.599710 -0.536823
O2    O     O_R   0.550480 0.006760 0.400290 -0.536823
O3    O     O_R   0.587930 0.180200 0.595790 -0.542304
O4    O     O_R   0.412070 0.680200 0.404210 -0.542304
C1    C     C_R   0.615938 0.343357 0.613324 0.685574
C2    C     C_R   0.384062 0.843357 0.386676 0.685574
O5    O     O_R   0.452350 0.177380 0.611700 -0.538461
O6    O     O_R   0.547650 0.677380 0.388300 -0.538462
O7    O     O_R   0.413930 0.001760 0.416320 -0.535592
O8    O     O_R   0.586070 0.501760 0.583680 -0.535592
C3    C     C_R   0.437141 0.346177 0.637676 0.676228
C4    C     C_R   0.562858 0.846177 0.362324 0.676229
O9    O     O_3   0.487550 0.337460 0.435880 -0.379652
O10   O     O_3   0.512450 0.837460 0.564120 -0.379652
V1    V     V_3+5 0.502310 0.064670 0.511900 1.458055
V2    V     V_3+5 0.497690 0.564670 0.488100 1.458055
C5    C     C_R   0.609275 0.930239 0.120172 -0.117161
C6    C     C_R   0.390725 0.430238 0.879828 -0.117161
H1    H     H_    0.516290 0.945178 0.173168 0.103071
H2    H     H_    0.483710 0.445178 0.826832 0.103071
H3    H     H_    0.693301 0.959627 0.997626 0.133858
H4    H     H_    0.306699 0.459624 0.002374 0.133858
H5    H     H_    0.583726 0.972296 0.046980 0.118630
H6    H     H_    0.416274 0.472295 0.953020 0.118630
C7    C     C_R   0.602162 0.857097 0.285909 -0.020135
C8    C     C_R   0.397838 0.357097 0.714090 -0.020135
C9    C     C_R   0.932337 0.800018 0.307944 -0.118875
C10   C     C_R   0.067663 0.300020 0.692056 -0.118875
C11   C     C_R   0.895814 0.763266 0.379887 -0.072517
C12   C     C_R   0.104186 0.263269 0.620112 -0.072517
C13   C     C_R   0.824191 0.775433 0.358818 -0.086778
C14   C     C_R   0.175809 0.275435 0.641181 -0.086780
C15   C     C_R   0.787132 0.827206 0.264241 0.118684
C16   C     C_R   0.212867 0.327206 0.735758 0.118686
C17   C     C_R   0.825002 0.863173 0.190662 0.081589
C18   C     C_R   0.174998 0.363173 0.809338 0.081589
C19   C     C_R   0.714060 0.848496 0.240742 0.119749
C20   C     C_R   0.285940 0.348496 0.759257 0.119749
C21   C     C_R   0.680608 0.899744 0.143915 0.171030
C22   C     C_R   0.319392 0.399743 0.856085 0.171031
C23   C     C_R   0.718607 0.923595 0.071882 -0.151558
C24   C     C_R   0.281392 0.423593 0.928118 -0.151558
C25   C     C_R   0.789722 0.907717 0.094929 -0.160837
C26   C     C_R   0.210278 0.407716 0.905071 -0.160837
C27   C     C_R   0.672931 0.823994 0.310374 -0.157305
C28   C     C_R   0.327069 0.323994 0.689626 -0.157306
C29   C     C_R   0.570595 0.913075 0.191498 -0.155834
C30   C     C_R   0.429405 0.413075 0.808502 -0.155834
C31   C     C_R   0.897667 0.851521 0.213997 -0.046276
C32   C     C_R   0.102333 0.351521 0.786003 -0.046276
H7    H     H_    0.694274 0.785114 0.385080 0.100474
H8    H     H_    0.305726 0.285113 0.614920 0.100475
H9    H     H_    0.987838 0.784383 0.324956 0.126401
H10   H     H_    0.012162 0.284385 0.675043 0.126401
H11   H     H_    0.799686 0.743497 0.418358 0.127840
H12   H     H_    0.200314 0.243502 0.581641 0.127840
H13   H     H_    0.923181 0.723299 0.452422 0.144426
H14   H     H_    0.076818 0.223303 0.547577 0.144426
H15   H     H_    0.816834 0.932620 0.036813 0.117716
H16   H     H_    0.183166 0.432617 0.963187 0.117716
H17   H     H_    0.090483 0.915964 0.461821 0.154732
H18   H     H_    0.909517 0.415961 0.538179 0.154732
C33   C     C_R   0.242442 0.870823 0.048672 -0.179250
C34   C     C_R   0.757558 0.370823 0.951328 -0.179249
C35   C     C_R   0.303536 0.872997 0.014214 0.217377
C36   C     C_R   0.696464 0.372998 0.985786 0.217377
C37   C     C_R   0.366910 0.858078 0.078571 -0.175168
C38   C     C_R   0.633090 0.358081 0.921429 -0.175167
C39   C     C_R   0.370422 0.847445 0.178394 -0.175659
C40   C     C_R   0.629578 0.347446 0.821606 -0.175659
C41   C     C_R   0.310150 0.852906 0.216311 0.081726
C42   C     C_R   0.689850 0.352907 0.783689 0.081726
C43   C     C_R   0.244445 0.861107 0.150324 0.019819
C44   C     C_R   0.755555 0.361107 0.849676 0.019819
C45   C     C_R   0.314992 0.847642 0.318479 -0.138326
C46   C     C_R   0.685008 0.347642 0.681521 -0.138327
C47   C     C_R   0.253713 0.847785 0.354722 0.009185
C48   C     C_R   0.746287 0.347785 0.645278 0.009185
C49   C     C_R   0.188952 0.883559 0.290192 0.055561
C50   C     C_R   0.811048 0.383558 0.709808 0.055561
C51   C     C_R   0.183034 0.868814 0.187135 -0.136622
C52   C     C_R   0.816966 0.368814 0.812865 -0.136622
C53   C     C_R   0.255169 0.813438 0.454616 -0.185420
C54   C     C_R   0.744831 0.313437 0.545384 -0.185419
C55   C     C_R   0.194466 0.821318 0.489465 0.200683
C56   C     C_R   0.805534 0.321316 0.510535 0.200683
C57   C     C_R   0.134269 0.885270 0.429876 -0.169922
C58   C     C_R   0.865731 0.385268 0.570124 -0.169922
C59   C     C_R   0.132704 0.931651 0.333159 0.070063
C60   C     C_R   0.867296 0.431649 0.666841 0.070063
H19   H     H_    0.194110 0.882050 0.995703 0.132733
H20   H     H_    0.805890 0.382050 0.004296 0.132733
H21   H     H_    0.413838 0.856474 0.051046 0.138691
H22   H     H_    0.586162 0.356476 0.948954 0.138691
H23   H     H_    0.420944 0.835742 0.225643 0.104176
H24   H     H_    0.579056 0.335744 0.774357 0.104176
H25   H     H_    0.302525 0.776710 0.505309 0.134329
H26   H     H_    0.697475 0.276709 0.494691 0.134329
O11   O     O_R   0.913760 0.203480 0.916370 -0.537913
O12   O     O_R   0.086240 0.703480 0.083630 -0.537913
O13   O     O_R   0.047590 0.535230 0.888250 -0.524925
O14   O     O_R   0.952410 0.035230 0.111750 -0.524925
C61   C     C_R   0.062633 0.367100 0.862011 0.690949
C62   C     C_R   0.937367 0.867101 0.137989 0.690950
O15   O     O_R   0.912020 0.532880 0.904260 -0.526455
O16   O     O_R   0.087980 0.032880 0.095740 -0.526455
O17   O     O_R   0.949590 0.708460 0.099750 -0.539816
O18   O     O_R   0.050410 0.208460 0.900250 -0.539816
C63   C     C_R   0.886191 0.366306 0.881630 0.698573
C64   C     C_R   0.113809 0.866306 0.118370 0.698572
O19   O     O_3   0.012370 0.375360 0.064120 -0.365743
O20   O     O_3   0.987630 0.875360 0.935880 -0.365743
V3    V     V_3+5 0.997700 0.648160 0.988110 1.520137
V4    V     V_3+5 0.002300 0.148160 0.011890 1.520136
I1    I     I_    0.303370 0.904932 0.865773 -0.432404
I2    I     I_    0.696630 0.404933 0.134227 -0.432405
I3    I     I_    0.192533 0.764293 0.634937 -0.416245
I4    I     I_    0.807467 0.264292 0.365063 -0.416245
I5    I     I_    0.069191 0.165295 0.291064 -0.388086
I6    I     I_    0.930809 0.665294 0.708936 -0.388086

loop_
_geom_bond_atom_site_label_1
_geom_bond_atom_site_label_2
_ccdc_geom_bond_type
C36   C38   A    
C33   C35   A    
O12   C64   A    
C9    C11   A    
O13   V3    S    
C40   H24   S    
O1    C3    A    
C42   C46   A    
O2    C4    A    
C31   C62   S    
O3    V1    S    
C2    C45   S    
C21   C23   A    
O5    C3    A    
C5    H5    S    
C36   I2    S    
O16   V4    S    
C27   H7    S    
C6    H6    S    
O15   V3    S    
C20   C22   A    
C46   C48   A    
O16   C64   A    
C56   C58   A    
C47   C53   A    
O11   C63   A    
C28   H8    S    
C5    C21   A    
O18   V4    S    
C39   C41   A    
C6    C22   A    
O17   V3    S    
H17   C57   S    
C10   C32   A    
C59   I5    S    
C35   C37   A    
C17   C31   A    
C13   C15   A    
C61   O18   A    
C17   C25   A    
C7    C29   A    
C16   C18   A    
C8    C30   A    
C55   C57   A    
C32   C61   S    
O6    V2    S    
C11   C13   A    
C35   I1    S    
C24   C26   A    
C2    O7    A    
C43   C51   A    
O20   V3    S    
C47   C49   A    
C41   C45   A    
C49   C59   A    
O12   V3    S    
C52   C63   S    
C42   C44   A    
C49   C51   A    
C10   H10   S    
O5    V1    S    
C33   C43   A    
C3    C8    S    
O3    C1    A    
H18   C58   S    
C15   C19   A    
C37   C39   A    
C14   C16   A    
O4    V2    S    
C55   I3    S    
O14   V4    S    
O6    C4    A    
H1    C29   S    
C56   I4    S    
O1    V2    S    
O14   C62   A    
O2    V1    S    
C45   C47   A    
C34   C36   A    
H2    C30   S    
H3    C23   S    
C50   C52   A    
C53   C55   A    
C58   C60   A    
C57   C59   A    
C18   C26   A    
O4    C2    A    
C34   H20   S    
C19   C27   A    
C7    C27   A    
O11   V4    S    
C18   C32   A    
C41   C43   A    
C44   C52   A    
O15   C63   A    
C16   C20   A    
C23   C25   A    
C5    C29   A    
C11   H13   S    
C39   H23   S    
C6    C30   A    
C9    H9    S    
C25   H15   S    
C4    C7    S    
C54   H26   S    
C1    C46   S    
C10   C12   A    
O7    V1    S    
C1    O8    A    
C19   C21   A    
O8    V2    S    
C12   C14   A    
H4    C24   S    
C26   H16   S    
C12   H14   S    
C22   C24   A    
C15   C17   A    
O19   V4    S    
C48   C50   A    
C50   C60   A    
C38   H22   S    
C20   C28   A    
C8    C28   A    
C48   C54   A    
C51   C64   S    
O13   C61   A    
C53   H25   S    
O9    V2    S    
C33   H19   S    
C37   H21   S    
C38   C40   A    
C34   C44   A    
O10   V1    S    
C54   C56   A    
C40   C42   A    
C13   H11   S    
C14   H12   S    
C62   O17   A    
C9    C31   A    
C60   I6    S    
