data_mof_unit_813.cif
_audit_creation_date              2012-12-11T14:49:48-0500
_audit_creation_method            fapswitch 2.2
_symmetry_space_group_name_H-M    P1
_symmetry_Int_Tables_number       1
_space_group_crystal_system       triclinic
_cell_length_a                    16.887308
_cell_length_b                    7.019415
_cell_length_c                    16.844491
_cell_angle_alpha                 89.997381
_cell_angle_beta                  100.650903
_cell_angle_gamma                 90.001034
_cell_volume                      1962.3289195

loop_
_atom_site_label
_atom_site_type_symbol
_atom_type_description
_atom_site_fract_x
_atom_site_fract_y
_atom_site_fract_z
_atom_type_partial_charge
O1    O     O_R   0.579510 0.506290 0.439030 -0.529269
O2    O     O_R   0.420490 0.006290 0.560970 -0.529921
O3    O     O_R   0.412540 0.170090 0.405290 -0.514488
O4    O     O_R   0.587460 0.670090 0.594710 -0.514424
C1    C     C_R   0.386214 0.345631 0.380903 0.672162
C2    C     C_R   0.613767 0.845627 0.619116 0.672982
O5    O     O_R   0.578390 0.176230 0.429330 -0.549463
O6    O     O_R   0.421610 0.676230 0.570670 -0.550505
O7    O     O_R   0.587530 0.011250 0.585190 -0.548383
O8    O     O_R   0.412470 0.511250 0.414810 -0.548400
C3    C     C_R   0.605348 0.343589 0.414155 0.701451
C4    C     C_R   0.394628 0.843553 0.585837 0.701083
O9    O     O_3   0.502800 0.340940 0.551110 -0.369485
O10   O     O_3   0.497200 0.840940 0.448890 -0.368718
V1    V     V_3+5 0.499480 0.064020 0.490520 1.420208
V2    V     V_3+5 0.500520 0.564020 0.509480 1.419402
C5    C     C_R   0.168595 0.925598 0.862236 -0.055841
C6    C     C_R   0.831707 0.426082 0.138154 -0.056894
C7    C     C_R   0.331499 0.839995 0.637050 -0.108097
C8    C     C_R   0.668717 0.340325 0.363251 -0.112295
C9    C     C_R   0.227491 0.654546 0.688199 -0.021956
C10   C     C_R   0.775309 0.158687 0.314580 -0.024310
C11   C     C_R   0.280899 0.679759 0.633870 -0.131947
C12   C     C_R   0.720133 0.181506 0.367326 -0.132871
C13   C     C_R   0.326889 0.980584 0.694729 -0.187602
C14   C     C_R   0.673698 0.481317 0.305888 -0.173464
C15   C     C_R   0.274374 0.959070 0.750212 0.145038
C16   C     C_R   0.726885 0.460735 0.251032 0.150570
C17   C     C_R   0.223667 0.796553 0.747598 0.067406
C18   C     C_R   0.778220 0.299132 0.254210 0.064504
C19   C     C_R   0.170326 0.783833 0.803602 -0.302665
C20   C     C_R   0.829904 0.283990 0.196659 -0.307371
C21   C     C_R   0.222539 0.081611 0.866040 0.210235
C22   C     C_R   0.778347 0.583105 0.134968 0.210209
C23   C     C_R   0.273724 0.097652 0.809618 -0.212718
C24   C     C_R   0.727364 0.599183 0.191539 -0.192441
H1    H     H_    0.127307 0.669289 0.800727 0.120942
H2    H     H_    0.870582 0.165550 0.197040 0.122425
H3    H     H_    0.313884 0.219035 0.812536 0.106358
H4    H     H_    0.687119 0.720415 0.188599 0.109237
H5    H     H_    0.284878 0.569884 0.589584 0.162006
H6    H     H_    0.716868 0.073302 0.412491 0.163795
H7    H     H_    0.366532 0.103120 0.698574 0.117896
H8    H     H_    0.633678 0.603220 0.301638 0.119201
C25   C     C_3   0.754624 0.748359 0.829154 -0.294673
C26   C     C_3   0.245400 0.248617 0.170849 -0.294932
H9    H     H_    0.785455 0.608204 0.831082 0.210118
H10   H     H_    0.214617 0.108391 0.168832 0.210349
H11   H     H_    0.742226 0.769362 0.890928 0.125870
H12   H     H_    0.257819 0.269977 0.109116 0.125934
C27   C     C_3   0.673095 0.742108 0.766536 0.361732
C28   C     C_3   0.326921 0.242361 0.233467 0.362094
C29   C     C_3   0.844522 0.846542 0.728877 0.114310
C30   C     C_3   0.155451 0.346300 0.271144 0.115455
C31   C     C_3   0.764996 0.096366 0.795590 -0.129226
C32   C     C_3   0.234901 0.596486 0.204524 -0.129320
C33   C     C_3   0.814083 0.906670 0.809826 -0.106976
C34   C     C_3   0.185880 0.406700 0.190218 -0.107137
H13   H     H_    0.805349 0.213431 0.783581 0.193723
H14   H     H_    0.194503 0.713422 0.216562 0.193594
C35   C     C_3   0.686011 0.861232 0.689552 0.023370
C36   C     C_3   0.313959 0.361253 0.310485 0.023015
C37   C     C_3   0.766672 0.795735 0.660015 0.359785
C38   C     C_3   0.233315 0.295496 0.339995 0.358430
C39   C     C_3   0.696706 0.074837 0.720232 -0.433624
C40   C     C_3   0.303191 0.574921 0.279880 -0.433604
H15   H     H_    0.638818 0.129581 0.733783 0.182046
H16   H     H_    0.361060 0.629855 0.266354 0.182294
H17   H     H_    0.709573 0.172264 0.672516 0.193912
H18   H     H_    0.290288 0.672192 0.327629 0.193793
O11   O     O_R   0.087500 0.266000 0.085220 -0.534419
O12   O     O_R   0.912500 0.766000 0.914780 -0.534535
O13   O     O_R   0.921600 0.589950 0.070670 -0.524721
O14   O     O_R   0.078400 0.089950 0.929330 -0.525076
C41   C     C_R   0.894265 0.423227 0.085730 0.744611
C42   C     C_R   0.105704 0.923187 0.914253 0.743839
O15   O     O_R   0.087460 0.596020 0.094710 -0.525447
O16   O     O_R   0.912540 0.096020 0.905290 -0.525460
O17   O     O_R   0.079520 0.760970 0.939020 -0.535726
O18   O     O_R   0.920480 0.260970 0.060980 -0.535826
C43   C     C_R   0.115500 0.425861 0.118391 0.687136
C44   C     C_R   0.884476 0.925861 0.881635 0.686988
O19   O     O_3   0.997180 0.425140 0.948910 -0.365370
O20   O     O_3   0.002820 0.925140 0.051090 -0.365202
V3    V     V_3+5 0.000520 0.702080 0.009480 1.520862
V4    V     V_3+5 0.999480 0.202080 0.990520 1.520444
N1    N     N_3   0.650987 0.541955 0.747108 -0.668279
H19   H     H_    0.655760 0.466404 0.801118 0.233335
H20   H     H_    0.589809 0.531462 0.721916 0.237634
N2    N     N_3   0.349080 0.042196 0.252815 -0.668144
H21   H     H_    0.344377 0.966820 0.198770 0.233197
H22   H     H_    0.410249 0.031763 0.278047 0.237883
N3    N     N_3   0.897189 0.676863 0.744725 -0.689632
H23   H     H_    0.950400 0.708291 0.785059 0.208111
H24   H     H_    0.916572 0.638025 0.691457 0.246770
N4    N     N_3   0.102832 0.176547 0.255236 -0.690452
H25   H     H_    0.049609 0.207966 0.214919 0.207483
H26   H     H_    0.083460 0.137520 0.308489 0.244235
N5    N     N_3   0.760959 0.588095 0.643703 -0.625749
H27   H     H_    0.801172 0.547814 0.606352 0.266869
H28   H     H_    0.775343 0.506594 0.696105 0.282492
N6    N     N_3   0.239092 0.087828 0.356232 -0.625885
H29   H     H_    0.198886 0.047355 0.393561 0.267051
H30   H     H_    0.224734 0.006437 0.303799 0.282442
C45   C     C_2   0.732852 0.158309 0.870107 0.308788
H31   H     H_    0.684017 0.082762 0.889600 0.111649
O21   O     O_2   0.762221 0.294796 0.909920 -0.557452
C46   C     C_2   0.267044 0.658704 0.130040 0.309059
H32   H     H_    0.315955 0.583422 0.110570 0.111549
O22   O     O_2   0.237592 0.795119 0.090227 -0.557480
C47   C     C_2   0.897544 0.005832 0.703670 0.386019
H33   H     H_    0.962700 0.991612 0.717186 0.046114
O23   O     O_2   0.869631 0.152848 0.671265 -0.542307
C48   C     C_2   0.102379 0.505413 0.296401 0.386641
H34   H     H_    0.037227 0.491090 0.282876 0.044169
O24   O     O_2   0.130248 0.652404 0.328860 -0.542303
N7    N     N_3   0.773353 0.888063 0.582295 -0.616509
H35   H     H_    0.753024 0.028306 0.578659 0.239811
H36   H     H_    0.736723 0.817631 0.534294 0.237270
N8    N     N_3   0.226604 0.387611 0.417747 -0.610931
H37   H     H_    0.246898 0.527886 0.421440 0.240845
H38   H     H_    0.263249 0.317131 0.465725 0.236183
N9    N     N_3   0.226234 0.222366 0.928526 -0.652578
H39   H     H_    0.254125 0.157139 0.982137 0.225400
H40   H     H_    0.262983 0.336611 0.918688 0.215026
N10   N     N_3   0.774629 0.724236 0.072603 -0.650830
H41   H     H_    0.746202 0.659849 0.018995 0.223510
H42   H     H_    0.738396 0.839093 0.082896 0.216466
C49   C     C_2   0.179835 0.474749 0.683081 0.379948
H43   H     H_    0.151063 0.428313 0.732006 0.055632
O25   O     O_2   0.173224 0.372323 0.623588 -0.510618
C50   C     C_2   0.828026 0.986530 0.324524 0.390519
H44   H     H_    0.879210 0.973452 0.294747 0.053338
O26   O     O_2   0.815214 0.854828 0.367856 -0.520241
N11   N     N_3   0.608760 0.828999 0.803062 -0.722416
H45   H     H_    0.554694 0.830080 0.761116 0.204785
H46   H     H_    0.598937 0.746296 0.852020 0.226741
N12   N     N_3   0.391240 0.329488 0.196987 -0.722531
H47   H     H_    0.445304 0.330533 0.238935 0.204638
H48   H     H_    0.401083 0.246969 0.147988 0.226723

loop_
_geom_bond_atom_site_label_1
_geom_bond_atom_site_label_2
_ccdc_geom_bond_type
C40   H16   S    
N1    H19   S    
N3    H23   S    
C31   H13   S    
C15   C17   A    
C12   H6    S    
C28   N2    S    
C47   H33   S    
C27   C35   S    
C42   O17   A    
O2    C4    A    
C13   H7    S    
C2    O7    A    
O12   V3    S    
C14   H8    S    
N9    H39   S    
C38   N6    S    
C45   O21   D    
C25   C33   S    
C6    C41   S    
O14   C42   A    
C31   C45   S    
C2    C35   S    
O20   V4    S    
N7    H36   S    
C37   N7    S    
C32   C40   S    
N9    H40   S    
C25   C27   S    
C26   C28   S    
C46   H32   S    
C37   N5    S    
C35   C37   S    
N3    H24   S    
C32   C46   S    
C24   H4    S    
C36   C38   S    
C27   N11   S    
C8    C12   A    
C46   O22   D    
C50   H44   S    
C39   H15   S    
N4    H26   S    
C5    C42   S    
C28   N12   S    
O15   C43   A    
C41   O18   A    
C30   N4    S    
O19   V3    S    
C22   N10   S    
C29   C47   S    
O5    V1    S    
O15   V3    S    
O6    V2    S    
C26   C34   S    
O13   C41   A    
C5    C21   A    
C31   C39   S    
N8    H38   S    
C48   H34   S    
C25   H9    S    
C26   H10   S    
C3    C8    S    
C36   C40   S    
C29   N3    S    
N11   H45   S    
C16   C24   A    
O20   V3    S    
O4    C2    A    
C34   C43   S    
C27   N1    S    
C29   C33   S    
C7    C11   A    
C15   C23   A    
C9    C17   A    
C19   H1    S    
O4    V2    S    
C23   H3    S    
O11   V4    S    
O16   C44   A    
N2    H22   S    
N5    H27   S    
C25   H11   S    
O6    C4    A    
O13   V3    S    
N4    H25   S    
C47   O23   D    
O1    V2    S    
O14   V4    S    
N6    H30   S    
O2    V1    S    
C6    C22   A    
C9    C49   S    
N12   H48   S    
N5    H28   S    
C20   H2    S    
C9    C11   A    
C5    C19   A    
C10   C12   A    
C6    C20   A    
O17   V3    S    
O3    V1    S    
N8    H37   S    
C49   H43   S    
C30   C34   S    
N11   H46   S    
N10   H42   S    
C10   C18   A    
C10   C50   S    
O10   V1    S    
O3    C1    A    
C11   H5    S    
C48   O24   D    
C13   C15   A    
C45   H31   S    
C26   H12   S    
C14   C16   A    
C38   N8    S    
C31   C33   S    
O7    V1    S    
C1    O8    A    
C17   C19   A    
O8    V2    S    
N7    H35   S    
C18   C20   A    
C29   C37   S    
O16   V4    S    
N2    H21   S    
C40   H18   S    
C8    C14   A    
N10   H41   S    
C39   H17   S    
C30   C48   S    
C4    C7    S    
C16   C18   A    
C21   C23   A    
C32   C34   S    
C1    C36   S    
C22   C24   A    
N6    H29   S    
C7    C13   A    
N12   H47   S    
C35   C39   S    
O18   V4    S    
O19   V4    S    
C32   H14   S    
C30   C38   S    
C50   O26   D    
O9    V2    S    
C21   N9    S    
N1    H20   S    
C33   C44   S    
C28   C36   S    
O1    C3    A    
C49   O25   D    
O12   C44   A    
O5    C3    A    
O11   C43   A    
