data_mof_unit_1892.cif
_audit_creation_date              2013-03-05T16:04:55-0500
_audit_creation_method            fapswitch 2.2
_symmetry_space_group_name_H-M    P1
_symmetry_Int_Tables_number       1
_space_group_crystal_system       triclinic
_cell_length_a                    23.52084
_cell_length_b                    20.100155
_cell_length_c                    15.037251
_cell_angle_alpha                 88.749491
_cell_angle_beta                  99.879532
_cell_angle_gamma                 90.471172
_cell_volume                      7002.03415531

loop_
_atom_site_label
_atom_site_type_symbol
_atom_site_description
_atom_site_fract_x
_atom_site_fract_y
_atom_site_fract_z
_atom_type_partial_charge
O1    O     O_R   0.541320 0.066090 0.608930 -0.561510
O2    O     O_R   0.458680 0.933910 0.391070 -0.561565
O3    O     O_R   0.458680 0.066090 0.391070 -0.591910
O4    O     O_R   0.541320 0.933910 0.608930 -0.591863
O5    O     O_R   0.041320 0.566090 0.608930 -0.575198
O6    O     O_R   0.958680 0.433910 0.391070 -0.575071
O7    O     O_R   0.958680 0.566090 0.391070 -0.580189
O8    O     O_R   0.041320 0.433910 0.608930 -0.580013
O9    O     O_R   0.572880 0.066110 0.470280 -0.575272
O10   O     O_R   0.427120 0.933890 0.529720 -0.575316
O11   O     O_R   0.427120 0.066110 0.529720 -0.558528
O12   O     O_R   0.572880 0.933890 0.470280 -0.558565
O13   O     O_R   0.072880 0.566110 0.470280 -0.576192
O14   O     O_R   0.927120 0.433890 0.529720 -0.576166
O15   O     O_R   0.927120 0.566110 0.529720 -0.549982
O16   O     O_R   0.072880 0.433890 0.470280 -0.550017
C1    C     C_R   0.575520 0.087135 0.554282 0.855625
C2    C     C_R   0.424477 0.912868 0.445715 0.855532
C3    C     C_R   0.424073 0.086658 0.444687 0.859327
C4    C     C_R   0.575917 0.913328 0.555309 0.859374
C5    C     C_R   0.074548 0.588757 0.553269 0.852491
C6    C     C_R   0.925451 0.411242 0.446732 0.852719
C7    C     C_R   0.924390 0.587197 0.445026 0.862000
C8    C     C_R   0.075622 0.412824 0.554978 0.861903
Zn1   Zn    Zn3+2 0.478910 0.000000 0.592580 1.016893
Zn2   Zn    Zn3+2 0.521090 0.000000 0.407420 1.016864
Zn3   Zn    Zn3+2 0.978910 0.500000 0.592580 1.016266
Zn4   Zn    Zn3+2 0.021090 0.500000 0.407420 1.016209
C9    C     C_R   0.622340 0.866617 0.592625 -0.079387
C10   C     C_R   0.377602 0.133302 0.407354 -0.079275
C11   C     C_R   0.379488 0.864995 0.408350 -0.078149
C12   C     C_R   0.620502 0.135018 0.591636 -0.078096
C13   C     C_R   0.120740 0.363946 0.590710 -0.076708
C14   C     C_R   0.879316 0.636143 0.409311 -0.077196
C15   C     C_R   0.887600 0.353666 0.417846 -0.094112
C16   C     C_R   0.112402 0.646327 0.582167 -0.094085
C17   C     C_R   0.698757 0.826717 0.711177 -0.198834
C18   C     C_R   0.301060 0.172977 0.288851 -0.198814
C19   C     C_R   0.344758 0.769961 0.316946 -0.197819
C20   C     C_R   0.655206 0.230078 0.683001 -0.197798
C21   C     C_R   0.196299 0.320412 0.707728 -0.197160
C22   C     C_R   0.803934 0.679948 0.292208 -0.197106
C23   C     C_R   0.867222 0.248552 0.340888 -0.203233
C24   C     C_R   0.132797 0.751426 0.659160 -0.203259
C25   C     C_R   0.651841 0.869061 0.683122 0.090322
C26   C     C_R   0.348050 0.130741 0.316900 0.090124
C27   C     C_R   0.389292 0.814715 0.347824 0.148215
C28   C     C_R   0.610675 0.185325 0.652106 0.148235
C29   C     C_R   0.150763 0.364627 0.680926 0.068394
C30   C     C_R   0.849465 0.635719 0.318971 0.068345
C31   C     C_R   0.899252 0.307732 0.352579 0.142778
C32   C     C_R   0.100748 0.692260 0.647436 0.142810
C33   C     C_R   0.640792 0.821735 0.533618 0.134928
C34   C     C_R   0.359131 0.178193 0.466331 0.135039
C35   C     C_R   0.324245 0.871390 0.429891 0.087518
C36   C     C_R   0.675756 0.128606 0.570143 0.087580
C37   C     C_R   0.137289 0.318462 0.530428 0.142346
C38   C     C_R   0.862672 0.681487 0.469688 0.142567
C39   C     C_R   0.841512 0.340732 0.463668 0.062302
C40   C     C_R   0.158499 0.659252 0.536365 0.062273
C41   C     C_R   0.696606 0.794847 0.555839 0.050059
C42   C     C_R   0.303278 0.204989 0.444150 0.050083
C43   C     C_R   0.287582 0.815579 0.421302 0.047338
C44   C     C_R   0.712424 0.184413 0.578734 0.047326
C45   C     C_R   0.192192 0.288688 0.551689 0.048164
C46   C     C_R   0.807780 0.711276 0.448354 0.048031
C47   C     C_R   0.819951 0.275206 0.466959 0.042075
C48   C     C_R   0.180071 0.724773 0.533093 0.042085
C49   C     C_R   0.722097 0.789782 0.648065 0.067941
C50   C     C_R   0.277719 0.209930 0.351944 0.067928
C51   C     C_R   0.294503 0.768185 0.355495 0.064946
C52   C     C_R   0.705482 0.231829 0.644504 0.064931
C53   C     C_R   0.218245 0.282972 0.643849 0.069441
C54   C     C_R   0.781848 0.717178 0.356153 0.069444
C55   C     C_R   0.827976 0.231086 0.398189 0.070001
C56   C     C_R   0.172057 0.768885 0.601878 0.070003
C57   C     C_R   0.727470 0.772822 0.489217 0.017224
C58   C     C_R   0.272450 0.227066 0.510789 0.017234
C59   C     C_R   0.247324 0.802954 0.479968 0.017204
C60   C     C_R   0.752700 0.197023 0.520093 0.017206
C61   C     C_R   0.222287 0.265498 0.484479 0.018991
C62   C     C_R   0.777601 0.734340 0.515534 0.018955
C63   C     C_R   0.788027 0.254048 0.533981 0.020190
C64   C     C_R   0.211991 0.745935 0.466070 0.020184
C65   C     C_R   0.289004 0.208758 0.602490 -0.197359
C66   C     C_R   0.710994 0.791250 0.397542 -0.197362
C67   C     C_R   0.754879 0.158383 0.443507 -0.206933
C68   C     C_R   0.245167 0.841575 0.556579 -0.206945
C69   C     C_R   0.793757 0.716200 0.607516 -0.194312
C70   C     C_R   0.206034 0.283492 0.392466 -0.194276
C71   C     C_R   0.208636 0.711843 0.384567 -0.206151
C72   C     C_R   0.791365 0.288155 0.615470 -0.206144
C73   C     C_R   0.265256 0.239593 0.669559 0.192193
C74   C     C_R   0.734830 0.760550 0.330460 0.192273
C75   C     C_R   0.794643 0.172190 0.386195 0.192500
C76   C     C_R   0.205408 0.827766 0.613898 0.192499
C77   C     C_R   0.769373 0.746866 0.674330 0.187747
C78   C     C_R   0.230383 0.252758 0.325667 0.187702
C79   C     C_R   0.251102 0.720116 0.331045 0.200081
C80   C     C_R   0.748881 0.279899 0.668962 0.200071
H1    H     H_    0.718622 0.825570 0.781647 0.161117
H2    H     H_    0.281148 0.174033 0.218403 0.161124
H3    H     H_    0.351397 0.733725 0.267578 0.162552
H4    H     H_    0.648549 0.266335 0.732331 0.162552
H5    H     H_    0.216389 0.318319 0.778067 0.162087
H6    H     H_    0.783960 0.682220 0.221819 0.162040
H7    H     H_    0.874514 0.215391 0.288305 0.162375
H8    H     H_    0.125507 0.784583 0.711748 0.162373
H9    H     H_    0.321542 0.171276 0.622835 0.194584
H10   H     H_    0.678466 0.828747 0.377222 0.194574
H11   H     H_    0.725280 0.117571 0.426372 0.199493
H12   H     H_    0.274778 0.882375 0.573725 0.199454
H13   H     H_    0.825620 0.678209 0.628401 0.192970
H14   H     H_    0.174136 0.321436 0.371542 0.192839
H15   H     H_    0.174042 0.676784 0.364129 0.168513
H16   H     H_    0.825956 0.323216 0.635911 0.168519
N1    N     N_R   0.549130 0.000000 0.284090 -0.197301
N2    N     N_R   0.450870 0.000000 0.715910 -0.197307
N3    N     N_R   0.049130 0.500000 0.284090 -0.194631
N4    N     N_R   0.950870 0.500000 0.715910 -0.194596
C81   C     C_R   0.628098 0.986344 0.205351 -0.003146
C82   C     C_R   0.371912 0.013706 0.794655 -0.003154
C83   C     C_R   0.128604 0.496135 0.205172 -0.012892
C84   C     C_R   0.871389 0.503900 0.794813 -0.012905
C85   C     C_R   0.606683 0.994833 0.285205 0.639256
C86   C     C_R   0.393320 0.005197 0.714799 0.639226
C87   C     C_R   0.106647 0.494179 0.285468 0.621133
C88   C     C_R   0.893352 0.505834 0.714522 0.621023
C89   C     C_R   0.510141 0.997394 0.207867 0.542485
C90   C     C_R   0.489864 0.002602 0.792127 0.542508
C91   C     C_R   0.010152 0.498452 0.208103 0.553351
C92   C     C_R   0.989843 0.501552 0.791902 0.553508
C93   C     C_R   0.528687 0.997598 0.123879 -0.170469
C94   C     C_R   0.471323 0.002420 0.876120 -0.170487
C95   C     C_R   0.028537 0.496968 0.123978 -0.172512
C96   C     C_R   0.971451 0.503063 0.876019 -0.172554
C97   C     C_R   0.588431 0.987117 0.123507 0.001053
C98   C     C_R   0.411582 0.012921 0.876496 0.001050
C99   C     C_R   0.088959 0.502014 0.123607 0.001854
C100  C     C_R   0.911028 0.498029 0.876383 0.001904
C101  C     C_R   0.489985 0.005397 0.041090 0.132984
C102  C     C_R   0.510029 0.994626 0.958909 0.132967
C103  C     C_R   0.989535 0.493826 0.040980 0.130977
C104  C     C_R   0.010449 0.506217 0.959018 0.130953
C105  C     C_R   0.567554 0.974221 0.962262 -0.169766
C106  C     C_R   0.432464 0.025813 0.037741 -0.169716
C107  C     C_R   0.069340 0.522295 0.963052 -0.175570
C108  C     C_R   0.930640 0.477762 0.036942 -0.175579
C109  C     C_R   0.606599 0.974099 0.041994 -0.166627
C110  C     C_R   0.393419 0.025949 0.958010 -0.166627
C111  C     C_R   0.108220 0.515651 0.042456 -0.174480
C112  C     C_R   0.891762 0.484410 0.957534 -0.174543
H17   H     H_    0.650793 0.961256 0.038997 0.157104
H18   H     H_    0.349228 0.038807 0.961008 0.157099
H19   H     H_    0.153277 0.525026 0.039933 0.158874
H20   H     H_    0.846704 0.475046 0.960054 0.158889
H21   H     H_    0.583681 0.956587 0.904480 0.201587
H22   H     H_    0.416342 0.043448 0.095527 0.201521
H23   H     H_    0.087068 0.542092 0.906711 0.211360
H24   H     H_    0.912903 0.457973 0.093277 0.211395
C113  C     C_3   0.290448 0.224841 0.767212 -0.943731
H25   H     H_    0.326186 0.188292 0.774111 0.247190
H26   H     H_    0.308315 0.271133 0.800317 0.242328
H27   H     H_    0.256510 0.203949 0.802886 0.243135
C114  C     C_3   0.709724 0.775446 0.232810 -0.943784
H28   H     H_    0.673934 0.811925 0.225936 0.247216
H29   H     H_    0.743688 0.796486 0.197306 0.243103
H30   H     H_    0.691948 0.729185 0.199509 0.242330
C115  C     C_3   0.798241 0.125352 0.310253 -0.927929
H31   H     H_    0.768494 0.082305 0.310909 0.254131
H32   H     H_    0.786485 0.151962 0.244244 0.243362
H33   H     H_    0.842706 0.105470 0.316988 0.241647
C116  C     C_3   0.201833 0.874585 0.689869 -0.927930
H34   H     H_    0.231603 0.917614 0.689244 0.254142
H35   H     H_    0.157378 0.894494 0.683146 0.241647
H36   H     H_    0.213574 0.847949 0.755863 0.243361
C117  C     C_3   0.793218 0.731246 0.772224 -0.932823
H37   H     H_    0.828415 0.693940 0.779787 0.247057
H38   H     H_    0.811175 0.777136 0.806341 0.240417
H39   H     H_    0.758454 0.710700 0.806420 0.244101
C118  C     C_3   0.206443 0.268230 0.227767 -0.932692
H40   H     H_    0.171199 0.305479 0.220183 0.247007
H41   H     H_    0.241145 0.288785 0.193444 0.244102
H42   H     H_    0.188520 0.222275 0.193793 0.240413
C119  C     C_3   0.249573 0.676751 0.250092 -0.938743
H43   H     H_    0.209453 0.646429 0.237290 0.247671
H44   H     H_    0.250993 0.708283 0.188950 0.245862
H45   H     H_    0.286885 0.642300 0.261316 0.242490
C120  C     C_3   0.750386 0.323287 0.749887 -0.938704
H46   H     H_    0.790507 0.353607 0.762705 0.247676
H47   H     H_    0.713076 0.357741 0.738618 0.242485
H48   H     H_    0.748944 0.291772 0.811038 0.245867
C121  C     C_3   0.403461 0.208529 0.539727 -0.926469
H49   H     H_    0.388348 0.256290 0.562934 0.252447
H50   H     H_    0.414381 0.174059 0.598647 0.260488
H51   H     H_    0.443191 0.220559 0.511914 0.225896
C122  C     C_3   0.596466 0.791487 0.460139 -0.926408
H52   H     H_    0.585592 0.826003 0.401260 0.260497
H53   H     H_    0.611557 0.743734 0.436876 0.252410
H54   H     H_    0.556713 0.779467 0.487898 0.225910
C123  C     C_3   0.700387 0.059585 0.566555 -0.872985
H55   H     H_    0.681140 0.034823 0.504082 0.315009
H56   H     H_    0.748043 0.060680 0.571600 0.243248
H57   H     H_    0.690970 0.028922 0.624645 0.229016
C124  C     C_3   0.299608 0.940404 0.433521 -0.872931
H58   H     H_    0.251954 0.939300 0.428501 0.243255
H59   H     H_    0.318864 0.965151 0.495998 0.315037
H60   H     H_    0.309008 0.971084 0.375437 0.229017
C125  C     C_3   0.908117 0.708004 0.544785 -0.923541
H61   H     H_    0.895818 0.757159 0.567728 0.250262
H62   H     H_    0.915571 0.672768 0.603237 0.254763
H63   H     H_    0.949493 0.715825 0.519715 0.229199
C126  C     C_3   0.091771 0.291871 0.455499 -0.923824
H64   H     H_    0.084262 0.327048 0.396988 0.254653
H65   H     H_    0.104034 0.242682 0.432619 0.250335
H66   H     H_    0.050433 0.284102 0.480703 0.229285
C127  C     C_3   0.193243 0.600951 0.512477 -0.793982
H67   H     H_    0.176241 0.583749 0.443875 0.296518
H68   H     H_    0.239471 0.614575 0.516611 0.233513
H69   H     H_    0.191723 0.558673 0.560915 0.233759
C128  C     C_3   0.806762 0.399031 0.487549 -0.793966
H70   H     H_    0.760535 0.385400 0.483415 0.233504
H71   H     H_    0.823762 0.416239 0.556148 0.296510
H72   H     H_    0.808277 0.441306 0.439107 0.233780
C129  C     C_3   0.365781 0.084986 0.248889 -0.781755
H73   H     H_    0.408968 0.100164 0.235288 0.267149
H74   H     H_    0.366500 0.032841 0.274833 0.276144
H75   H     H_    0.335397 0.086957 0.183602 0.206850
C130  C     C_3   0.634135 0.914804 0.751171 -0.781891
H76   H     H_    0.633505 0.966965 0.725306 0.276146
H77   H     H_    0.590913 0.899695 0.764696 0.267143
H78   H     H_    0.664485 0.912739 0.816488 0.206807
C131  C     C_3   0.554398 0.191874 0.686153 -0.842212
H79   H     H_    0.518442 0.193713 0.628322 0.228821
H80   H     H_    0.548415 0.149195 0.731734 0.292268
H81   H     H_    0.552773 0.238140 0.724697 0.222145
C132  C     C_3   0.445543 0.808200 0.313690 -0.842091
H82   H     H_    0.481527 0.806346 0.371475 0.228855
H83   H     H_    0.447153 0.761953 0.275099 0.222108
H84   H     H_    0.451493 0.850902 0.268126 0.292366
C133  C     C_3   0.865373 0.590230 0.249418 -0.734437
H85   H     H_    0.908252 0.605398 0.234538 0.287362
H86   H     H_    0.865471 0.537883 0.274647 0.270497
H87   H     H_    0.834289 0.593139 0.184858 0.207777
C134  C     C_3   0.135024 0.410370 0.750318 -0.734967
H88   H     H_    0.092359 0.395053 0.765886 0.287650
H89   H     H_    0.166419 0.407924 0.814548 0.207823
H90   H     H_    0.134550 0.462600 0.724603 0.270266
C135  C     C_3   0.056591 0.679319 0.707757 -0.844606
H91   H     H_    0.013208 0.673715 0.666554 0.245562
H92   H     H_    0.068170 0.633758 0.749794 0.276367
H93   H     H_    0.054192 0.720821 0.754530 0.218064
C136  C     C_3   0.943383 0.320689 0.292220 -0.844511
H94   H     H_    0.986773 0.326300 0.333394 0.245544
H95   H     H_    0.945774 0.279192 0.245437 0.218049
H96   H     H_    0.931785 0.366250 0.250194 0.276391
F1    F     F_    0.545362 0.014121 0.783421 -0.688859
F2    F     F_    0.454644 0.985854 0.216557 -0.688930
F3    F     F_    0.045535 0.498564 0.782273 -0.705946
F4    F     F_    0.954461 0.501414 0.217747 -0.705962
F5    F     F_    0.357221 0.007383 0.634753 -0.687466
F6    F     F_    0.642781 0.992672 0.365255 -0.687448
F7    F     F_    0.857624 0.514130 0.634401 -0.673646
F8    F     F_    0.142380 0.485875 0.365582 -0.673589
C137  C     C_3   0.692072 0.976090 0.208702 -0.858179
H97   H     H_    0.716746 0.976649 0.278511 0.280322
H98   H     H_    0.699705 0.927113 0.180354 0.231747
H99   H     H_    0.709529 0.016235 0.169047 0.236570
C138  C     C_3   0.307944 0.024003 0.791306 -0.858160
H100  H     H_    0.283262 0.023421 0.721502 0.280332
H101  H     H_    0.290472 0.983891 0.830996 0.236533
H102  H     H_    0.300336 0.073003 0.819616 0.231781
C139  C     C_3   0.192907 0.490408 0.207383 -0.848016
H103  H     H_    0.217198 0.482648 0.276847 0.286303
H104  H     H_    0.201717 0.447320 0.166880 0.236876
H105  H     H_    0.209868 0.536428 0.179237 0.226432
C140  C     C_3   0.807086 0.509642 0.792590 -0.848180
H106  H     H_    0.782801 0.517400 0.723122 0.286318
H107  H     H_    0.790116 0.463629 0.820740 0.226490
H108  H     H_    0.798280 0.552737 0.833082 0.236857

loop_
_geom_bond_atom_site_label_1
_geom_bond_atom_site_label_2
_geom_bond_distance
_ccdc_geom_bond_type
O16   Zn4   1.928680 S    
C122  H54   1.110254 S    
C18   C50   1.403362 A    
C134  H89   1.111002 S    
C47   C63   1.412836 A    
C114  H28   1.110824 S    
O8    C8    1.316820 A    
C29   C134  1.500407 S    
C17   C49   1.403367 A    
C135  H93   1.110742 S    
O2    C2    1.306650 A    
C123  H56   1.110496 S    
C115  H31   1.109222 S    
C54   C74   1.409556 A    
C80   C120  1.507858 S    
Zn2   N1    2.072202 S    
C53   C73   1.409541 A    
C93   C97   1.423605 A    
C96   C100  1.424906 A    
C30   C133  1.500505 S    
C107  H23   1.074129 S    
Zn1   N2    2.072203 S    
C129  H75   1.110911 S    
C21   C53   1.401256 A    
C68   C76   1.398704 A    
C113  H25   1.110820 S    
C55   C75   1.412144 A    
C5    C16   1.480819 S    
C43   C59   1.418510 A    
C126  H64   1.107622 S    
C98   C110  1.396095 A    
C127  H69   1.111466 S    
C95   C99   1.424930 A    
C6    C15   1.480849 S    
C10   C34   1.401079 A    
O11   C3    1.325407 A    
C135  H91   1.105435 S    
C130  H76   1.109602 S    
C62   C69   1.410804 A    
C21   H5    1.081969 S    
C129  H74   1.109594 S    
C129  H73   1.109166 S    
C60   C67   1.411406 A    
C91   C95   1.406302 A    
C60   C63   1.408230 A    
N3    C87   1.355430 A    
N4    C92   1.337417 A    
C59   C64   1.408211 A    
C119  H44   1.110351 S    
C94   C102  1.417059 A    
O11   Zn1   1.928678 S    
C13   C29   1.418142 A    
C103  C104  1.419729 A    
C46   C54   1.418509 A    
C42   C58   1.414526 A    
C139  H105  1.108467 S    
C45   C53   1.418466 A    
C87   F8    1.353388 S    
C42   C50   1.415154 A    
C15   C39   1.400463 A    
C133  H85   1.108875 S    
C108  H24   1.074109 S    
C88   F7    1.353388 S    
C81   C97   1.410951 A    
C120  H47   1.110089 S    
C109  H17   1.081760 S    
C39   C128  1.518215 S    
C82   C138  1.512549 S    
C39   C47   1.410366 A    
C27   C132  1.506648 S    
C65   C73   1.392679 A    
C38   C46   1.410873 A    
O6    Zn4   1.959164 S    
C112  H20   1.081782 S    
C41   C57   1.414505 A    
C117  H38   1.110080 S    
C35   C43   1.403900 A    
C85   F6    1.348826 S    
C37   C126  1.518018 S    
N3    C91   1.337428 A    
C36   C44   1.403915 A    
O13   Zn4   1.943246 S    
O3    C3    1.314838 A    
C64   C71   1.407288 A    
C111  H19   1.081781 S    
O14   Zn3   1.943247 S    
C66   C74   1.392683 A    
C137  H97   1.109170 S    
C100  C112  1.393750 A    
C28   C131  1.506641 S    
C16   C32   1.423676 A    
C134  H90   1.110310 S    
C84   C88   1.392029 A    
C32   C135  1.509189 S    
C130  H78   1.110915 S    
O15   C7    1.324592 A    
C24   C32   1.400873 A    
C95   C103  1.418738 A    
C114  H29   1.110402 S    
C34   C121  1.516944 S    
O5    Zn3   1.959163 S    
C138  H100  1.109176 S    
O1    Zn1   1.959163 S    
C12   C28   1.420856 A    
C102  C105  1.409355 A    
C97   C109  1.396097 A    
C90   C94   1.405058 A    
C33   C41   1.407278 A    
C104  C107  1.411200 A    
C44   C60   1.418529 A    
C74   C114  1.510203 S    
C21   C29   1.396905 A    
C59   C68   1.411416 A    
C113  H26   1.110054 S    
C83   C139  1.512395 S    
C84   C100  1.410956 A    
O9    Zn2   1.943246 S    
C125  H61   1.110286 S    
C92   F3    1.344321 S    
C4    C9    1.473862 S    
C24   H8    1.081825 S    
C23   C55   1.404366 A    
C103  C108  1.411220 A    
C35   C124  1.513414 S    
C69   H13   1.077777 S    
C135  H92   1.110025 S    
C22   C54   1.401305 A    
C76   C116  1.509622 S    
C48   C64   1.412811 A    
C115  H33   1.110193 S    
Zn3   N4    2.072203 S    
C69   C77   1.396027 A    
C82   C98   1.410952 A    
C89   F2    1.351670 S    
C118  H41   1.110411 S    
C81   C137  1.512544 S    
C1    C12   1.471103 S    
C136  H95   1.110741 S    
C72   C80   1.392963 A    
C119  H45   1.110090 S    
C36   C123  1.513416 S    
C34   C42   1.407342 A    
C121  H50   1.108626 S    
C127  H67   1.102440 S    
C118  H40   1.111198 S    
C93   C101  1.417039 A    
C51   C79   1.407592 A    
C138  H101  1.110346 S    
O7    Zn4   1.968235 S    
C86   F5    1.348816 S    
O12   Zn2   1.928680 S    
C133  H86   1.110543 S    
O5    C5    1.311839 A    
O4    C4    1.314813 A    
C82   C86   1.393771 A    
C120  H48   1.110351 S    
C107  C111  1.378465 A    
C14   C30   1.418302 A    
C81   C85   1.393791 A    
C128  H70   1.110759 S    
N2    C90   1.341119 A    
C20   H4    1.082231 S    
C75   C115  1.509620 S    
C77   C117  1.509793 S    
C122  H52   1.108625 S    
C73   C113  1.510173 S    
C92   C96   1.406296 A    
C117  H39   1.110423 S    
O12   C4    1.325450 A    
C139  H103  1.109680 S    
O13   C5    1.331835 A    
O2    Zn2   1.959164 S    
C23   H7    1.081823 S    
C48   C56   1.414640 A    
C122  H53   1.110192 S    
C19   H3    1.082231 S    
C131  H80   1.109497 S    
C116  H35   1.110195 S    
C101  C106  1.409340 A    
C22   C30   1.396917 A    
C89   C93   1.405047 A    
C61   C70   1.410779 A    
C140  H106  1.109680 S    
C58   C65   1.408703 A    
O9    C1    1.331899 A    
C22   H6    1.082006 S    
C43   C51   1.418511 A    
C57   C66   1.408718 A    
C121  H49   1.110189 S    
C114  H30   1.110090 S    
C132  H83   1.110826 S    
C63   C72   1.407281 A    
C15   C31   1.423656 A    
C130  H77   1.109177 S    
C123  H57   1.110221 S    
C140  H108  1.110514 S    
C47   C55   1.414647 A    
C17   C25   1.400045 A    
C31   C136  1.509171 S    
O4    Zn1   1.968237 S    
C83   C87   1.392027 A    
C79   C119  1.507856 S    
C113  H27   1.110366 S    
N1    C89   1.341121 A    
O10   Zn1   1.943247 S    
C19   C27   1.399222 A    
O15   Zn3   1.928678 S    
C52   C80   1.407592 A    
C124  H60   1.110200 S    
C41   C49   1.415143 A    
C120  H46   1.110094 S    
C20   C28   1.399212 A    
C124  H58   1.110495 S    
C67   C75   1.398705 A    
C125  H62   1.107653 S    
C7    C14   1.476153 S    
C13   C37   1.404326 A    
C118  H42   1.110066 S    
C66   H10   1.079818 S    
C137  H99   1.110348 S    
C138  H102  1.109326 S    
O1    C1    1.306661 A    
C25   C130  1.503160 S    
O3    Zn2   1.968235 S    
C108  C112  1.378479 A    
C37   C45   1.410901 A    
C16   C40   1.400450 A    
Zn4   N3    2.072202 S    
C94   C98   1.423627 A    
C136  H96   1.110017 S    
C116  H36   1.110345 S    
C84   C140  1.512393 S    
N4    C88   1.355444 A    
C106  C110  1.379459 A    
C126  H66   1.111191 S    
C106  H22   1.073887 S    
C83   C99   1.410965 A    
C38   C125  1.518075 S    
C128  H72   1.111458 S    
C105  H21   1.073880 S    
C65   H9    1.079827 S    
C8    C13   1.476003 S    
C72   H16   1.080425 S    
C123  H55   1.098156 S    
C10   C26   1.419121 A    
C128  H71   1.102441 S    
C133  H87   1.111346 S    
C11   C35   1.399573 A    
O16   C8    1.324492 A    
O14   C6    1.331822 A    
C78   C118  1.509784 S    
C140  H107  1.108467 S    
C126  H65   1.110280 S    
C33   C122  1.516937 S    
C96   C104  1.418708 A    
C137  H98   1.109311 S    
C71   C79   1.392958 A    
C101  C102  1.417595 A    
C56   C76   1.412140 A    
C121  H51   1.110256 S    
C17   H1    1.082110 S    
C3    C10   1.473838 S    
C58   C61   1.409535 A    
C23   C31   1.400857 A    
C119  H43   1.110096 S    
C136  H94   1.105412 S    
C9    C33   1.401080 A    
C57   C62   1.409513 A    
O10   C2    1.331924 A    
O7    C7    1.316809 A    
C99   C111  1.393754 A    
C139  H104  1.110515 S    
C26   C129  1.503123 S    
C71   H15   1.080427 S    
C70   H14   1.077752 S    
C12   C36   1.399582 A    
C127  H68   1.110758 S    
C131  H81   1.110823 S    
C132  H82   1.104321 S    
C90   F1    1.351676 S    
C18   C26   1.400011 A    
C44   C52   1.418518 A    
C116  H34   1.109235 S    
C91   F4    1.344332 S    
C68   H12   1.078104 S    
N1    C85   1.355728 A    
C50   C78   1.409525 A    
C20   C52   1.402891 A    
C67   H11   1.078103 S    
C40   C48   1.410338 A    
C18   H2    1.082098 S    
C117  H37   1.111206 S    
C110  H18   1.081763 S    
C132  H84   1.109500 S    
C9    C25   1.419184 A    
C14   C38   1.404346 A    
O8    Zn3   1.968237 S    
C19   C51   1.402888 A    
C45   C61   1.418184 A    
C11   C27   1.420880 A    
C2    C11   1.471131 S    
N2    C86   1.355722 A    
C24   C56   1.404366 A    
C134  H88   1.108611 S    
C124  H59   1.098119 S    
C40   C127  1.518219 S    
C125  H63   1.111194 S    
C70   C78   1.396013 A    
C105  C109  1.379476 A    
C46   C62   1.418170 A    
C131  H79   1.104337 S    
C49   C77   1.409523 A    
C115  H32   1.110344 S    
O6    C6    1.311868 A    
