data_mof_unit_1296.cif
_audit_creation_date              2012-12-10T18:31:50-0500
_audit_creation_method            fapswitch 2.2
_symmetry_space_group_name_H-M    P1
_symmetry_Int_Tables_number       1
_space_group_crystal_system       triclinic
_cell_length_a                    10.732557
_cell_length_b                    14.990483
_cell_length_c                    15.38509
_cell_angle_alpha                 82.026898
_cell_angle_beta                  90.244853
_cell_angle_gamma                 103.593734
_cell_volume                      2381.61981818

loop_
_atom_site_label
_atom_site_type_symbol
_atom_type_description
_atom_site_fract_x
_atom_site_fract_y
_atom_site_fract_z
_atom_type_partial_charge
C1    C     C_R   0.480696 0.441726 0.662425 0.880608
C2    C     C_3   0.122978 0.498645 0.507229 -0.110839
C3    C     C_3   0.079290 0.509442 0.411201 -0.573243
C4    C     C_3   0.098051 0.580345 0.553149 0.413978
C5    C     C_R   0.472607 0.404863 0.755934 -0.074254
C6    C     C_R   0.542133 0.592293 0.243756 -0.195447
C7    C     C_R   0.392674 0.282403 0.876366 -0.192660
C8    C     C_R   0.399978 0.315566 0.786905 -0.215586
C9    C     C_R   0.537866 0.460516 0.814891 -0.170191
C10   C     C_R   0.533313 0.428199 0.905025 0.080856
C11   C     C_R   0.456079 0.339079 0.935897 0.099207
C12   C     C_R   0.742475 0.499717 0.501242 0.950085
C13   C     C_R   0.592520 0.486429 0.965737 -0.136807
C14   C     C_R   0.549492 0.463935 0.054285 -0.103370
C15   C     C_R   0.487643 0.369848 0.085635 0.510057
C16   C     C_R   0.440609 0.308894 0.025898 -0.342579
C17   C     C_R   0.693222 0.566513 0.941581 0.541023
C18   C     C_R   0.721698 0.635014 0.996018 -0.296461
C19   C     C_R   0.656948 0.622572 0.076688 0.014130
C20   C     C_R   0.571554 0.536368 0.106842 0.092374
C21   C     C_R   0.678529 0.694503 0.128465 -0.304042
C22   C     C_R   0.619501 0.680648 0.212395 0.513670
C23   C     C_R   0.515965 0.558256 0.337446 0.845448
C24   C     C_R   0.506696 0.526770 0.186932 -0.259469
C25   C     C_R   0.706289 0.850965 0.619870 -0.433133
C26   C     C_R   0.667522 0.756784 0.610041 0.687048
C27   C     C_R   0.512375 0.791278 0.507182 -0.078684
C28   C     C_R   0.541143 0.885216 0.518272 0.038171
C29   C     C_R   0.646953 0.914612 0.571812 0.126203
C30   C     C_R   0.475163 0.951799 0.475879 -0.089494
C31   C     C_R   0.523831 0.046386 0.486678 0.046528
C32   C     C_R   0.641697 0.072459 0.527324 -0.163998
C33   C     C_R   0.698393 0.008092 0.573261 -0.218742
C34   C     C_R   0.258528 0.498456 0.504358 0.928631
C35   C     C_R   0.363949 0.929014 0.424311 0.364058
C36   C     C_R   0.314607 0.000984 0.377806 0.507435
C37   C     C_R   0.352876 0.092433 0.398656 -0.210306
C38   C     C_R   0.454277 0.113675 0.457337 -0.280850
C39   C     C_R   0.287944 0.161907 0.365406 0.515419
C40   C     C_R   0.332607 0.251265 0.388333 -0.223553
C41   C     C_R   0.478132 0.201212 0.488237 0.656894
C42   C     C_3   0.896860 0.397808 0.542024 0.977541
C43   C     C_3   0.044235 0.406304 0.556748 -0.597284
C44   C     C_3   0.944146 0.529910 0.406776 0.912266
C45   C     C_3   0.951317 0.568995 0.564134 -0.611694
C46   C     C_3   0.880736 0.498961 0.502783 -0.167789
H1    H     H_    0.131584 0.644283 0.505011 0.188926
H2    H     H_    0.388228 0.238801 0.050331 0.153296
H3    H     H_    0.430217 0.466837 0.208221 0.219230
H4    H     H_    0.333692 0.213931 0.899255 0.128892
H5    H     H_    0.344956 0.272826 0.742507 0.139253
H6    H     H_    0.745340 0.759646 0.105123 0.145500
H7    H     H_    0.287902 0.306954 0.364238 0.171928
H8    H     H_    0.064716 0.405384 0.627310 0.184965
N1    N     N_R   0.573860 0.731700 0.552730 -0.152762
N2    N     N_R   0.426060 0.268290 0.447230 -0.158617
O1    O     O_R   0.462770 0.383110 0.605620 -0.585781
O2    O     O_R   0.510160 0.531900 0.639510 -0.571457
O3    O     O_R   0.661510 0.425600 0.483070 -0.504949
O4    O     O_R   0.708900 0.574390 0.516960 -0.616004
O5    O     O_R   0.489840 0.468100 0.360490 -0.605024
O6    O     O_R   0.537230 0.616890 0.394380 -0.594722
O7    O     O_R   0.291100 0.425610 0.483040 -0.656869
O8    O     O_R   0.338490 0.574400 0.516930 -0.590088
Zn1   Zn    Zn3+2 0.468350 0.400660 0.477370 1.003435
Zn2   Zn    Zn3+2 0.531650 0.599340 0.522630 1.014240
O9    O     O_3   0.836825 0.335949 0.481984 -0.559979
C47   C     C_3   0.900951 0.268925 0.461411 -0.322932
H9    H     H_    0.989393 0.300654 0.421176 0.164083
H10   H     H_    0.838440 0.224141 0.419184 0.192928
H11   H     H_    0.920108 0.223717 0.520916 0.135688
O10   O     O_3   0.965231 0.628180 0.382096 -0.695818
C48   C     C_3   0.857748 0.659431 0.349419 -0.168927
H12   H     H_    0.771620 0.603864 0.342952 0.170976
H13   H     H_    0.883956 0.700283 0.283560 0.181074
H14   H     H_    0.833494 0.706303 0.393057 0.211835
H15   H     H_    0.149082 0.566618 0.370486 0.155887
O11   O     O_3   0.648137 0.747706 0.267980 -0.612725
C49   C     C_3   0.624711 0.832257 0.227174 -0.348369
H16   H     H_    0.616186 0.875415 0.278897 0.189897
H17   H     H_    0.533314 0.822168 0.191067 0.144966
H18   H     H_    0.706543 0.871354 0.182822 0.169868
H19   H     H_    0.794866 0.697716 0.975034 0.157441
H20   H     H_    0.586040 0.531032 0.789898 0.230172
O12   O     O_3   0.828635 0.373709 0.624714 -0.633676
C50   C     C_3   0.825605 0.282689 0.665249 -0.275050
H21   H     H_    0.922157 0.268127 0.671595 0.115310
H22   H     H_    0.762491 0.230933 0.630361 0.226043
H23   H     H_    0.784084 0.273982 0.732654 0.174884
O13   O     O_3   0.474998 0.334875 0.173943 -0.652784
C51   C     C_3   0.590576 0.312183 0.201330 -0.289039
H24   H     H_    0.672171 0.374362 0.192923 0.179105
H25   H     H_    0.611631 0.257416 0.165675 0.142877
H26   H     H_    0.580456 0.284384 0.272291 0.205593
O14   O     O_3   0.770553 0.576293 0.867839 -0.629198
C52   C     C_3   0.853596 0.515942 0.884379 -0.370069
H27   H     H_    0.801241 0.442675 0.905331 0.173746
H28   H     H_    0.924873 0.539712 0.934015 0.164626
H29   H     H_    0.905978 0.516625 0.822692 0.183857
H30   H     H_    0.785025 0.031941 0.608342 0.134183
O15   O     O_3   0.543585 0.218990 0.563734 -0.580371
C53   C     C_3   0.465473 0.170742 0.636959 -0.329004
H31   H     H_    0.368032 0.184755 0.634188 0.148868
H32   H     H_    0.511212 0.194198 0.697202 0.194989
H33   H     H_    0.457049 0.094866 0.642945 0.167146
O16   O     O_3   0.218862 0.978853 0.318576 -0.537456
C54   C     C_3   0.274449 0.002314 0.232763 -0.308660
H34   H     H_    0.315821 0.078095 0.216153 0.182741
H35   H     H_    0.198486 0.982221 0.185259 0.186889
H36   H     H_    0.350049 0.964657 0.223564 0.106640
H37   H     H_    0.782965 0.876176 0.662631 0.147007
O17   O     O_3   0.718763 0.686745 0.654528 -0.579446
C55   C     C_3   0.835076 0.719535 0.695228 -0.316412
H38   H     H_    0.818814 0.752494 0.753244 0.182445
H39   H     H_    0.907552 0.766606 0.647838 0.152384
H40   H     H_    0.874105 0.659324 0.719679 0.224310
H41   H     H_    0.447751 0.763195 0.459788 0.207916
H42   H     H_    0.690887 0.143516 0.525169 0.199747
O18   O     O_3   0.289239 0.838720 0.433389 -0.601645
C56   C     C_3   0.280952 0.802182 0.352975 -0.252235
H43   H     H_    0.369235 0.828969 0.310602 0.115608
H44   H     H_    0.194462 0.813262 0.317571 0.234611
H45   H     H_    0.268620 0.726074 0.367689 0.166593
O19   O     O_3   0.173372 0.137243 0.321729 -0.546598
C57   C     C_3   0.155005 0.207807 0.255513 -0.348449
H46   H     H_    0.244513 0.242134 0.216499 0.199469
H47   H     H_    0.113896 0.259079 0.284102 0.148292
H48   H     H_    0.084160 0.175815 0.209386 0.191177
H49   H     H_    0.079605 0.346726 0.541336 0.179060
O20   O     O_3   0.867957 0.478400 0.345589 -0.603954
C58   C     C_3   0.920086 0.500764 0.258546 -0.350074
H50   H     H_    0.956022 0.441628 0.241334 0.165095
H51   H     H_    0.999079 0.564546 0.246835 0.179709
H52   H     H_    0.842607 0.511263 0.213126 0.183295
H53   H     H_    0.081164 0.446407 0.381704 0.188771
H54   H     H_    0.931194 0.638671 0.546679 0.235651
H55   H     H_    0.912567 0.543654 0.631869 0.225605
O21   O     O_3   0.177915 0.597450 0.626835 -0.568612
C59   C     C_3   0.118252 0.571356 0.710584 -0.308182
H56   H     H_    0.058290 0.499645 0.720257 0.152821
H57   H     H_    0.064095 0.622538 0.723835 0.163359
H58   H     H_    0.194227 0.573640 0.759881 0.189879

loop_
_geom_bond_atom_site_label_1
_geom_bond_atom_site_label_2
_ccdc_geom_bond_type
O7    Zn1   S    
O15   C53   S    
C48   H13   S    
C48   H12   S    
C35   O18   S    
O14   C52   S    
C58   H52   S    
C26   N1    A    
C16   H2    S    
C7    C8    A    
C45   C46   S    
C7    C11   A    
C30   C35   A    
C1    C5    S    
C28   C29   A    
C19   C21   A    
C30   C31   A    
C59   H58   S    
C50   H22   S    
O16   C54   S    
C44   O20   S    
C15   C16   A    
C6    C22   A    
C52   H29   S    
C29   C33   A    
C53   H33   S    
C18   C19   A    
C42   C46   S    
C12   O3    A    
O2    Zn2   S    
C23   O6    A    
C20   C24   A    
C44   C46   S    
C47   H9    S    
C40   N2    A    
C52   H28   S    
C57   H48   S    
C54   H34   S    
C44   O10   S    
C17   O14   S    
C9    C10   A    
C3    H53   S    
C56   H45   S    
C55   H40   S    
C2    C34   S    
O4    Zn2   S    
C21   C22   A    
C54   H35   S    
C45   H55   S    
O17   C55   S    
C56   H44   S    
C17   C18   A    
C4    C45   S    
C27   H41   S    
C25   C29   A    
C3    C44   S    
O6    Zn2   S    
C36   O16   S    
O9    C47   S    
C14   C20   A    
C43   H49   S    
C22   O11   S    
C38   C41   A    
C12   C46   S    
O21   C59   S    
O1    Zn1   S    
C51   H24   S    
C49   H17   S    
C50   H21   S    
C25   C26   A    
O12   C50   S    
C50   H23   S    
C39   O19   S    
C35   C36   A    
O8    Zn2   S    
C2    C4    S    
C41   N2    A    
C5    C9    A    
C37   C38   A    
C1    O1    A    
C51   H25   S    
C11   C16   A    
C43   H8    S    
C31   C32   A    
C2    C43   S    
C59   H56   S    
C6    C24   A    
C52   H27   S    
C34   O8    A    
C18   H19   S    
C42   O12   S    
C53   H32   S    
C8    H5    S    
C57   H46   S    
C54   H36   S    
C5    C8    A    
C42   C43   S    
C58   H50   S    
C3    H15   S    
C26   O17   S    
C39   C40   A    
N1    Zn2   S    
C56   H43   S    
C55   H38   S    
C24   H3    S    
C36   C37   A    
C45   H54   S    
O11   C49   S    
C7    H4    S    
C32   H42   S    
O10   C48   S    
C58   H51   S    
C10   C13   A    
C49   H18   S    
O18   C56   S    
C31   C38   A    
C13   C17   A    
C33   H30   S    
C32   C33   A    
C19   C20   A    
C28   C30   A    
C2    C3    S    
C37   C39   A    
C1    O2    A    
O3    Zn1   S    
C51   H26   S    
C59   H57   S    
O13   C51   S    
C42   O9    S    
C47   H11   S    
C6    C23   S    
C34   O7    A    
C48   H14   S    
C41   O15   S    
O20   C58   S    
C27   N1    A    
C53   H31   S    
C10   C11   A    
C25   H37   S    
C9    H20   S    
C4    O21   S    
C49   H16   S    
C12   O4    A    
O5    Zn1   S    
C23   O5    A    
C47   H10   S    
C40   H7    S    
C27   C28   A    
C57   H47   S    
C14   C15   A    
C55   H39   S    
C13   C14   A    
C21   H6    S    
N2    Zn1   S    
O19   C57   S    
C15   O13   S    
C4    H1    S    
