data_mof_unit_858.cif
_audit_creation_date              2012-10-26T19:23:07-0400
_audit_creation_method            fapswitch 2.2
_symmetry_space_group_name_H-M    P1
_symmetry_Int_Tables_number       1
_space_group_crystal_system       triclinic
_cell_length_a                    17.205447
_cell_length_b                    13.009984
_cell_length_c                    11.671135
_cell_angle_alpha                 100.064473
_cell_angle_beta                  90.361474
_cell_angle_gamma                 90.790313
_cell_volume                      2571.94970144

loop_
_atom_site_label
_atom_site_type_symbol
_atom_type_description
_atom_site_fract_x
_atom_site_fract_y
_atom_site_fract_z
_atom_type_partial_charge
C1    C     C_R   0.499280 0.299029 0.478530 0.549905
C2    C     C_R   0.498835 0.860289 0.434393 -0.137024
C3    C     C_R   0.500892 0.031569 0.556028 0.011871
C4    C     C_R   0.499380 0.968425 0.443981 0.011624
C5    C     C_R   0.425021 0.405101 0.027664 -0.150726
C6    C     C_R   0.575022 0.594890 0.972321 -0.150003
C7    C     C_R   0.432939 0.411464 0.150261 0.438146
C8    C     C_R   0.567124 0.588486 0.849700 0.441737
C9    C     C_R   0.532550 0.540648 0.154270 0.001788
C10   C     C_R   0.467452 0.459373 0.845743 0.003330
C11   C     C_R   0.527249 0.534246 0.031929 -0.045190
C12   C     C_R   0.500771 0.700969 0.521467 0.545889
C13   C     C_R   0.472768 0.465781 0.968074 -0.044334
C14   C     C_R   0.350413 0.498035 0.514385 0.553041
C15   C     C_R   0.649604 0.502402 0.485673 0.554996
C16   C     C_R   0.265709 0.488501 0.519285 -0.074722
C17   C     C_R   0.734124 0.515804 0.481182 -0.075719
C18   C     C_R   0.223952 0.448400 0.417243 -0.141540
C19   C     C_R   0.775463 0.552200 0.584531 -0.124039
C20   C     C_R   0.142731 0.439940 0.418267 0.235187
C21   C     C_R   0.855874 0.567698 0.583266 0.239962
C22   C     C_R   0.103954 0.469206 0.524187 0.064475
C23   C     C_R   0.500456 0.814383 0.534039 -0.064393
C24   C     C_R   0.895421 0.540976 0.477668 0.079700
C25   C     C_R   0.145282 0.509118 0.627033 0.220009
C26   C     C_R   0.854753 0.508793 0.372262 0.239152
C27   C     C_R   0.226370 0.516722 0.624451 -0.144462
C28   C     C_R   0.773558 0.495275 0.375198 -0.152532
C29   C     C_2   0.018059 0.467837 0.524707 0.389459
C30   C     C_2   0.981286 0.542290 0.478620 0.371537
C31   C     C_3   0.629492 0.747830 0.845770 -0.152531
C32   C     C_3   0.371214 0.251767 0.154173 -0.145372
C33   C     C_3   0.988963 0.708583 0.432677 -0.145012
C34   C     C_R   0.499720 0.185612 0.465963 -0.062318
C35   C     C_3   0.014550 0.305927 0.584131 -0.100516
C36   C     C_3   0.100426 0.646000 0.755786 -0.092175
C37   C     C_3   0.865406 0.525746 0.179204 -0.110491
C38   C     C_3   0.872692 0.697678 0.742209 -0.141610
C39   C     C_3   0.120583 0.442325 0.222997 -0.069541
C40   C     C_3   0.568492 0.950281 0.182501 -0.138399
C41   C     C_3   0.431951 0.049519 0.817719 -0.138424
C42   C     C_R   0.499314 0.014548 0.343437 0.268108
C43   C     C_R   0.500997 0.985445 0.656572 0.267806
C44   C     C_R   0.498444 0.123081 0.355334 -0.117295
C45   C     C_R   0.501844 0.876909 0.644670 -0.119784
C46   C     C_R   0.501373 0.139708 0.565612 -0.134562
Cu1   Cu    Cu3+1 0.505800 0.507690 0.615350 0.999508
Cu2   Cu    Cu3+1 0.494200 0.492310 0.384650 0.996770
H1    H     H_    0.254669 0.422029 0.337200 0.174837
H2    H     H_    0.496911 0.158037 0.277764 0.141047
H3    H     H_    0.425853 0.406070 0.795848 0.122050
H4    H     H_    0.574153 0.593943 0.204174 0.117895
H5    H     H_    0.678147 0.749683 0.909099 0.094164
H6    H     H_    0.576621 0.784251 0.889046 0.106202
H7    H     H_    0.647936 0.795968 0.780836 0.144846
H8    H     H_    0.424258 0.215810 0.110958 0.102955
H9    H     H_    0.322544 0.249417 0.090782 0.103354
H10   H     H_    0.353076 0.203505 0.219143 0.151778
H11   H     H_    0.936751 0.703797 0.375435 0.125329
H12   H     H_    0.745516 0.567391 0.666828 0.181680
H13   H     H_    0.030690 0.763957 0.403042 0.139737
H14   H     H_    0.973988 0.740880 0.524437 0.101807
H15   H     H_    0.973520 0.249426 0.613247 0.140025
H16   H     H_    0.062831 0.320190 0.648894 0.143729
H17   H     H_    0.036295 0.269467 0.497034 0.128383
H18   H     H_    0.069615 0.676403 0.684727 0.135396
H19   H     H_    0.158629 0.684245 0.772299 0.096849
H20   H     H_    0.065849 0.667457 0.836081 0.146534
H21   H     H_    0.847154 0.607948 0.208608 0.087561
H22   H     H_    0.816173 0.477367 0.136432 0.121005
H23   H     H_    0.381635 0.354099 0.978866 0.079369
H24   H     H_    0.910973 0.527038 0.112627 0.153088
H25   H     H_    0.818132 0.689876 0.790517 0.127273
H26   H     H_    0.865125 0.753619 0.680887 0.090179
H27   H     H_    0.917649 0.731435 0.806998 0.127899
H28   H     H_    0.172363 0.403659 0.179486 0.104762
H29   H     H_    0.130654 0.528279 0.246403 0.148367
H30   H     H_    0.071906 0.429646 0.159065 0.168773
H31   H     H_    0.612664 0.919096 0.237093 0.108266
H32   H     H_    0.587037 0.028472 0.165576 0.122766
H33   H     H_    0.565413 0.896695 0.097466 0.134911
H34   H     H_    0.618432 0.645840 0.021134 0.075132
H35   H     H_    0.413596 0.971296 0.834768 0.119119
H36   H     H_    0.387626 0.080522 0.763223 0.109302
H37   H     H_    0.435058 0.103162 0.902713 0.136114
H38   H     H_    0.741514 0.465551 0.296001 0.135362
H39   H     H_    0.258176 0.545928 0.704164 0.143860
H40   H     H_    0.497908 0.811517 0.349018 0.181152
H41   H     H_    0.502257 0.188479 0.650988 0.181846
H42   H     H_    0.503441 0.841944 0.722236 0.140951
N1    N     N_R   0.514530 0.519260 0.788680 -0.216569
N2    N     N_R   0.485470 0.480740 0.211320 -0.215626
O1    O     O_R   0.504120 0.354440 0.581590 -0.519155
O2    O     O_3   0.385005 0.354907 0.212772 -0.541824
O3    O     O_3   0.024660 0.610565 0.423322 -0.591215
O4    O     O_3   0.974446 0.398875 0.578999 -0.548338
O5    O     O_3   0.106275 0.536391 0.730875 -0.545466
O6    O     O_3   0.896881 0.480779 0.270626 -0.532424
O7    O     O_3   0.897999 0.599177 0.685478 -0.536528
O8    O     O_3   0.099746 0.396613 0.319870 -0.552895
O9    O     O_3   0.494389 0.953678 0.233778 -0.578504
O10   O     O_3   0.505980 0.046325 0.766223 -0.577133
O11   O     O_R   0.495880 0.645560 0.418410 -0.520941
O12   O     O_R   0.494320 0.341440 0.386760 -0.467406
O13   O     O_R   0.505680 0.658560 0.613240 -0.469280
O14   O     O_R   0.391870 0.507230 0.608700 -0.522772
O15   O     O_R   0.608130 0.492770 0.391300 -0.523064
O16   O     O_R   0.382070 0.494240 0.413880 -0.454188
O17   O     O_R   0.617930 0.505760 0.586120 -0.452550
O18   O     O_3   0.615159 0.644851 0.787086 -0.541068

loop_
_geom_bond_atom_site_label_1
_geom_bond_atom_site_label_2
_ccdc_geom_bond_type
C32   O2    S    
C6    H34   S    
C22   C29   S    
C37   H21   S    
C11   C13   A    
C15   O17   A    
C32   H10   S    
C36   H19   S    
C46   H41   S    
C35   O4    S    
C12   C23   S    
C3    C43   A    
C29   C30   D    
C23   C45   A    
C39   H29   S    
C19   C21   A    
C24   C26   A    
C12   O13   A    
C21   O7    S    
C36   H18   S    
Cu2   O15   S    
C35   H17   S    
Cu2   O12   S    
C41   O10   S    
C15   O15   A    
C40   O9    S    
C33   H14   S    
Cu1   O13   S    
C22   C25   A    
C40   H32   S    
C2    H40   S    
C35   H16   S    
C34   C46   A    
C5    C13   A    
C16   C27   A    
C14   O16   A    
C33   H11   S    
C37   H22   S    
C9    H4    S    
C42   C44   A    
C32   H9    S    
C10   H3    S    
C33   O3    S    
C9    N2    A    
C37   O6    S    
C1    C34   S    
C38   H27   S    
C39   H30   S    
C34   C44   A    
C12   O11   A    
C6    C11   A    
C5    C7    A    
C6    C8    A    
Cu1   O17   S    
C41   H36   S    
C2    C4    A    
C30   O3    S    
C25   O5    S    
C8    O18   S    
C9    C11   A    
Cu1   Cu2   S    
C20   O8    S    
Cu1   O14   S    
Cu1   O1    S    
C40   H31   S    
C8    N1    A    
C39   H28   S    
C31   H5    S    
C27   H39   S    
C45   H42   S    
C43   C45   A    
C1    O12   A    
C36   O5    S    
C26   O6    S    
C1    O1    A    
C20   C22   A    
C10   N1    A    
C28   H38   S    
C14   C16   S    
C21   C24   A    
C3    C4    A    
C42   O9    S    
C38   H26   S    
C44   H2    S    
C15   C17   S    
C7    O2    S    
C17   C28   A    
Cu1   N1    S    
C40   H33   S    
C38   O7    S    
C10   C13   A    
C29   O4    S    
C36   H20   S    
C19   H12   S    
C25   C27   A    
C41   H37   S    
C3    C46   A    
C26   C28   A    
C43   O10   S    
C5    H23   S    
Cu2   O11   S    
C39   O8    S    
Cu2   O16   S    
C4    C42   A    
C33   H13   S    
C7    N2    A    
C17   C19   A    
C31   O18   S    
C18   C20   A    
C31   H6    S    
C24   C30   S    
C14   O14   A    
C16   C18   A    
Cu2   N2    S    
C37   H24   S    
C2    C23   A    
C35   H15   S    
C31   H7    S    
C32   H8    S    
C18   H1    S    
C38   H25   S    
C41   H35   S    
