data_mof_unit_1240.cif
_audit_creation_date              2012-10-26T20:17:42-0400
_audit_creation_method            fapswitch 2.2
_symmetry_space_group_name_H-M    P1
_symmetry_Int_Tables_number       1
_space_group_crystal_system       triclinic
_cell_length_a                    27.812565
_cell_length_b                    8.734675
_cell_length_c                    7.408405
_cell_angle_alpha                 102.918629
_cell_angle_beta                  94.251511
_cell_angle_gamma                 92.486828
_cell_volume                      1746.0379011

loop_
_atom_site_label
_atom_site_type_symbol
_atom_type_description
_atom_site_fract_x
_atom_site_fract_y
_atom_site_fract_z
_atom_type_partial_charge
C1    C     C_R   0.497584 0.200260 0.454222 0.538103
C2    C     C_R   0.868925 0.364381 0.381668 0.024603
C3    C     C_R   0.354087 0.495163 0.508000 -0.017985
C4    C     C_R   0.645913 0.504839 0.492000 -0.017985
C5    C     C_R   0.971336 0.359342 0.419788 0.012931
C6    C     C_R   0.028664 0.640667 0.580209 0.012931
C7    C     C_R   0.977631 0.644895 0.549281 0.012236
C8    C     C_R   0.022369 0.355113 0.450719 0.012236
C9    C     C_R   0.949014 0.503476 0.474363 0.033536
C10   C     C_R   0.050986 0.496532 0.525636 0.033536
C11   C     C_R   0.941948 0.224344 0.328742 -0.147147
C12   C     C_R   0.502416 0.799740 0.545778 0.538103
C13   C     C_R   0.058053 0.775666 0.671251 -0.147145
C14   C     C_R   0.891863 0.224932 0.310663 -0.004379
C15   C     C_R   0.108137 0.775076 0.689330 -0.004378
C16   C     C_R   0.407293 0.497750 0.501893 0.549466
C17   C     C_R   0.592707 0.502250 0.498107 0.549467
C18   C     C_R   0.045660 0.212454 0.413128 -0.152379
C19   C     C_R   0.954339 0.787554 0.586875 -0.152379
C20   C     C_2   0.490495 0.034419 0.433434 -0.067977
C21   C     C_2   0.509505 0.965581 0.566566 -0.067977
C22   C     C_R   0.175864 0.353351 0.506692 0.424368
C23   C     C_R   0.102307 0.493852 0.546385 -0.045034
C24   C     C_R   0.824136 0.646656 0.493307 0.424369
C25   C     C_R   0.181700 0.632397 0.613989 0.414206
C26   C     C_R   0.818300 0.367610 0.386008 0.414205
C27   C     C_R   0.285886 0.537268 0.696730 -0.041683
C28   C     C_R   0.714114 0.462735 0.303269 -0.041683
C29   C     C_R   0.335417 0.539625 0.682054 -0.130353
C30   C     C_R   0.664583 0.460377 0.317946 -0.130353
C31   C     C_R   0.321513 0.449311 0.345429 -0.046383
C32   C     C_R   0.678487 0.550692 0.654571 -0.046384
C33   C     C_R   0.271368 0.453930 0.360735 0.019883
C34   C     C_R   0.897693 0.506156 0.453614 -0.045034
C35   C     C_R   0.728632 0.546075 0.639264 0.019883
C36   C     C_R   0.253678 0.494871 0.537486 0.212777
C37   C     C_R   0.746322 0.505134 0.462513 0.212776
C38   C     C_1   0.338511 0.391364 0.163639 0.242042
C39   C     C_1   0.661489 0.608639 0.836360 0.242042
C40   C     C_1   0.237775 0.419082 0.195397 0.255764
C41   C     C_1   0.762225 0.580924 0.804602 0.255764
C42   C     C_1   0.115030 0.055454 0.372706 0.271339
C43   C     C_1   0.884970 0.944553 0.627294 0.271340
C44   C     C_1   0.865766 0.079678 0.211938 0.286195
C45   C     C_R   0.124871 0.349764 0.493990 0.020145
C46   C     C_1   0.134235 0.920331 0.788053 0.286196
C47   C     C_1   0.458058 0.952234 0.274496 0.240393
C48   C     C_1   0.541941 0.047766 0.725504 0.240393
C49   C     C_R   0.875129 0.650243 0.506010 0.020145
C50   C     C_R   0.095674 0.208446 0.429738 -0.011895
C51   C     C_R   0.904326 0.791562 0.570263 -0.011894
C52   C     C_R   0.131075 0.635627 0.618328 0.024603
Cu1   Cu    Cu3+1 0.505380 0.517380 0.684380 1.029280
Cu2   Cu    Cu3+1 0.494620 0.482620 0.315620 1.029280
H1    H     H_    0.956973 0.115670 0.265223 0.104556
H2    H     H_    0.974240 0.900213 0.627996 0.103005
H3    H     H_    0.043028 0.884341 0.734765 0.104555
H4    H     H_    0.462365 0.378020 0.947794 0.254250
H5    H     H_    0.537635 0.621980 0.052205 0.254250
H6    H     H_    0.640772 0.423808 0.191609 0.170222
H7    H     H_    0.359228 0.576191 0.808392 0.170222
H8    H     H_    0.727606 0.430507 0.167303 0.160992
H9    H     H_    0.272394 0.569496 0.832697 0.160992
H10   H     H_    0.025759 0.099795 0.372013 0.103006
N1    N     N_R   0.202535 0.493439 0.555622 -0.400526
N2    N     N_1   0.869744 0.067109 0.673853 -0.232251
N3    N     N_1   0.845143 0.963237 0.132842 -0.192381
N4    N     N_1   0.154858 0.036773 0.867147 -0.192380
N5    N     N_1   0.432274 0.887374 0.148079 -0.254958
N6    N     N_1   0.567726 0.112626 0.851921 -0.254958
N7    N     N_R   0.797465 0.506567 0.444377 -0.400526
N8    N     N_2   0.486510 0.456430 0.038510 -0.242474
N9    N     N_2   0.513490 0.543570 0.961490 -0.242474
N10   N     N_1   0.351945 0.344146 0.018570 -0.280925
N11   N     N_1   0.648054 0.655856 0.981429 -0.280925
N12   N     N_1   0.210970 0.391541 0.063509 -0.244815
N13   N     N_1   0.789030 0.608467 0.936489 -0.244814
N14   N     N_1   0.130255 0.932898 0.326145 -0.232253
O1    O     O_R   0.503500 0.286120 0.619780 -0.507369
O2    O     O_2   0.800894 0.780983 0.531986 -0.434800
O3    O     O_2   0.789942 0.233121 0.338366 -0.444664
O4    O     O_2   0.210058 0.766885 0.661631 -0.444664
O5    O     O_R   0.496500 0.713880 0.380220 -0.507369
O6    O     O_R   0.494410 0.256780 0.308360 -0.486448
O7    O     O_R   0.505590 0.743220 0.691640 -0.486448
O8    O     O_R   0.434810 0.514700 0.655690 -0.507192
O9    O     O_R   0.565190 0.485300 0.344310 -0.507192
O10   O     O_R   0.425720 0.485350 0.344280 -0.486280
O11   O     O_R   0.574280 0.514650 0.655720 -0.486280
O12   O     O_2   0.199106 0.219023 0.468014 -0.434799

loop_
_geom_bond_atom_site_label_1
_geom_bond_atom_site_label_2
_ccdc_geom_bond_type
C19   H2    S    
C23   C45   A    
C27   C29   A    
C18   H10   S    
Cu2   O6    S    
C37   N7    S    
Cu1   Cu2   S    
C1    O6    A    
C46   N4    T    
C12   O7    A    
C45   C50   A    
Cu1   O1    S    
C5    C11   A    
C41   N13   T    
Cu2   O9    S    
C11   C14   A    
C13   H3    S    
C33   C36   A    
C32   C39   S    
C3    C29   A    
C47   N5    T    
C24   O2    S    
C49   C51   A    
C30   H6    S    
C31   C33   A    
Cu1   O8    S    
C39   N11   T    
H5    N9    S    
C21   C48   S    
C2    C34   A    
C16   O8    A    
C26   N7    A    
C35   C41   S    
Cu2   O5    S    
C29   H7    S    
C33   C40   S    
C32   C35   A    
C25   N1    A    
C36   N1    S    
C12   C21   S    
C8    C18   A    
C40   N12   T    
C12   O5    A    
C22   N1    A    
C5    C9    A    
C22   O12   S    
C17   O11   A    
C2    C26   A    
C15   C52   A    
C3    C31   A    
C4    C32   A    
C27   H9    S    
C42   C50   S    
C4    C17   S    
C42   N14   T    
C26   O3    S    
C7    C19   A    
C13   C15   A    
Cu1   O11   S    
C25   O4    S    
C27   C36   A    
C11   H1    S    
C18   C50   A    
C14   C44   S    
C38   N10   T    
C24   C49   A    
C7    C9    A    
C1    C20   S    
C35   C37   A    
C17   O9    A    
Cu1   N9    S    
C48   N6    T    
N8    N9    D    
C6    C10   A    
C5    C8    A    
C6    C7    A    
C10   C23   A    
C31   C38   S    
C28   C30   A    
C25   C52   A    
C6    C13   A    
Cu2   O10   S    
H4    N8    S    
C23   C52   A    
C9    C34   A    
C28   C37   A    
C43   C51   S    
C43   N2    T    
C1    O1    A    
C2    C14   A    
C20   C47   S    
C19   C51   A    
C22   C45   A    
Cu2   N8    S    
C20   C21   D    
C34   C49   A    
C8    C10   A    
C16   O10   A    
C44   N3    T    
Cu1   O7    S    
C15   C46   S    
C4    C30   A    
C3    C16   S    
C24   N7    A    
C28   H8    S    
