data_mof_unit_3751.cif
_audit_creation_date              2012-12-10T17:35:34-0500
_audit_creation_method            fapswitch 2.2
_symmetry_space_group_name_H-M    P1
_symmetry_Int_Tables_number       1
_space_group_crystal_system       triclinic
_cell_length_a                    10.735656
_cell_length_b                    12.34403
_cell_length_c                    12.946718
_cell_angle_alpha                 116.062182
_cell_angle_beta                  76.341569
_cell_angle_gamma                 101.467146
_cell_volume                      1488.76454823

loop_
_atom_site_label
_atom_site_type_symbol
_atom_type_description
_atom_site_fract_x
_atom_site_fract_y
_atom_site_fract_z
_atom_type_partial_charge
C1    C     C_R   0.512940 0.855599 0.284282 0.759051
C2    C     C_3   0.121952 0.001935 0.504518 0.075771
C3    C     C_3   0.076186 0.129942 0.587273 -0.022010
C4    C     C_3   0.036848 0.903958 0.543175 -0.394335
C5    C     C_R   0.326823 0.285690 0.038602 -0.264744
C6    C     C_R   0.449716 0.227014 0.841739 -0.195808
C7    C     C_R   0.588132 0.816038 0.068504 0.148375
C8    C     C_R   0.610231 0.729793 0.952558 -0.104108
C9    C     C_R   0.569727 0.607858 0.923082 -0.251785
C10   C     C_R   0.497002 0.566529 0.007033 0.099535
C11   C     C_R   0.459850 0.653756 0.121828 0.067473
C12   C     C_R   0.740450 0.999110 0.498498 0.749850
C13   C     C_R   0.455962 0.441424 0.979640 0.095092
C14   C     C_R   0.368215 0.407537 0.063246 0.078975
C15   C     C_R   0.319011 0.495824 0.170018 -0.215857
C16   C     C_R   0.362007 0.617105 0.197950 -0.177942
C17   C     C_R   0.499305 0.349032 0.871663 -0.320015
C18   C     C_R   0.365550 0.194336 0.929207 0.459254
C19   C     C_R   0.518174 0.775870 0.156742 -0.183840
C20   C     C_R   0.709216 0.349220 0.327017 -0.295702
C21   C     C_R   0.315095 0.750974 0.636526 0.151067
C22   C     C_R   0.275274 0.653818 0.668294 -0.239362
C23   C     C_R   0.477691 0.144652 0.715755 0.835068
C24   C     C_R   0.347057 0.555387 0.619341 -0.202761
C25   C     C_R   0.458548 0.551543 0.535309 -0.006407
C26   C     C_R   0.496639 0.654790 0.506759 0.284171
C27   C     C_R   0.531346 0.448133 0.476427 -0.034381
C28   C     C_R   0.638451 0.449418 0.388688 0.182053
C29   C     C_R   0.673786 0.550025 0.361836 -0.291964
C30   C     C_R   0.604794 0.650155 0.419457 -0.191052
C31   C     C_R   0.502476 0.342170 0.499343 0.020356
C32   C     C_R   0.674937 0.248049 0.352695 0.048258
C33   C     C_R   0.259934 0.001182 0.502324 0.768829
C34   C     C_3   0.961501 0.965272 0.373227 0.004572
C35   C     C_3   0.105007 0.970096 0.378491 -0.406816
C36   C     C_3   0.930645 0.125503 0.587428 -0.349039
C37   C     C_3   0.894395 0.904721 0.542462 -0.440994
C38   C     C_3   0.878901 0.000138 0.499007 0.110123
Cu1   Cu    Cu3+1 0.529690 0.098270 0.475420 0.916282
Cu2   Cu    Cu3+1 0.470310 0.901730 0.524580 0.962259
H1    H     H_    0.049435 0.919797 0.631681 0.191638
H2    H     H_    0.873026 0.141127 0.675463 0.154515
H3    H     H_    0.246400 0.471127 0.232321 0.140844
H4    H     H_    0.259699 0.262508 0.104636 0.182386
H5    H     H_    0.571548 0.369986 0.807721 0.170356
H6    H     H_    0.592067 0.548939 0.831918 0.141170
H7    H     H_    0.662158 0.754494 0.882356 0.155992
H8    H     H_    0.928779 0.867938 0.322754 0.100815
H9    H     H_    0.314244 0.681672 0.278651 0.163251
H10   H     H_    0.728728 0.170712 0.304529 0.127719
H11   H     H_    0.755618 0.551162 0.294494 0.147292
H12   H     H_    0.790529 0.348927 0.258882 0.137615
H13   H     H_    0.423502 0.334106 0.565474 0.123436
H14   H     H_    0.255695 0.823420 0.670777 0.183257
H15   H     H_    0.311317 0.482291 0.646334 0.131115
H16   H     H_    0.187323 0.654149 0.729996 0.149570
H17   H     H_    0.638297 0.721042 0.390461 0.198894
H18   H     H_    0.139501 0.880135 0.318658 0.139022
H19   H     H_    0.167344 0.036162 0.346487 0.193488
H20   H     H_    0.915250 0.201383 0.569978 0.166608
H21   H     H_    0.130486 0.195273 0.550213 0.157300
H22   H     H_    0.838787 0.925447 0.632085 0.190092
H23   H     H_    0.855746 0.812243 0.485025 0.177400
H24   H     H_    0.066380 0.812307 0.482640 0.174535
N1    N     N_R   0.574690 0.246280 0.438200 -0.176157
N2    N     N_R   0.426100 0.754320 0.561190 -0.209202
O1    O     O_R   0.537340 0.972510 0.318130 -0.590796
O2    O     O_R   0.487200 0.806530 0.359650 -0.595404
O3    O     O_R   0.707380 0.082980 0.479220 -0.581447
O4    O     O_R   0.657240 0.917000 0.520740 -0.604144
O5    O     O_R   0.512800 0.193470 0.640350 -0.595431
O6    O     O_R   0.462660 0.027490 0.681870 -0.494367
O7    O     O_R   0.342760 0.083000 0.479260 -0.594546
O8    O     O_R   0.292620 0.917020 0.520780 -0.593000
C39   C     C_3   0.944323 0.028023 0.297152 -0.368025
C40   C     C_3   0.981238 0.165585 0.342553 -0.794344
H25   H     H_    0.903721 0.214975 0.410447 0.246224
H26   H     H_    0.072867 0.194547 0.377237 0.240475
H27   H     H_    0.993296 0.193391 0.269687 0.234571
H28   H     H_    0.004584 0.985579 0.209942 0.226282
H29   H     H_    0.843683 0.006672 0.281259 0.182612
C41   C     C_3   0.104294 0.177700 0.713316 -0.361356
C42   C     C_3   0.087626 0.312389 0.783692 -0.866280
H30   H     H_    0.153038 0.366914 0.739678 0.241454
H31   H     H_    0.986576 0.329100 0.794358 0.250799
H32   H     H_    0.112160 0.342647 0.871630 0.258794
H33   H     H_    0.039643 0.125579 0.760367 0.235905
H34   H     H_    0.205089 0.166845 0.711297 0.219922
S1    S     S_3+6 0.294786 0.045320 0.907039 -0.039811
O9    O     O_2   0.395285 0.958086 0.852450 -0.286359
O10   O     O_2   0.228399 0.040285 0.021279 -0.338233
O11   O     O_3   0.184566 0.007480 0.820407 -0.617533
H35   H     H_    0.113800 0.956024 0.847466 0.350624
C43   C     C_3   0.638395 0.949141 0.097449 -0.354429
C44   C     C_3   0.703837 0.982457 0.994980 -0.857826
H36   H     H_    0.792722 0.936620 0.949454 0.240070
H37   H     H_    0.636474 0.958312 0.932989 0.285902
H38   H     H_    0.732156 0.081927 0.028507 0.246310
H39   H     H_    0.556144 0.004531 0.143025 0.242745
H40   H     H_    0.710029 0.976389 0.155720 0.190197

loop_
_geom_bond_atom_site_label_1
_geom_bond_atom_site_label_2
_ccdc_geom_bond_type
C2    C35   S    
C12   O3    A    
C21   N2    A    
C36   H2    S    
C44   H36   S    
C40   H27   S    
C37   H22   S    
C44   H38   S    
C7    C8    A    
C24   H15   S    
C11   C19   A    
C29   C30   A    
Cu2   O4    S    
C35   H18   S    
C3    C36   S    
C28   C29   A    
C40   H26   S    
C29   H11   S    
C21   H14   S    
C4    H1    S    
C15   C16   A    
C30   H17   S    
C1    O2    A    
C35   H19   S    
C34   C35   S    
C6    C17   A    
C8    C9    A    
C24   C25   A    
S1    O10   D    
C39   H28   S    
C34   C39   S    
C9    H6    S    
Cu2   N2    S    
C21   C22   A    
Cu1   N1    S    
C37   H23   S    
C20   C32   A    
C3    H21   S    
C6    C18   A    
C1    C19   S    
C27   C31   A    
C26   N2    A    
C23   O5    A    
C16   H9    S    
Cu1   Cu2   S    
C39   H29   S    
C22   H16   S    
C5    C18   A    
C20   C28   A    
C25   C26   A    
C31   H13   S    
C2    C4    S    
C39   C40   S    
C37   C38   S    
C11   C16   A    
C42   H30   S    
C43   H40   S    
C3    C41   S    
Cu1   O3    S    
C40   H25   S    
S1    O11   S    
C32   H10   S    
C5    C14   A    
C2    C33   S    
C33   O7    A    
C42   H31   S    
C5    H4    S    
C26   C30   A    
C7    C19   A    
C22   C24   A    
C34   H8    S    
C9    C10   A    
C31   N1    A    
C7    C43   S    
C12   O4    A    
Cu2   O6    S    
C34   C38   S    
C18   S1    S    
Cu1   O1    S    
C23   O6    A    
C17   H5    S    
C36   H20   S    
C10   C13   A    
C44   H37   S    
C25   C27   A    
C4    H24   S    
C13   C17   A    
C36   C38   S    
C2    C3    S    
C8    H7    S    
C15   H3    S    
C20   H12   S    
C43   H39   S    
C41   H34   S    
C6    C23   S    
O11   H35   S    
C1    O1    A    
Cu2   O8    S    
Cu1   O7    S    
C12   C38   S    
C43   C44   S    
C10   C11   A    
C33   O8    A    
C42   H32   S    
C4    C37   S    
C41   C42   S    
Cu2   O2    S    
C27   C28   A    
Cu1   O5    S    
C14   C15   A    
S1    O9    D    
C13   C14   A    
C41   H33   S    
C32   N1    A    
