data_mof_unit_4458.cif
_audit_creation_date              2012-10-26T18:26:38-0400
_audit_creation_method            fapswitch 2.2
_symmetry_space_group_name_H-M    P1
_symmetry_Int_Tables_number       1
_space_group_crystal_system       triclinic
_cell_length_a                    15.878605
_cell_length_b                    8.726728
_cell_length_c                    7.448901
_cell_angle_alpha                 102.253881
_cell_angle_beta                  94.963158
_cell_angle_gamma                 92.242315
_cell_volume                      1003.1294015

loop_
_atom_site_label
_atom_site_type_symbol
_atom_type_description
_atom_site_fract_x
_atom_site_fract_y
_atom_site_fract_z
_atom_type_partial_charge
C1    C     C_R   0.499046 0.200672 0.454991 0.595777
C2    C     C_3   0.979107 0.635753 0.599507 0.059117
C3    C     C_1   0.250821 0.500902 0.502036 0.056951
C4    C     C_1   0.749179 0.499098 0.497964 0.056951
C5    C     C_3   0.036701 0.520342 0.674704 0.265808
C6    C     C_3   0.963298 0.479658 0.325296 0.265809
C7    C     C_3   0.084087 0.500993 0.498597 0.016697
C8    C     C_3   0.915913 0.499007 0.501403 0.016697
C9    C     C_1   0.175448 0.501209 0.499781 0.059268
C10   C     C_1   0.824552 0.498791 0.500219 0.059268
C11   C     C_R   0.500954 0.799328 0.545009 0.595777
C12   C     C_R   0.340082 0.500005 0.501036 0.549916
C13   C     C_R   0.659918 0.499995 0.498963 0.549916
C14   C     C_2   0.511236 0.037386 0.434804 0.194955
C15   C     C_2   0.488763 0.962614 0.565195 0.194955
C16   C     C_3   0.973716 0.383301 0.574376 0.103699
C17   C     C_3   0.026284 0.616699 0.425624 0.103700
C18   C     C_3   0.020893 0.364247 0.400493 0.059118
Cl1   Cl    Cl    0.912405 0.451826 0.097074 -0.511267
Cl2   Cl    Cl    0.087595 0.548174 0.902926 -0.511267
Cl3   Cl    Cl    0.568705 0.953013 0.247560 -0.549717
Cl4   Cl    Cl    0.431295 0.046987 0.752440 -0.549717
Cu1   Cu    Cu3+1 0.509330 0.517380 0.684380 1.105764
Cu2   Cu    Cu3+1 0.490670 0.482620 0.315620 1.105764
H1    H     H_    0.432496 0.381691 0.949198 0.280486
H2    H     H_    0.095163 0.821944 0.447542 0.239192
H3    H     H_    0.567504 0.618309 0.050802 0.280485
H4    H     H_    0.988538 0.147271 0.241407 0.255150
H5    H     H_    0.073259 0.238228 0.181063 0.286692
H6    H     H_    0.011462 0.852726 0.758600 0.255153
H7    H     H_    0.926737 0.761771 0.818933 0.286691
H8    H     H_    0.997240 0.193777 0.684560 0.264995
H9    H     H_    0.904839 0.178054 0.552457 0.239191
H10   H     H_    0.002760 0.806226 0.315445 0.264993
N1    N     N_2   0.476600 0.456420 0.038510 -0.229874
N2    N     N_2   0.523400 0.543580 0.961490 -0.229874
N3    N     N_3   0.044515 0.214797 0.294151 -0.598894
N4    N     N_3   0.955485 0.785203 0.705849 -0.598895
N5    N     N_3   0.944396 0.254966 0.654652 -0.511132
N6    N     N_3   0.055604 0.745034 0.345348 -0.511130
O1    O     O_R   0.506070 0.286130 0.619780 -0.490867
O2    O     O_R   0.493930 0.713870 0.380220 -0.490867
O3    O     O_R   0.490300 0.256770 0.308360 -0.448344
O4    O     O_R   0.509700 0.743230 0.691640 -0.448344
O5    O     O_R   0.386960 0.514660 0.655680 -0.497204
O6    O     O_R   0.613040 0.485340 0.344320 -0.497204
O7    O     O_R   0.371190 0.485310 0.344260 -0.497171
O8    O     O_R   0.628810 0.514690 0.655740 -0.497171

loop_
_geom_bond_atom_site_label_1
_geom_bond_atom_site_label_2
_ccdc_geom_bond_type
C13   O8    A    
Cu1   Cu2   S    
Cu1   O5    S    
H3    N2    S    
C1    C14   S    
Cu2   O2    S    
C2    N4    S    
N1    N2    D    
Cu1   O1    S    
H7    N4    S    
C7    C18   S    
Cu2   O6    S    
C11   O4    A    
C8    C16   S    
C5    Cl2   S    
Cu1   O8    S    
C2    C17   S    
C6    Cl1   S    
H2    N6    S    
H9    N5    S    
H4    N3    S    
H1    N1    S    
C12   O7    A    
C3    C9    T    
C14   Cl3   S    
C16   C18   S    
C18   N3    S    
C13   O6    A    
C6    C18   S    
H10   N6    S    
Cu2   N1    S    
C16   N5    S    
C4    C10   T    
C2    C5    S    
C7    C9    S    
Cu2   O3    S    
H6    N4    S    
C11   O2    A    
C8    C10   S    
Cu1   N2    S    
H8    N5    S    
H5    N3    S    
C4    C13   S    
C5    C7    S    
C6    C17   S    
C14   C15   D    
C5    C16   S    
C6    C8    S    
C3    C12   S    
Cu2   O7    S    
C11   C15   S    
C1    O3    A    
C15   Cl4   S    
C2    C8    S    
Cu1   O4    S    
C1    O1    A    
C12   O5    A    
C7    C17   S    
C17   N6    S    
