data_mof_unit_4144.cif
_audit_creation_date              2012-12-11T16:24:16-0500
_audit_creation_method            fapswitch 2.2
_symmetry_space_group_name_H-M    P1
_symmetry_Int_Tables_number       1
_space_group_crystal_system       triclinic
_cell_length_a                    14.76379
_cell_length_b                    14.70403
_cell_length_c                    33.237441
_cell_angle_alpha                 96.047848
_cell_angle_beta                  96.108524
_cell_angle_gamma                 61.216961
_cell_volume                      6275.90777849

loop_
_atom_site_label
_atom_site_type_symbol
_atom_type_description
_atom_site_fract_x
_atom_site_fract_y
_atom_site_fract_z
_atom_type_partial_charge
C1    C     C_R   0.390980 0.699507 0.446027 0.590053
C2    C     C_1   0.294096 0.346822 0.229608 -0.009293
C3    C     C_3   0.014713 0.808931 0.157424 -0.432149
C4    C     C_2   0.780011 0.509431 0.820082 0.572855
C5    C     C_3   0.178347 0.462780 0.404671 -0.239558
C6    C     C_3   0.129656 0.582078 0.408501 -0.287282
C7    C     C_3   0.074278 0.633420 0.369150 -0.445630
C8    C     C_2   0.164621 0.485473 0.094191 0.570241
C9    C     C_3   0.802676 0.528224 0.418503 -0.236654
C10   C     C_3   0.858225 0.579448 0.401101 -0.331010
C11   C     C_3   0.841954 0.678620 0.426272 -0.441684
C12   C     C_1   0.303266 0.352633 0.265892 -0.010741
C13   C     C_R   0.405629 0.385869 0.434191 0.536440
C14   C     C_R   0.290241 0.293095 0.102193 0.000175
C15   C     C_R   0.767602 0.370461 0.411783 0.017201
C16   C     C_R   0.814286 0.425784 0.397294 -0.009728
C17   C     C_R   0.868744 0.385887 0.361833 -0.096841
C18   C     C_R   0.874952 0.296728 0.339740 0.020020
C19   C     C_R   0.831453 0.241985 0.354713 -0.126104
C20   C     C_R   0.779469 0.277797 0.390423 -0.145863
C21   C     C_R   0.324556 0.353641 0.308766 0.023031
C22   C     C_R   0.972255 0.240636 0.221543 0.351852
C23   C     C_R   0.918284 0.268420 0.299324 0.347389
C24   C     C_R   0.007844 0.312358 0.163812 -0.111617
C25   C     C_R   0.701199 0.410367 0.447180 0.533439
C26   C     C_R   0.014376 0.315211 0.122466 -0.128333
C27   C     C_R   0.989142 0.163519 0.109164 -0.126925
C28   C     C_R   0.981199 0.161480 0.150531 -0.120557
C29   C     C_R   0.989389 0.236561 0.178235 0.035984
C30   C     C_R   0.003414 0.241967 0.094646 0.015223
C31   C     C_R   0.374294 0.744234 0.406586 0.009419
C32   C     C_R   0.427452 0.305659 0.323798 -0.114132
C33   C     C_R   0.317431 0.715786 0.376104 -0.153529
C34   C     C_R   0.320614 0.728930 0.335847 -0.127457
C35   C     C_R   0.379511 0.772325 0.324818 0.009716
C36   C     C_R   0.429924 0.809169 0.355009 -0.122382
C37   C     C_R   0.393457 0.701417 0.561252 0.556829
C38   C     C_R   0.427697 0.796145 0.396242 0.038360
C39   C     C_R   0.373166 0.802910 0.201320 0.330661
C40   C     C_R   0.385923 0.778987 0.281616 0.347032
C41   C     C_R   0.260133 0.830914 0.136395 0.001732
C42   C     C_R   0.236539 0.866895 0.097095 -0.102535
C43   C     C_R   0.451421 0.311245 0.365132 -0.128442
C44   C     C_R   0.388501 0.891152 0.102086 -0.135692
C45   C     C_R   0.414440 0.854002 0.140613 -0.127751
C46   C     C_R   0.350405 0.825863 0.158385 0.041138
C47   C     C_R   0.297686 0.900981 0.080572 0.009224
C48   C     C_R   0.371411 0.368679 0.585043 0.022377
C49   C     C_R   0.407290 0.388637 0.548973 0.545861
C50   C     C_R   0.284483 0.448223 0.603796 -0.131814
C51   C     C_R   0.265329 0.439112 0.642947 -0.120440
C52   C     C_R   0.332891 0.350396 0.663865 0.035546
C53   C     C_R   0.413923 0.267018 0.643618 -0.119061
C54   C     C_R   0.358480 0.233287 0.169601 -0.114168
C55   C     C_R   0.432933 0.276006 0.604511 -0.127247
C56   C     C_R   0.319073 0.349684 0.788817 0.347990
C57   C     C_R   0.325410 0.348298 0.707517 0.347079
C58   C     C_R   0.218799 0.405271 0.850826 -0.117338
C59   C     C_R   0.207457 0.385209 0.889531 -0.123663
C60   C     C_R   0.386585 0.250366 0.893304 -0.126206
C61   C     C_R   0.701369 0.413484 0.562726 0.542563
C62   C     C_R   0.397895 0.270395 0.854688 -0.117565
C63   C     C_R   0.312699 0.344412 0.832327 0.032136
C64   C     C_R   0.289875 0.303995 0.910196 0.022688
C65   C     C_R   0.357458 0.214198 0.127890 -0.144665
C66   C     C_R   0.753296 0.380771 0.603113 0.019685
C67   C     C_R   0.776672 0.448629 0.629763 -0.129161
C68   C     C_R   0.803472 0.428928 0.670693 -0.099504
C69   C     C_R   0.807800 0.341092 0.685360 0.040391
C70   C     C_R   0.791050 0.269814 0.658673 -0.116318
C71   C     C_R   0.764224 0.289293 0.617724 -0.123393
C72   C     C_R   0.885597 0.216192 0.822691 -0.141429
C73   C     C_R   0.372778 0.366352 0.392222 0.028873
C74   C     C_R   0.916334 0.202189 0.863667 -0.132436
C75   C     C_R   0.860968 0.386327 0.875436 -0.129905
C76   C     C_R   0.228781 0.395431 0.119282 0.036387
C77   C     C_R   0.828187 0.402046 0.834255 0.064379
C78   C     C_R   0.844906 0.314544 0.807537 0.019527
C79   C     C_1   0.831542 0.321309 0.764257 0.037233
C80   C     C_1   0.821736 0.328603 0.728160 0.017084
C81   C     C_R   0.908011 0.286419 0.890103 -0.008915
C82   C     C_R   0.376525 0.754776 0.602068 0.022042
C83   C     C_R   0.281577 0.789514 0.619400 -0.123944
C84   C     C_R   0.272602 0.818036 0.660741 -0.110707
C85   C     C_R   0.267439 0.411576 0.377146 0.009035
C86   C     C_R   0.358115 0.812478 0.685131 0.041993
C87   C     C_R   0.229691 0.412848 0.161695 -0.119222
C88   C     C_R   0.450938 0.784375 0.667786 -0.107340
C89   C     C_R   0.460090 0.756053 0.626389 -0.124936
C90   C     C_R   0.399262 0.880421 0.833188 -0.100023
C91   C     C_R   0.378716 0.908817 0.873957 -0.118498
C92   C     C_R   0.228662 0.880787 0.862885 -0.124236
C93   C     C_R   0.249465 0.852362 0.822169 -0.108868
C94   C     C_R   0.332949 0.855056 0.807082 0.041537
C95   C     C_1   0.345380 0.839445 0.764330 -0.016475
C96   C     C_1   0.352361 0.827917 0.728253 -0.017104
C97   C     C_R   0.244748 0.403181 0.335163 -0.092936
C98   C     C_R   0.292777 0.331398 0.186502 0.011644
C99   C     C_R   0.291100 0.912688 0.888896 0.018572
C100  C     C_R   0.015272 0.243346 0.051216 0.558112
C101  C     C_R   0.272929 0.260212 0.059857 0.562313
C102  C     C_R   0.259009 0.959822 0.043842 0.535906
C103  C     C_R   0.962219 0.267827 0.930784 0.555064
C104  C     C_R   0.270881 0.264356 0.945436 0.556818
C105  C     C_R   0.256233 0.964762 0.928996 0.546033
C106  C     C_2   0.479366 0.838937 0.427457 0.570823
C107  C     C_3   0.187408 0.804866 0.156258 -0.243541
C108  C     C_3   0.083519 0.829716 0.132688 -0.319538
Cr1   Cr    Cr6+3 0.576280 0.580550 0.506370 1.034009
Cr2   Cr    Cr6+3 0.346780 0.572400 0.496520 0.997814
Cr3   Cr    Cr6+3 0.576960 0.347070 0.497150 1.018848
Cr4   Cr    Cr6+3 0.087320 0.083240 0.984860 1.016794
Cr5   Cr    Cr6+3 0.087720 0.316210 0.996740 1.064208
Cr6   Cr    Cr6+3 0.317350 0.090340 0.995890 1.015648
H1    H     H_    0.405244 0.135365 0.115962 0.138995
H2    H     H_    0.167607 0.873873 0.079755 0.131532
H3    H     H_    0.408724 0.170370 0.188787 0.129110
H4    H     H_    0.278514 0.702625 0.313175 0.138418
H5    H     H_    0.472219 0.846422 0.346329 0.165549
H6    H     H_    0.437088 0.916865 0.090007 0.132567
H7    H     H_    0.482985 0.850814 0.157311 0.129912
H8    H     H_    0.235182 0.520319 0.589374 0.128160
H9    H     H_    0.499759 0.212866 0.590616 0.132120
H10   H     H_    0.132122 0.428366 0.901958 0.144795
H11   H     H_    0.201436 0.504110 0.657618 0.133426
H12   H     H_    0.745004 0.234404 0.400530 0.129508
H13   H     H_    0.466026 0.196698 0.658682 0.134008
H14   H     H_    0.489611 0.266133 0.303400 0.124805
H15   H     H_    0.152128 0.463786 0.834506 0.145675
H16   H     H_    0.451896 0.188354 0.908807 0.135832
H17   H     H_    0.471950 0.223768 0.841551 0.138228
H18   H     H_    0.952756 0.124198 0.874046 0.137565
H19   H     H_    0.898292 0.149003 0.802380 0.117311
H20   H     H_    0.794445 0.201497 0.669796 0.110529
H21   H     H_    0.746523 0.235605 0.598042 0.127822
H22   H     H_    0.768555 0.519890 0.619552 0.126742
H23   H     H_    0.028516 0.374567 0.112256 0.153180
H24   H     H_    0.852799 0.451769 0.895984 0.167677
H25   H     H_    0.532435 0.276909 0.375649 0.133611
H26   H     H_    0.816477 0.484468 0.691207 0.132418
H27   H     H_    0.428194 0.933116 0.893165 0.135095
H28   H     H_    0.464239 0.882423 0.821708 0.123359
H29   H     H_    0.517473 0.780025 0.686512 0.115097
H30   H     H_    0.534396 0.729224 0.614026 0.128413
H31   H     H_    0.215887 0.789378 0.601514 0.128328
H32   H     H_    0.197906 0.832511 0.802102 0.116864
H33   H     H_    0.160624 0.883031 0.873405 0.132801
H34   H     H_    0.903186 0.426679 0.349900 0.128855
H35   H     H_    0.200330 0.840050 0.673986 0.111355
H36   H     H_    0.182085 0.489748 0.175454 0.145806
H37   H     H_    0.165011 0.436419 0.322975 0.124508
H38   H     H_    0.487249 0.894371 0.485197 0.333134
H39   H     H_    0.054869 0.726864 0.165877 0.191328
H40   H     H_    0.994715 0.861222 0.185435 0.159096
H41   H     H_    0.941966 0.823686 0.139183 0.156672
H42   H     H_    0.041739 0.912969 0.125669 0.154701
H43   H     H_    0.097534 0.780209 0.103942 0.178981
H44   H     H_    0.228477 0.720426 0.161315 0.182374
H45   H     H_    0.835391 0.172643 0.338313 0.135766
H46   H     H_    0.169638 0.849189 0.186186 0.168724
H47   H     H_    0.689968 0.610023 0.777769 0.336386
H48   H     H_    0.131193 0.617562 0.346583 0.157206
H49   H     H_    0.019169 0.605026 0.356368 0.153567
H50   H     H_    0.030328 0.718927 0.375371 0.143315
H51   H     H_    0.072471 0.611931 0.432130 0.140149
H52   H     H_    0.189252 0.606120 0.418825 0.200783
H53   H     H_    0.118472 0.439586 0.393298 0.128118
H54   H     H_    0.204520 0.432888 0.435409 0.135636
H55   H     H_    0.037329 0.625307 0.089252 0.335710
H56   H     H_    0.015114 0.371099 0.184343 0.143446
H57   H     H_    0.758088 0.733948 0.427703 0.209209
H58   H     H_    0.877391 0.660066 0.457527 0.145269
H59   H     H_    0.878693 0.716726 0.412147 0.149677
H60   H     H_    0.942446 0.524970 0.401374 0.157858
H61   H     H_    0.827234 0.600258 0.369510 0.173137
H62   H     H_    0.718975 0.585997 0.417102 0.192834
H63   H     H_    0.832363 0.513899 0.450647 0.169198
H64   H     H_    0.983340 0.104056 0.088602 0.132173
H65   H     H_    0.968041 0.101536 0.160772 0.128848
H66   H     H_    0.275758 0.676161 0.382901 0.135939
N1    N     N_R   0.991821 0.305580 0.248682 -0.232737
N2    N     N_R   0.398548 0.856073 0.268370 -0.221575
N3    N     N_R   0.392079 0.867898 0.228825 -0.223157
N4    N     N_R   0.239890 0.423968 0.766973 -0.229581
N5    N     N_R   0.243340 0.423716 0.727106 -0.232246
N6    N     N_R   0.404414 0.274223 0.729400 -0.231885
N7    N     N_R   0.401143 0.274699 0.769198 -0.231691
N8    N     N_R   0.965450 0.319096 0.286703 -0.242050
N9    N     N_R   0.901524 0.200843 0.272516 -0.227534
N10   N     N_R   0.928140 0.187126 0.234380 -0.229442
N11   N     N_R   0.365507 0.723113 0.214580 -0.242092
N12   N     N_R   0.371463 0.711582 0.254000 -0.232166
O1    O     O_R   0.679450 0.499830 0.463150 -0.534128
O2    O     O_R   0.340240 0.172500 0.045430 -0.521352
O3    O     O_R   0.309670 0.000990 0.032050 -0.504172
O4    O     O_R   0.480650 0.664000 0.464630 -0.463612
O5    O     O_R   0.168330 0.982130 0.939200 -0.516258
O6    O     O_R   0.000140 0.178170 0.944610 -0.494486
O7    O     O_R   0.983010 0.336750 0.948660 -0.509444
O8    O     O_R   0.181800 0.312190 0.959860 -0.488863
O9    O     O_R   0.338500 0.175680 0.956950 -0.516480
O10   O     O_R   0.308050 0.003930 0.950020 -0.498038
O11   O     O_3   0.164130 0.163270 0.992500 -0.273174
O12   O     O_R   0.356040 0.477400 0.534170 -0.504858
O13   O     O_R   0.323930 0.675950 0.455370 -0.534930
O14   O     O_R   0.354700 0.475360 0.451930 -0.513198
O15   O     O_R   0.494470 0.320860 0.448390 -0.512899
O16   O     O_R   0.662580 0.357570 0.460050 -0.499757
O17   O     O_R   0.680900 0.502040 0.551870 -0.521909
O18   O     O_R   0.481990 0.666040 0.546870 -0.492422
O19   O     O_R   0.325370 0.678160 0.544080 -0.517746
O20   O     O_2   0.548871 0.854178 0.418374 -0.554225
O21   O     O_R   0.446366 0.865477 0.466932 -0.688943
O22   O     O_2   0.792463 0.577037 0.840694 -0.530019
O23   O     O_R   0.495910 0.323070 0.537100 -0.515793
O24   O     O_R   0.718480 0.534519 0.783763 -0.698365
O25   O     O_2   0.192241 0.489126 0.061258 -0.504417
O26   O     O_R   0.073864 0.568042 0.108856 -0.734863
O27   O     O_R   0.663920 0.359620 0.542290 -0.499967
O28   O     O_3   0.500010 0.500010 0.500010 -0.241049
O29   O     O_R   0.170070 0.978950 0.027680 -0.528570
O30   O     O_R   0.001760 0.175230 0.026640 -0.499025
O31   O     O_R   0.984760 0.333570 0.037150 -0.498026
O32   O     O_R   0.183410 0.309240 0.041890 -0.484609

loop_
_geom_bond_atom_site_label_1
_geom_bond_atom_site_label_2
_ccdc_geom_bond_type
C34   H4    S    
C48   C55   A    
C6    H52   S    
C11   H57   S    
C93   C94   A    
C4    O24   S    
C22   C29   S    
C74   H18   S    
C104  O8    A    
C41   C42   A    
C95   C96   T    
C50   H8    S    
C27   H64   S    
C1    C31   S    
C26   H23   S    
C2    C12   T    
C102  O3    A    
C107  H46   S    
C90   C91   A    
C25   O1    A    
C54   C65   A    
C77   C78   A    
C52   C53   A    
C59   C64   A    
C82   C89   A    
C9    H62   S    
C83   C84   A    
C60   C62   A    
C28   C29   A    
C9    C16   S    
C24   C26   A    
C18   C19   A    
C22   N1    A    
Cr5   O8    S    
C71   H21   S    
C5    C6    S    
C86   C88   A    
C15   C25   S    
C44   H6    S    
C58   H15   S    
C15   C16   A    
C30   C100  S    
C8    C76   S    
C39   N11   A    
N4    N5    A    
Cr1   O4    S    
Cr2   O12   S    
C34   C35   A    
Cr4   O29   S    
C5    H54   S    
C36   H5    S    
C24   C29   A    
Cr5   O31   S    
C72   C78   A    
C8    O25   D    
C53   H13   S    
C84   C86   A    
C83   H31   S    
C61   C66   S    
C32   C43   A    
C37   O19   A    
Cr2   O19   S    
C16   C17   A    
C87   H36   S    
C40   N12   A    
C17   C18   A    
C107  C108  S    
Cr6   O10   S    
C43   H25   S    
C70   C71   A    
C22   N10   A    
C25   O16   A    
C1    O13   A    
C9    C10   S    
C102  O29   A    
C88   H29   S    
C57   N5    A    
C44   C47   A    
C87   C98   A    
C5    C85   S    
C84   H35   S    
C48   C50   A    
H55   O26   S    
C6    H51   S    
C11   H58   S    
C47   C102  S    
C92   H33   S    
C65   H1    S    
C10   H60   S    
C94   C95   S    
Cr3   O27   S    
C72   H19   S    
Cr1   O17   S    
Cr4   O6    S    
Cr2   O28   S    
C21   C32   A    
N1    N8    A    
C90   C94   A    
C40   N2    A    
C53   C55   A    
Cr5   O7    S    
C15   C20   A    
C99   C105  S    
C7    H48   S    
C55   H9    S    
C56   C63   S    
C4    O22   D    
Cr6   O3    S    
H38   O21   S    
C35   C40   S    
C67   C68   A    
C51   H11   S    
C1    O4    A    
C85   C97   A    
C3    H39   S    
C72   C74   A    
C52   C57   S    
C60   H16   S    
C78   C79   S    
C68   C69   A    
C14   C101  S    
C61   O17   A    
C108  H43   S    
C56   N4    A    
C100  O31   A    
C45   H7    S    
C58   C59   A    
C45   C46   A    
C7    H49   S    
C12   C21   S    
C3    H40   S    
C33   H66   S    
C51   C52   A    
C35   C36   A    
C14   C76   A    
C38   C106  S    
Cr5   O32   S    
C20   H12   S    
C62   C63   A    
C21   C97   A    
C66   C71   A    
C108  H42   S    
C56   N7    A    
C100  O30   A    
C101  O2    A    
C41   C46   A    
C106  O20   D    
C17   H34   S    
C31   C33   A    
C50   C51   A    
C97   H37   S    
Cr6   O9    S    
C93   H32   S    
Cr2   O14   S    
C103  O7    A    
Cr1   O1    S    
C75   C77   A    
C76   C87   A    
C73   C85   A    
C57   N6    A    
C90   H28   S    
C13   O15   A    
C86   C96   S    
C39   C46   S    
N9    N10   A    
C101  O32   A    
C42   H2    S    
C48   C49   S    
C10   H61   S    
H47   O24   S    
C13   C73   S    
C26   C30   A    
C59   H10   S    
C37   C82   S    
C68   H26   S    
C3    H41   S    
C74   C81   A    
Cr1   O18   S    
Cr3   O15   S    
Cr4   O5    S    
C23   N9    A    
C107  H44   S    
C9    H63   S    
C44   C45   A    
C81   C103  S    
C58   C63   A    
C64   C104  S    
C106  O21   S    
C11   H59   S    
Cr6   O2    S    
Cr6   O11   S    
Cr4   O30   S    
C62   H17   S    
C75   C81   A    
C61   O27   A    
Cr3   O23   S    
C75   H24   S    
C6    C7    S    
C91   H27   S    
C3    C108  S    
C89   H30   S    
C7    H50   S    
C49   O23   A    
C31   C38   A    
C43   C73   A    
C60   C64   A    
C19   H45   S    
C24   H56   S    
C32   H14   S    
C19   C20   A    
C36   C38   A    
C67   H22   S    
N6    N7    A    
C4    C77   S    
Cr1   O28   S    
C104  O9    A    
C105  O10   A    
C23   N8    A    
C18   C23   S    
C105  O5    A    
C92   C93   A    
C14   C65   A    
C33   C34   A    
C66   C67   A    
Cr2   O13   S    
C42   C47   A    
Cr5   O11   S    
C69   C70   A    
N11   N12   A    
C28   H65   S    
C37   O18   A    
C49   O12   A    
C8    O26   S    
C10   C11   S    
C79   C80   T    
C41   C107  S    
C88   C89   A    
C2    C98   S    
C82   C83   A    
Cr3   O28   S    
C54   H3    S    
C27   C28   A    
C70   H20   S    
C13   O14   A    
C54   C98   A    
C69   C80   S    
Cr4   O11   S    
C91   C99   A    
C5    H53   S    
Cr3   O16   S    
C103  O6    A    
C39   N3    A    
N2    N3    A    
C92   C99   A    
C27   C30   A    
