data_mof_unit_3429.cif
_audit_creation_date              2012-12-10T20:43:38-0500
_audit_creation_method            fapswitch 2.2
_symmetry_space_group_name_H-M    P1
_symmetry_Int_Tables_number       1
_space_group_crystal_system       triclinic
_cell_length_a                    18.558298
_cell_length_b                    18.684181
_cell_length_c                    19.018224
_cell_angle_alpha                 109.961424
_cell_angle_beta                  109.583874
_cell_angle_gamma                 108.956272
_cell_volume                      5070.63873013

loop_
_atom_site_label
_atom_site_type_symbol
_atom_type_description
_atom_site_fract_x
_atom_site_fract_y
_atom_site_fract_z
_atom_type_partial_charge
C1    C     C_R   0.381577 0.502265 0.380480 0.863229
C2    C     C_R   0.787266 0.758811 0.812385 -0.137166
C3    C     C_R   0.926230 0.720201 0.956823 -0.130996
C4    C     C_R   0.927744 0.710857 0.026546 -0.123591
C5    C     C_R   0.998686 0.773433 0.110045 0.139116
C6    C     C_R   0.289671 0.541196 0.969447 -0.152769
C7    C     C_R   0.205528 0.473599 0.901439 -0.088285
C8    C     C_R   0.170788 0.391129 0.894832 0.105223
C9    C     C_R   0.223640 0.375771 0.953976 -0.199058
C10   C     C_R   0.307578 0.443587 0.022130 -0.118817
C11   C     C_R   0.340376 0.526402 0.030161 -0.104226
C12   C     C_R   0.077554 0.251614 0.757172 -0.244629
C13   C     C_R   0.819701 0.828639 0.581974 0.052190
C14   C     C_R   0.996196 0.184131 0.684800 -0.079864
C15   C     C_R   0.916880 0.182118 0.676165 -0.007437
C16   C     C_R   0.921291 0.246299 0.744028 -0.273676
C17   C     C_R   0.002757 0.314154 0.815932 -0.086688
C18   C     C_R   0.082233 0.318813 0.822089 -0.017050
C19   C     C_R   0.778638 0.143829 0.552069 -0.152736
C20   C     C_R   0.696839 0.082209 0.477087 -0.136498
C21   C     C_R   0.665246 0.992674 0.446785 -0.105008
C22   C     C_R   0.715026 0.964754 0.491914 -0.107578
C23   C     C_R   0.796131 0.026225 0.567680 -0.112520
C24   C     C_R   0.811341 0.817685 0.501566 -0.118882
C25   C     C_R   0.829408 0.116208 0.597557 0.135378
C26   C     C_R   0.737266 0.744925 0.422167 -0.029862
C27   C     C_R   0.676644 0.680025 0.424024 -0.277836
C28   C     C_R   0.687411 0.687723 0.502487 -0.119321
C29   C     C_R   0.757803 0.761728 0.581468 -0.008585
C30   C     C_R   0.642207 0.727278 0.281086 -0.165437
C31   C     C_R   0.624234 0.714392 0.198857 -0.144948
C32   C     C_R   0.683312 0.707222 0.170501 -0.110418
C33   C     C_R   0.620776 0.620350 0.500890 0.886710
C34   C     C_R   0.760559 0.713195 0.224448 -0.121581
C35   C     C_R   0.778896 0.726548 0.306870 -0.109290
C36   C     C_R   0.720014 0.733814 0.335938 0.151953
C37   C     C_R   0.441390 0.809766 0.516806 -0.141668
C38   C     C_R   0.374037 0.727303 0.445906 -0.199479
C39   C     C_R   0.393921 0.670291 0.395979 0.136581
C40   C     C_R   0.481828 0.697480 0.416961 -0.155693
C41   C     C_R   0.549138 0.779808 0.488073 -0.163395
C42   C     C_R   0.529404 0.836416 0.538696 0.190204
C43   C     C_R   0.257749 0.578809 0.253734 -0.252558
C44   C     C_R   0.618403 0.497742 0.619572 0.877963
C45   C     C_R   0.186864 0.497749 0.183731 -0.068463
C46   C     C_R   0.178303 0.418364 0.180092 0.004169
C47   C     C_R   0.245244 0.422856 0.245371 -0.266749
C48   C     C_R   0.316229 0.503782 0.315007 -0.079710
C49   C     C_R   0.322155 0.582964 0.321091 0.001704
C50   C     C_R   0.057458 0.271639 0.131921 -0.167301
C51   C     C_R   0.987246 0.187599 0.067010 -0.121688
C52   C     C_R   0.960715 0.160956 0.980176 -0.106853
C53   C     C_R   0.004206 0.218426 0.958158 -0.132539
C54   C     C_R   0.074204 0.302588 0.022942 -0.104392
C55   C     C_R   0.378305 0.379715 0.498328 0.865398
C56   C     C_R   0.101630 0.330142 0.110437 0.129941
C57   C     C_R   0.204142 0.517008 0.565051 -0.139826
C58   C     C_R   0.219446 0.448887 0.566555 -0.146973
C59   C     C_R   0.223987 0.393962 0.498058 0.138490
C60   C     C_R   0.211960 0.407521 0.427654 -0.130144
C61   C     C_R   0.196186 0.475459 0.426223 -0.120596
C62   C     C_R   0.192610 0.530337 0.494979 -0.105568
C63   C     C_R   0.177088 0.255655 0.500356 -0.253076
C64   C     C_R   0.187369 0.184575 0.499328 -0.076570
C65   C     C_R   0.259919 0.177264 0.497478 -0.007134
C66   C     C_R   0.752527 0.808512 0.788837 0.439394
C67   C     C_R   0.321047 0.241985 0.495539 -0.262482
C68   C     C_R   0.310733 0.313047 0.496504 -0.078002
C69   C     C_R   0.238527 0.320769 0.499100 -0.004631
C70   C     C_R   0.345258 0.116235 0.564375 -0.144935
C71   C     C_R   0.358983 0.046169 0.561265 -0.132163
C72   C     C_R   0.301002 0.962261 0.488610 -0.128658
C73   C     C_R   0.229168 0.948278 0.419006 -0.134916
C74   C     C_R   0.214602 0.017970 0.422211 -0.128987
C75   C     C_R   0.272605 0.102416 0.495061 0.134069
C76   C     C_R   0.544953 0.568541 0.849656 -0.124783
C77   C     C_R   0.744508 0.811701 0.714300 -0.190056
C78   C     C_R   0.615026 0.567811 0.837504 -0.130758
C79   C     C_R   0.600167 0.495071 0.767431 0.129705
C80   C     C_R   0.514710 0.422742 0.710383 -0.137153
C81   C     C_R   0.444942 0.423457 0.723230 -0.120277
C82   C     C_R   0.459958 0.496438 0.792516 -0.112838
C83   C     C_R   0.739598 0.492554 0.816954 -0.264977
C84   C     C_R   0.811881 0.493265 0.808920 -0.084843
C85   C     C_R   0.819805 0.493897 0.737963 -0.014798
C86   C     C_R   0.753423 0.492566 0.675113 -0.260246
C87   C     C_R   0.682167 0.493808 0.684172 -0.067771
C88   C     C_R   0.771517 0.765148 0.663652 0.106828
C89   C     C_R   0.674702 0.494079 0.755529 -0.003960
C90   C     C_R   0.952110 0.567760 0.728199 -0.146653
C91   C     C_R   0.022333 0.568393 0.715659 -0.140852
C92   C     C_R   0.035969 0.496614 0.701147 -0.126443
C93   C     C_R   0.979361 0.424095 0.699095 -0.130664
C94   C     C_R   0.909454 0.423507 0.712325 -0.127454
C95   C     C_R   0.895527 0.495442 0.727115 0.140659
C96   C     C_R   0.998540 0.877542 0.380769 0.874050
C97   C     C_R   0.879258 0.880984 0.500421 0.854083
C98   C     C_R   0.997793 0.118575 0.619458 0.852222
C99   C     C_R   0.806795 0.716283 0.687840 -0.153372
C100  C     C_R   0.120605 0.119005 0.499371 0.872362
C101  C     C_R   0.002164 0.379904 0.881896 0.866971
C102  C     C_R   0.120429 0.498847 0.118806 0.860388
C103  C     C_R   0.000439 0.620391 0.120393 0.868631
C104  C     C_R   0.879446 0.497222 0.877612 0.872578
C105  C     C_R   0.096307 0.764816 0.546440 -0.152498
C106  C     C_R   0.090574 0.778238 0.477228 -0.089711
C107  C     C_R   0.011044 0.727502 0.397952 0.114029
C108  C     C_R   0.939022 0.660017 0.387533 -0.194166
C109  C     C_R   0.944839 0.646983 0.456959 -0.119327
C110  C     C_R   0.814635 0.713268 0.761777 -0.237281
C111  C     C_R   0.023310 0.699610 0.536492 -0.104207
C112  C     C_R   0.003021 0.676744 0.256824 -0.252605
C113  C     C_R   0.001101 0.686980 0.187060 -0.080400
C114  C     C_R   0.001608 0.760895 0.183009 -0.005717
C115  C     C_R   0.999947 0.821927 0.247548 -0.276154
C116  C     C_R   0.001181 0.811664 0.317003 -0.090622
C117  C     C_R   0.005413 0.739902 0.323786 -0.013341
C118  C     C_R   0.066690 0.847276 0.123488 -0.149383
C119  C     C_R   0.064410 0.856762 0.053078 -0.133134
C120  C     C_R   0.994353 0.792801 0.969497 -0.104350
H1    H     H_    0.792642 0.755297 0.869396 0.156099
H2    H     H_    0.669217 0.696999 0.106747 0.125052
H3    H     H_    0.806204 0.707504 0.202391 0.141622
H4    H     H_    0.839039 0.731910 0.348382 0.107543
H5    H     H_    0.425148 0.852929 0.554952 0.129761
H6    H     H_    0.306419 0.707560 0.430304 0.129502
H7    H     H_    0.498031 0.654838 0.378222 0.107299
H8    H     H_    0.616570 0.799323 0.503952 0.127356
H9    H     H_    0.261808 0.639159 0.256758 0.154503
H10   H     H_    0.241265 0.362708 0.242889 0.154072
H11   H     H_    0.077202 0.291227 0.198932 0.127096
H12   H     H_    0.953535 0.143054 0.084070 0.150920
H13   H     H_    0.906502 0.095822 0.929992 0.156247
H14   H     H_    0.983683 0.197734 0.890891 0.144865
H15   H     H_    0.106754 0.346559 0.005124 0.107881
H16   H     H_    0.180508 0.582929 0.493770 0.125952
H17   H     H_    0.200966 0.559306 0.618101 0.122039
H18   H     H_    0.228179 0.439157 0.621178 0.116971
H19   H     H_    0.214049 0.365084 0.373752 0.099810
H20   H     H_    0.186311 0.485417 0.371689 0.139923
H21   H     H_    0.715956 0.848645 0.694927 0.137842
H22   H     H_    0.120710 0.260150 0.501865 0.155098
H23   H     H_    0.377469 0.237492 0.494183 0.155944
H24   H     H_    0.391009 0.181153 0.620712 0.123801
H25   H     H_    0.414846 0.057011 0.614968 0.132988
H26   H     H_    0.311945 0.908159 0.486047 0.119382
H27   H     H_    0.185169 0.883464 0.362451 0.145122
H28   H     H_    0.159052 0.006544 0.367703 0.106027
H29   H     H_    0.405815 0.496935 0.802159 0.123249
H30   H     H_    0.556594 0.624876 0.903527 0.131539
H31   H     H_    0.680688 0.623928 0.882292 0.124006
H32   H     H_    0.826886 0.679364 0.648571 0.127982
H33   H     H_    0.502466 0.365779 0.656673 0.105132
H34   H     H_    0.379268 0.367385 0.679751 0.141478
H35   H     H_    0.734920 0.493048 0.872474 0.154937
H36   H     H_    0.758588 0.493235 0.620134 0.155560
H37   H     H_    0.941941 0.623568 0.738935 0.113661
H38   H     H_    0.065923 0.624350 0.716785 0.120279
H39   H     H_    0.090107 0.496984 0.691057 0.116614
H40   H     H_    0.989523 0.368248 0.686793 0.143562
H41   H     H_    0.865527 0.366856 0.710019 0.101752
H42   H     H_    0.027807 0.689292 0.590117 0.118595
H43   H     H_    0.841204 0.674353 0.777977 0.149739
H44   H     H_    0.157444 0.804747 0.607681 0.120963
H45   H     H_    0.147910 0.828202 0.485396 0.132447
H46   H     H_    0.878322 0.617865 0.325807 0.134097
H47   H     H_    0.888673 0.595769 0.448957 0.133922
H48   H     H_    0.004830 0.620400 0.260011 0.157081
H49   H     H_    0.997984 0.877998 0.243762 0.161484
H50   H     H_    0.121727 0.896470 0.188016 0.123581
H51   H     H_    0.117123 0.913225 0.063216 0.130737
H52   H     H_    0.992895 0.799588 0.914842 0.132010
H53   H     H_    0.871794 0.670172 0.893465 0.128983
H54   H     H_    0.874209 0.654185 0.015340 0.098590
H55   H     H_    0.405381 0.578809 0.082904 0.118962
H56   H     H_    0.315668 0.604964 0.974922 0.119378
H57   H     H_    0.167367 0.485530 0.854124 0.133283
H58   H     H_    0.199353 0.311575 0.947838 0.137853
H59   H     H_    0.347313 0.431844 0.068521 0.136032
H60   H     H_    0.138103 0.253521 0.761669 0.161138
H61   H     H_    0.860983 0.244837 0.739770 0.156671
H62   H     H_    0.802866 0.212967 0.574118 0.125561
H63   H     H_    0.658254 0.103873 0.442136 0.132652
H64   H     H_    0.620095 0.623326 0.363835 0.159314
H65   H     H_    0.602302 0.944949 0.388328 0.125937
H66   H     H_    0.690968 0.895495 0.467908 0.124694
H67   H     H_    0.833333 0.003920 0.602641 0.081774
H68   H     H_    0.595737 0.732469 0.302192 0.120748
H69   H     H_    0.564434 0.709805 0.157058 0.122579
O1    O     O_R   0.408360 0.551710 0.460090 -0.604075
O2    O     O_R   0.948280 0.908380 0.356650 -0.618138
O3    O     O_R   0.960110 0.908350 0.551690 -0.610827
O4    O     O_R   0.856660 0.908370 0.448270 -0.612914
O5    O     O_R   0.051720 0.091580 0.643310 -0.632151
O6    O     O_R   0.948270 0.091600 0.539890 -0.610419
O7    O     O_R   0.143340 0.091590 0.551680 -0.614478
O8    O     O_R   0.039890 0.091610 0.448270 -0.622470
O9    O     O_R   0.051730 0.460050 0.908360 -0.619037
O10   O     O_R   0.948290 0.356630 0.908390 -0.620065
O11   O     O_R   0.143340 0.551690 0.091580 -0.619649
O12   O     O_R   0.408400 0.448280 0.356670 -0.629239
O13   O     O_R   0.039900 0.448270 0.091610 -0.615263
O14   O     O_R   0.051710 0.643320 0.091560 -0.611980
O15   O     O_R   0.948270 0.539900 0.091590 -0.625564
O16   O     O_R   0.960100 0.551680 0.908340 -0.605408
O17   O     O_R   0.856660 0.448270 0.908370 -0.625077
O18   O     O_R   0.591600 0.643340 0.551710 -0.609463
O19   O     O_R   0.591630 0.539900 0.448290 -0.628072
O20   O     O_R   0.591600 0.551720 0.643330 -0.598654
O21   O     O_R   0.591640 0.448290 0.539910 -0.630940
O22   O     O_R   0.408370 0.460100 0.551710 -0.602835
O23   O     O_R   0.408400 0.356660 0.448290 -0.629087
O24   O     O_R   0.051730 0.908360 0.460060 -0.616466
Zn1   Zn    Zn3+2 0.499980 0.569060 0.569060 1.018269
Zn2   Zn    Zn3+2 0.500020 0.430940 0.430940 0.943553
Zn3   Zn    Zn3+2 0.069070 0.999960 0.569030 0.961294
Zn4   Zn    Zn3+2 0.930930 0.999990 0.430930 0.976904
Zn5   Zn    Zn3+2 0.069070 0.569030 0.999960 0.969252
Zn6   Zn    Zn3+2 0.930930 0.430930 0.000000 0.965329
N1    N     N_3   0.597620 0.921183 0.611816 -0.462883
H70   H     H_    0.599384 0.920575 0.667128 0.197679
H71   H     H_    0.659023 0.932122 0.618215 0.174174
Cl1   Cl    Cl    0.717827 0.865530 0.851787 -0.674823
N2    N     N_3   0.889565 0.905651 0.664552 -0.436354
H72   H     H_    0.860237 0.931809 0.696344 0.163841
H73   H     H_    0.926317 0.956574 0.658860 0.193244

loop_
_geom_bond_atom_site_label_1
_geom_bond_atom_site_label_2
_ccdc_geom_bond_type
C78   C79   A    
C33   O19   A    
C34   H3    S    
C5    C114  S    
O11   Zn5   S    
C41   C42   A    
C35   C36   A    
C115  H49   S    
C67   H23   S    
N2    H72   S    
O2    Zn4   S    
N1    H71   S    
C81   C82   A    
C57   C58   A    
N1    H70   S    
C80   H33   S    
C45   C46   A    
C116  C117  A    
O4    Zn4   S    
C7    H57   S    
C26   C27   A    
C93   C94   A    
C73   H27   S    
C92   H39   S    
C10   H59   S    
C96   O2    A    
C13   C29   A    
C28   C29   A    
C103  C113  S    
C76   C78   A    
C44   O20   A    
C42   N1    S    
C109  C111  A    
O5    Zn3   S    
C112  C117  A    
O7    Zn3   S    
C72   H26   S    
O24   Zn3   S    
C83   H35   S    
C106  C107  A    
C118  H50   S    
C62   H16   S    
C15   C16   A    
C112  H48   S    
C108  C109  A    
C98   O5    A    
C17   C18   A    
C34   C35   A    
C73   C74   A    
C97   O4    A    
C37   C42   A    
C17   C101  S    
C103  O15   A    
O12   Zn2   S    
C91   H38   S    
C86   H36   S    
C109  H47   S    
C55   O23   A    
C118  C119  A    
C3    H53   S    
C97   O3    A    
C33   O18   A    
C83   C84   A    
C77   C88   A    
C16   C17   A    
C29   C88   S    
C47   C48   A    
C107  C108  A    
C103  O14   A    
C70   C71   A    
C104  O17   A    
C44   C87   S    
C9    C10   A    
C61   C62   A    
C120  H52   S    
C72   C73   A    
C100  O8    A    
C58   H18   S    
C105  C111  A    
C1    O12   A    
C59   C60   A    
C4    H54   S    
C21   C22   A    
C27   H64   S    
C52   H13   S    
C41   H8    S    
O9    Zn5   S    
C111  H42   S    
O8    Zn4   S    
C19   H62   S    
C112  C113  A    
C38   H6    S    
C78   H31   S    
C14   C98   S    
C37   H5    S    
C100  O7    A    
C38   C39   A    
C83   C89   A    
C54   C56   A    
O16   Zn5   S    
C74   C75   A    
C53   H14   S    
O15   Zn6   S    
C51   C52   A    
C82   H29   S    
C106  H45   S    
C63   C69   A    
C43   H9    S    
O10   Zn6   S    
C84   C85   A    
C3    C120  A    
C76   C82   A    
C91   C92   A    
C55   C68   S    
C101  O9    A    
C8    C9    A    
C47   H10   S    
C65   C67   A    
C58   C59   A    
C85   C86   A    
C99   C110  A    
O18   Zn1   S    
C50   C56   A    
C81   H34   S    
C67   C68   A    
C13   C24   A    
C60   C61   A    
C32   C34   A    
O13   Zn6   S    
C22   H66   S    
C93   H40   S    
C37   C38   A    
C32   H2    S    
O1    Zn1   S    
C31   C32   A    
C14   C15   A    
O23   Zn2   S    
C76   H30   S    
C119  C120  A    
C12   C18   A    
C50   C51   A    
C105  H44   S    
C57   H17   S    
C61   H20   S    
C104  O16   A    
C85   C95   S    
C21   H65   S    
C43   C45   A    
C94   H41   S    
C59   C69   S    
C20   H63   S    
C26   C36   S    
C40   C41   A    
C12   H60   S    
C12   C14   A    
C28   C33   S    
O19   Zn2   S    
C6    C11   A    
C84   C104  S    
C79   C80   A    
C119  H51   S    
C57   C62   A    
C13   N2    S    
C53   C54   A    
C3    C4    A    
O6    Zn4   S    
C52   C53   A    
C113  C114  A    
C105  C106  A    
C2    H1    S    
C74   H28   S    
C66   C77   A    
C108  H46   S    
C46   C47   A    
C35   H4    S    
C66   Cl1   S    
O14   Zn5   S    
C39   C49   S    
C86   C87   A    
C70   H24   S    
C45   C102  S    
C68   C69   A    
C43   C49   A    
C102  O11   A    
C24   C26   A    
C80   C81   A    
C2    C66   A    
N2    H73   S    
C71   H25   S    
C51   H12   S    
C101  O10   A    
C1    C48   S    
C114  C115  A    
C6    C7    A    
O17   Zn6   S    
C99   H32   S    
C31   H69   S    
C11   H55   S    
O20   Zn1   S    
C65   C75   S    
C30   C36   A    
C5    C118  A    
C64   C65   A    
C16   H61   S    
C19   C20   A    
C87   C89   A    
C102  O13   A    
C64   C100  S    
C71   C72   A    
C1    O1    A    
C110  H43   S    
C23   H67   S    
C40   H7    S    
C90   C91   A    
C30   C31   A    
C6    H56   S    
C50   H11   S    
C90   H37   S    
C48   C49   A    
C54   H15   S    
C92   C93   A    
C63   H22   S    
O3    Zn3   S    
C98   O6    A    
C44   O21   A    
C24   C97   S    
C23   C25   A    
C94   C95   A    
C19   C25   A    
C8    C18   S    
C79   C89   S    
C88   C99   A    
C7    C8    A    
C10   C11   A    
C96   O24   A    
C60   H19   S    
C55   O22   A    
C63   C64   A    
C39   C40   A    
C4    C5    A    
O22   Zn1   S    
C20   C21   A    
C15   C25   S    
C46   C56   S    
C70   C75   A    
C22   C23   A    
C96   C116  S    
O21   Zn2   S    
C77   H21   S    
C107  C117  S    
C90   C95   A    
C9    H58   S    
C115  C116  A    
C30   H68   S    
C27   C28   A    
C2    C110  A    
