data_mof_unit_4778.cif
_audit_creation_date              2013-03-05T15:58:56-0500
_audit_creation_method            fapswitch 2.2
_symmetry_space_group_name_H-M    P1
_symmetry_Int_Tables_number       1
_space_group_crystal_system       triclinic
_cell_length_a                    10.717742
_cell_length_b                    12.55109
_cell_length_c                    13.179212
_cell_angle_alpha                 82.567806
_cell_angle_beta                  88.152126
_cell_angle_gamma                 102.631416
_cell_volume                      1712.0564189

loop_
_atom_site_label
_atom_site_type_symbol
_atom_site_description
_atom_site_fract_x
_atom_site_fract_y
_atom_site_fract_z
_atom_type_partial_charge
O1    O     O_R   0.468120 0.366740 0.627160 -0.612230
O2    O     O_R   0.510770 0.544830 0.662520 -0.619119
C1    C     C_R   0.484529 0.438282 0.691974 0.880088
O3    O     O_R   0.663880 0.410950 0.482330 -0.630658
O4    O     O_R   0.706530 0.589040 0.517700 -0.609274
C2    C     C_R   0.741772 0.500105 0.500858 0.829166
Zn1   Zn    Zn3+2 0.471520 0.381090 0.476390 0.948102
Zn2   Zn    Zn3+2 0.528480 0.618910 0.523610 0.978201
O5    O     O_R   0.489230 0.455170 0.337480 -0.618416
O6    O     O_R   0.531880 0.633260 0.372840 -0.591493
O7    O     O_R   0.293470 0.410960 0.482300 -0.620079
O8    O     O_R   0.336120 0.589050 0.517670 -0.646839
C3    C     C_R   0.524594 0.561940 0.308695 0.884323
C4    C     C_R   0.257705 0.499103 0.502816 0.835260
C5    C     C_3   0.897602 0.378819 0.517553 -0.162605
H1    H     H_    0.850796 0.334377 0.456050 0.166410
C6    C     C_3   0.040885 0.380605 0.506354 -0.438428
H2    H     H_    0.069090 0.323552 0.569056 0.189153
H3    H     H_    0.061423 0.350353 0.433090 0.190673
H4    H     H_    0.914864 0.513102 0.337543 0.178156
H5    H     H_    0.134007 0.547600 0.337723 0.168449
C7    C     C_3   0.948533 0.560893 0.400830 -0.413889
C8    C     C_3   0.938103 0.561386 0.594000 -0.187867
C9    C     C_3   0.878280 0.500397 0.504178 0.053907
H6    H     H_    0.880947 0.524419 0.667081 0.122403
C10   C     C_3   0.120933 0.500126 0.505522 0.081567
C11   C     C_3   0.093940 0.572561 0.407645 -0.405672
C12   C     C_3   0.076281 0.543981 0.604138 -0.212552
H7    H     H_    0.071072 0.476739 0.668278 0.156756
H8    H     H_    0.927551 0.643872 0.381233 0.203907
H9    H     H_    0.141001 0.660481 0.409855 0.184717
C13   C     C_R   0.532973 0.730614 0.051212 -0.222861
H10   H     H_    0.524134 0.812189 0.018612 0.209919
C14   C     C_R   0.552646 0.601655 0.199047 -0.186058
C15   C     C_R   0.535082 0.303544 0.830656 -0.252537
C16   C     C_R   0.581736 0.283500 0.927771 0.366409
C17   C     C_R   0.588885 0.363556 0.994056 -0.263800
C18   C     C_R   0.539897 0.458849 0.967625 0.028157
C19   C     C_R   0.483100 0.471871 0.873644 0.020882
C20   C     C_R   0.543545 0.541971 0.031436 0.100780
C21   C     C_R   0.513152 0.643638 0.992150 0.017983
C22   C     C_R   0.449365 0.650519 0.900993 -0.080768
C23   C     C_R   0.414972 0.555398 0.854720 -0.015174
C24   C     C_R   0.562418 0.522677 0.135547 -0.273709
C25   C     C_R   0.556059 0.711224 0.154841 0.301528
C26   C     C_R   0.491669 0.399889 0.801533 -0.167039
H11   H     H_    0.569543 0.441746 0.170439 0.178262
H12   H     H_    0.539514 0.247247 0.775617 0.199265
H13   H     H_    0.635745 0.351261 0.064424 0.177957
C27   C     C_R   0.320924 0.086292 0.351179 -0.079082
H14   H     H_    0.302921 0.254999 0.335086 0.142379
H15   H     H_    0.293895 0.873676 0.324232 0.166370
N1    N     N_R   0.433240 0.222190 0.444680 -0.112043
C28   C     C_R   0.645294 0.799971 0.631180 0.033633
C29   C     C_R   0.671485 0.904551 0.660518 -0.201373
C30   C     C_R   0.615419 0.985609 0.611287 -0.158372
C31   C     C_R   0.531873 0.962109 0.532131 0.014771
C32   C     C_R   0.507908 0.853991 0.505702 0.258231
C33   C     C_R   0.470531 0.040778 0.479016 -0.018131
C34   C     C_R   0.382711 0.008922 0.403527 0.137107
C35   C     C_R   0.359504 0.901006 0.381306 -0.199146
C36   C     C_R   0.422676 0.826222 0.430123 -0.124893
C37   C     C_R   0.493566 0.150804 0.497181 -0.037986
C38   C     C_R   0.348448 0.193495 0.373816 -0.028283
N2    N     N_R   0.566070 0.776970 0.554790 -0.127178
H16   H     H_    0.559397 0.182923 0.551619 0.134235
H17   H     H_    0.686990 0.736214 0.670208 0.142621
H18   H     H_    0.637745 0.064782 0.637916 0.164626
H19   H     H_    0.734296 0.922563 0.721783 0.180001
H20   H     H_    0.402435 0.747084 0.406044 0.203776
C39   C     C_1   0.164481 0.642850 0.633236 0.240351
N3    N     N_1   0.232423 0.720307 0.655504 -0.179263
N4    N     N_R   0.580722 0.802242 0.212780 0.208941
O9    O     O_R   0.677210 0.814025 0.271011 -0.360351
O10   O     O_R   0.528172 0.885631 0.189249 -0.371112
C40   C     C_1   0.399575 0.746295 0.865064 0.202812
N5    N     N_1   0.360393 0.823105 0.836644 -0.148090
N6    N     N_R   0.627778 0.184925 0.956926 0.224940
O11   O     O_R   0.621226 0.110811 0.895503 -0.385789
O12   O     O_R   0.672999 0.166627 0.046422 -0.348274
C41   C     C_1   0.840084 0.314991 0.616708 0.149658
N7    N     N_1   0.795498 0.265148 0.694333 -0.180243
C42   C     C_1   0.282180 0.519619 0.834993 0.178289
N8    N     N_1   0.174206 0.488247 0.825507 -0.224612
C43   C     C_1   0.230445 0.058838 0.274375 0.179836
N9    N     N_1   0.158031 0.036916 0.212897 -0.143210
C44   C     C_1   0.934611 0.680623 0.578856 0.234132
N10   N     N_1   0.932898 0.773291 0.566832 -0.190591

loop_
_geom_bond_atom_site_label_1
_geom_bond_atom_site_label_2
_geom_bond_distance
_ccdc_geom_bond_type
C32   C36   1.399063 A    
C44   N10   1.157606 T    
C23   C42   1.438533 S    
C21   C22   1.403599 A    
C15   C16   1.401585 A    
C29   C30   1.392422 A    
C22   C40   1.450385 S    
C41   N7    1.156926 T    
C5    C41   1.480102 S    
C28   N2    1.356835 A    
C43   N9    1.157308 T    
Zn1   O7    2.024615 S    
C10   C11   1.552383 S    
C6    C10   1.555248 S    
C12   H7    1.105320 S    
H15   C35   1.083182 S    
O4    C2    1.296536 A    
O7    C4    1.303873 A    
N6    O12   1.301659 A    
C31   C33   1.425462 A    
C5    H1    1.113831 S    
C27   C38   1.386490 A    
C30   C31   1.414723 A    
C36   H20   1.061167 S    
C25   N4    1.436863 S    
N4    O9    1.301511 A    
O5    C3    1.311664 A    
C3    C14   1.465333 S    
C27   C43   1.446072 S    
C13   C21   1.404196 A    
C24   H11   1.079089 S    
H5    C11   1.113447 S    
C37   H16   1.076176 S    
C33   C34   1.426287 A    
C8    C44   1.492855 S    
N4    O10   1.301505 A    
O3    Zn1   2.019187 S    
C15   H12   1.082935 S    
C11   H9    1.113016 S    
C14   C24   1.395810 A    
C40   N5    1.157513 T    
O3    C2    1.297683 A    
C14   C25   1.414679 A    
N6    O11   1.302091 A    
C19   C23   1.404733 A    
C28   H17   1.081368 S    
C30   H18   1.076801 S    
N1    C38   1.351452 A    
C34   C35   1.393619 A    
O1    C1    1.306109 A    
C17   C18   1.416390 A    
C17   H13   1.078438 S    
C32   N2    1.367262 A    
Zn2   N2    2.034394 S    
C42   N8    1.154406 T    
Zn2   O8    2.019187 S    
C2    C9    1.464335 S    
C6    H2    1.115669 S    
C13   C25   1.395654 A    
C5    C9    1.572709 S    
C8    C12   1.550972 S    
C4    C10   1.468067 S    
C29   H19   1.082570 S    
C19   C26   1.407356 A    
C20   C21   1.422736 A    
H4    C7    1.113491 S    
C7    C11   1.539756 S    
C7    C9    1.553997 S    
C12   C39   1.487939 S    
C22   C23   1.394095 A    
Zn1   N1    2.046778 S    
C5    C6    1.532981 S    
C28   C29   1.388649 A    
C16   C17   1.405827 A    
C7    H8    1.112888 S    
O1    Zn1   1.970262 S    
C33   C37   1.401959 A    
O2    Zn2   1.926686 S    
H14   C38   1.083240 S    
O8    C4    1.293047 A    
O6    C3    1.300574 A    
O4    Zn2   2.024616 S    
C1    C26   1.471786 S    
C10   C12   1.575231 S    
C27   C34   1.412398 A    
C13   H10   1.083101 S    
O2    C1    1.308548 A    
C39   N3    1.157362 T    
C16   N6    1.441565 S    
C18   C20   1.417201 A    
N1    C37   1.349586 A    
C31   C32   1.415744 A    
C18   C19   1.403983 A    
C6    H3    1.114733 S    
C8    H6    1.113654 S    
C35   C36   1.379545 A    
C8    C9    1.570715 S    
Zn1   O5    1.926686 S    
C20   C24   1.391250 A    
Zn2   O6    1.970260 S    
C15   C26   1.401281 A    
