data_mof_unit_801.cif
_audit_creation_date              2012-12-11T14:40:28-0500
_audit_creation_method            fapswitch 2.2
_symmetry_space_group_name_H-M    P1
_symmetry_Int_Tables_number       1
_space_group_crystal_system       triclinic
_cell_length_a                    19.75118
_cell_length_b                    10.901802
_cell_length_c                    19.48059
_cell_angle_alpha                 89.894141
_cell_angle_beta                  97.458802
_cell_angle_gamma                 90.101245
_cell_volume                      4159.12286791

loop_
_atom_site_label
_atom_site_type_symbol
_atom_type_description
_atom_site_fract_x
_atom_site_fract_y
_atom_site_fract_z
_atom_type_partial_charge
C1    C     C_R   0.707443 0.000203 0.366428 0.568226
C2    C     C_3   0.246967 0.413411 0.570515 0.039774
C3    C     C_3   0.409896 0.657091 0.658515 -0.317916
C4    C     C_3   0.081087 0.974775 0.497676 0.000431
C5    C     C_3   0.008877 0.003952 0.464757 -0.333821
C6    C     C_3   0.874489 0.100179 0.592160 -0.004992
C7    C     C_3   0.909906 0.157097 0.658501 -0.317920
C8    C     C_2   0.832924 0.580573 0.421492 0.548832
C9    C     C_2   0.109659 0.397625 0.555080 0.590407
C10   C     C_2   0.332959 0.080532 0.421499 0.548854
C11   C     C_2   0.609660 0.897636 0.555083 0.590408
C12   C     C_3   0.643646 0.245658 0.926187 -0.006077
C13   C     C_3   0.247025 0.905936 0.431302 0.054393
C14   C     C_3   0.707687 0.199140 0.899626 -0.358102
C15   C     C_3   0.338173 0.207366 0.060061 -0.011682
C16   C     C_3   0.365280 0.140568 0.127356 -0.377231
C17   C     C_3   0.143633 0.745685 0.926181 -0.006091
C18   C     C_3   0.207671 0.699175 0.899612 -0.358111
C19   C     C_3   0.838188 0.707182 0.060120 -0.011667
C20   C     C_3   0.865328 0.640176 0.127330 -0.377191
C21   C     C_3   0.746968 0.913408 0.570514 0.039785
C22   C     C_3   0.690586 0.437193 0.475001 0.245134
C23   C     C_3   0.268411 0.533088 0.540900 0.236458
C24   C     C_3   0.190590 0.937216 0.474997 0.245124
C25   C     C_3   0.768415 0.033082 0.540897 0.236466
C26   C     C_3   0.735849 0.539293 0.510502 -0.145895
C27   C     C_3   0.196347 0.545218 0.498483 -0.148454
C28   C     C_3   0.235864 0.039302 0.510501 -0.145898
C29   C     C_R   0.276969 0.958302 0.637261 0.580067
C30   C     C_3   0.696350 0.045219 0.498482 -0.148453
C31   C     C_3   0.793059 0.504990 0.466440 0.013053
C32   C     C_3   0.176204 0.421665 0.528233 0.029976
C33   C     C_3   0.293073 0.004976 0.466441 0.013043
C34   C     C_3   0.676204 0.921669 0.528234 0.029967
C35   C     C_3   0.822937 0.410295 0.520761 -0.114113
C36   C     C_3   0.202719 0.349605 0.469669 -0.091643
C37   C     C_3   0.322936 0.910270 0.520764 -0.114098
C38   C     C_3   0.702716 0.849605 0.469669 -0.091632
C39   C     C_3   0.764808 0.440504 0.563670 -0.005264
C40   C     C_R   0.207443 0.500203 0.366428 0.568222
C41   C     C_3   0.223504 0.472230 0.439917 0.000420
C42   C     C_3   0.264809 0.940502 0.563670 -0.005252
C43   C     C_3   0.723504 0.972228 0.439916 0.000427
C44   C     C_3   0.512801 0.282940 0.969028 -0.144955
C45   C     C_3   0.477407 0.273873 0.034463 -0.135786
C46   C     C_3   0.012792 0.782955 0.969033 -0.144934
C47   C     C_3   0.977397 0.773873 0.034467 -0.135708
C48   C     C_3   0.565368 0.186129 0.997911 0.243675
C49   C     C_3   0.432485 0.169030 0.001889 0.261524
C50   C     C_3   0.065363 0.686148 0.997912 0.243673
C51   C     C_R   0.776969 0.458303 0.637261 0.580064
C52   C     C_3   0.932480 0.669028 0.001888 0.261531
C53   C     C_3   0.530826 0.176490 0.063511 0.024608
C54   C     C_3   0.467527 0.176882 0.936657 0.027819
C55   C     C_3   0.030821 0.676492 0.063512 0.024602
C56   C     C_3   0.967522 0.676894 0.936657 0.027837
C57   C     C_R   0.536155 0.180009 0.338587 0.552859
C58   C     C_R   0.464793 0.180199 0.662103 0.555204
C59   C     C_R   0.036158 0.680010 0.338589 0.552858
C60   C     C_R   0.964795 0.680199 0.662104 0.555201
C61   C     C_3   0.484563 0.071318 0.031610 -0.129037
C62   C     C_3   0.776219 0.310532 0.485065 -0.118860
C63   C     C_3   0.520544 0.080477 0.965438 -0.130065
C64   C     C_3   0.984561 0.571316 0.031605 -0.129134
C65   C     C_3   0.020544 0.580491 0.965434 -0.130069
C66   C     C_1   0.780797 0.472529 0.913999 0.023318
C67   C     C_1   0.219705 0.470303 0.086406 0.013979
C68   C     C_1   0.280799 0.972531 0.914000 0.023312
C69   C     C_1   0.719723 0.970257 0.086414 0.013982
C70   C     C_1   0.755949 0.432351 0.040310 -0.024153
C71   C     C_1   0.244837 0.426257 0.960941 -0.041593
C72   C     C_1   0.255958 0.932364 0.040315 -0.024044
C73   C     C_3   0.274536 0.342253 0.512120 -0.156412
C74   C     C_1   0.744857 0.926205 0.960953 -0.041471
C75   C     C_1   0.769038 0.454779 0.972208 -0.003797
C76   C     C_1   0.231460 0.450891 0.028525 -0.028026
C77   C     C_1   0.269042 0.954784 0.972211 -0.003728
C78   C     C_1   0.731484 0.950830 0.028538 -0.028008
C79   C     C_1   0.746171 0.406626 0.098190 0.004351
C80   C     C_1   0.254863 0.400870 0.903189 -0.003026
C81   C     C_1   0.246178 0.906638 0.098194 0.004386
C82   C     C_1   0.754875 0.900837 0.903197 -0.002963
C83   C     C_R   0.739417 0.364937 0.360774 0.573247
C84   C     C_3   0.276208 0.810524 0.485064 -0.118850
C85   C     C_R   0.259601 0.366186 0.639847 0.585289
C86   C     C_R   0.239417 0.864938 0.360773 0.573244
C87   C     C_R   0.759602 0.866185 0.639846 0.585295
C88   C     C_R   0.705440 0.996061 0.154751 0.553262
C89   C     C_R   0.294798 0.996614 0.845181 0.552451
C90   C     C_R   0.205434 0.496077 0.154752 0.553263
C91   C     C_R   0.794798 0.496614 0.845181 0.552458
C92   C     C_R   0.560662 0.182666 0.135654 0.549104
C93   C     C_R   0.438765 0.182580 0.864152 0.561660
C94   C     C_R   0.060659 0.682666 0.135653 0.549090
C95   C     C_3   0.774533 0.842245 0.512117 -0.156431
C96   C     C_R   0.938763 0.682582 0.864152 0.561670
C97   C     C_R   0.736011 0.360980 0.164743 0.544687
C98   C     C_R   0.264492 0.358865 0.835980 0.548360
C99   C     C_R   0.236012 0.860984 0.164745 0.544692
C100  C     C_R   0.764494 0.858859 0.835982 0.548354
C101  C     C_1   0.486860 0.172875 0.595413 -0.001697
C102  C     C_1   0.517061 0.172315 0.406542 0.049771
C103  C     C_1   0.986867 0.672876 0.595417 -0.001692
C104  C     C_1   0.017071 0.672318 0.406547 0.049797
C105  C     C_1   0.507568 0.169305 0.466178 0.003861
C106  C     C_3   0.747022 0.405933 0.431304 0.054405
C107  C     C_1   0.498093 0.169566 0.536347 -0.027110
C108  C     C_1   0.007580 0.669310 0.466183 0.003879
C109  C     C_1   0.998105 0.669570 0.536352 -0.027103
C110  C     C_3   0.718433 0.340978 0.528827 -0.118831
C111  C     C_3   0.295714 0.464309 0.480948 -0.122256
C112  C     C_3   0.218423 0.840991 0.528823 -0.118834
C113  C     C_3   0.795715 0.964299 0.480945 -0.122276
C114  C     C_3   0.581084 0.474738 0.497686 0.000428
C115  C     C_3   0.508875 0.503929 0.464769 -0.333815
C116  C     C_3   0.374483 0.600186 0.592168 -0.004991
Cr1   Cr    Cr6+3 0.765830 0.160660 0.268180 1.031231
Cr2   Cr    Cr6+3 0.384070 0.324050 0.751550 1.003273
Cr3   Cr    Cr6+3 0.115930 0.824050 0.248450 1.052906
Cr4   Cr    Cr6+3 0.884070 0.824050 0.751550 1.003282
Cr5   Cr    Cr6+3 0.234170 0.160660 0.731820 1.028366
Cr6   Cr    Cr6+3 0.265830 0.660660 0.268180 1.031253
Cr7   Cr    Cr6+3 0.734170 0.660660 0.731820 1.028371
Cr8   Cr    Cr6+3 0.612110 0.009150 0.248770 1.041456
Cr9   Cr    Cr6+3 0.387890 0.009150 0.751230 1.006107
Cr10  Cr    Cr6+3 0.112110 0.509150 0.248770 1.041427
Cr11  Cr    Cr6+3 0.887890 0.509150 0.751230 1.006106
Cr12  Cr    Cr6+3 0.615930 0.324050 0.248450 1.052912
H1    H     H_    0.795164 0.221227 0.469031 0.162255
H2    H     H_    0.661263 0.123896 0.487710 0.098462
H3    H     H_    0.716529 0.627531 0.527412 0.126906
H4    H     H_    0.161258 0.623894 0.487711 0.098453
H5    H     H_    0.877627 0.398916 0.541597 0.155208
H6    H     H_    0.175509 0.273908 0.439492 0.191072
H7    H     H_    0.377625 0.898869 0.541602 0.155201
H8    H     H_    0.675501 0.773912 0.439493 0.191097
H9    H     H_    0.523762 0.371567 0.944451 0.129249
H10   H     H_    0.461175 0.355600 0.062017 0.131520
H11   H     H_    0.023749 0.871588 0.944458 0.129244
H12   H     H_    0.309101 0.262418 0.522266 0.141536
H13   H     H_    0.961150 0.855584 0.062025 0.131535
H14   H     H_    0.472821 0.984981 0.057989 0.133989
H15   H     H_    0.538629 0.002065 0.936430 0.140384
H16   H     H_    0.972828 0.484964 0.057976 0.133911
H17   H     H_    0.038633 0.502087 0.936423 0.140390
H18   H     H_    0.600184 0.554355 0.530400 0.160395
H19   H     H_    0.579260 0.392251 0.531051 0.122732
H20   H     H_    0.489245 0.430524 0.428074 0.165260
H21   H     H_    0.475052 0.510507 0.505701 0.071215
H22   H     H_    0.508164 0.592535 0.436461 0.188092
H23   H     H_    0.295146 0.721215 0.469028 0.162249
H24   H     H_    0.395498 0.642766 0.547561 0.125219
H25   H     H_    0.387532 0.500711 0.594065 0.149864
H26   H     H_    0.381380 0.635746 0.702614 0.178630
H27   H     H_    0.462464 0.619825 0.669981 0.089078
H28   H     H_    0.414093 0.757568 0.652246 0.168452
H29   H     H_    0.100182 0.054394 0.530390 0.160419
H30   H     H_    0.079265 0.892288 0.531040 0.122720
H31   H     H_    0.989258 0.930557 0.428051 0.165283
H32   H     H_    0.975052 0.010495 0.505688 0.071206
H33   H     H_    0.008157 0.092570 0.436460 0.188083
H34   H     H_    0.809095 0.762405 0.522258 0.141483
H35   H     H_    0.895500 0.142752 0.547550 0.125218
H36   H     H_    0.887538 0.000705 0.594063 0.149868
H37   H     H_    0.881397 0.135751 0.702605 0.178623
H38   H     H_    0.962476 0.119843 0.669962 0.089079
H39   H     H_    0.914095 0.257574 0.652229 0.168459
H40   H     H_    0.839312 0.734554 0.365301 0.339990
H41   H     H_    0.049550 0.431823 0.628739 0.333126
H42   H     H_    0.339415 0.234553 0.365356 0.339964
H43   H     H_    0.549554 0.931840 0.628743 0.333129
H44   H     H_    0.646584 0.346883 0.931660 0.142699
H45   H     H_    0.688909 0.280221 0.559712 0.136594
H46   H     H_    0.600819 0.223894 0.884707 0.148661
H47   H     H_    0.696673 0.108725 0.875245 0.144820
H48   H     H_    0.721524 0.260930 0.858350 0.128456
H49   H     H_    0.750930 0.193264 0.942029 0.177290
H50   H     H_    0.281675 0.199178 0.053159 0.163884
H51   H     H_    0.349399 0.307027 0.064546 0.133503
H52   H     H_    0.416409 0.175862 0.148195 0.168580
H53   H     H_    0.330586 0.156934 0.166902 0.127389
H54   H     H_    0.368937 0.040527 0.118629 0.167705
H55   H     H_    0.146568 0.846909 0.931649 0.142691
H56   H     H_    0.344158 0.481460 0.459294 0.116306
H57   H     H_    0.100805 0.723912 0.884707 0.148668
H58   H     H_    0.196657 0.608760 0.875232 0.144835
H59   H     H_    0.221501 0.760967 0.858334 0.128455
H60   H     H_    0.250917 0.693301 0.942010 0.177296
H61   H     H_    0.781691 0.698976 0.053230 0.163888
H62   H     H_    0.849407 0.806828 0.064712 0.133538
H63   H     H_    0.916443 0.675536 0.148221 0.168582
H64   H     H_    0.830607 0.656279 0.166903 0.127358
H65   H     H_    0.869039 0.540151 0.118467 0.167692
H66   H     H_    0.188892 0.780241 0.559705 0.136574
H67   H     H_    0.844158 0.981444 0.459290 0.116293
H68   H     H_    0.216549 0.127541 0.527413 0.126902
O1    O     O_R   0.783230 0.287800 0.346510 -0.525430
O2    O     O_R   0.454570 0.285140 0.836900 -0.528432
O3    O     O_R   0.045430 0.785140 0.163100 -0.524748
O4    O     O_R   0.954570 0.785140 0.836900 -0.528436
O5    O     O_R   0.677850 0.374730 0.185500 -0.503317
O6    O     O_R   0.322150 0.374730 0.814500 -0.508824
O7    O     O_R   0.177850 0.874730 0.185500 -0.503318
O8    O     O_R   0.822150 0.874730 0.814500 -0.508821
O9    O     O_3   0.664630 0.164620 0.255130 -0.325452
O10   O     O_3   0.335370 0.164620 0.744870 -0.293475
O11   O     O_3   0.164630 0.664620 0.255130 -0.325458
O12   O     O_R   0.216770 0.287800 0.653490 -0.505599
O13   O     O_3   0.835370 0.664620 0.744870 -0.293479
O14   O     O_R   0.760130 0.037060 0.338610 -0.497364
O15   O     O_R   0.239870 0.037060 0.661390 -0.511491
O16   O     O_R   0.260130 0.537060 0.338610 -0.497352
O17   O     O_R   0.739870 0.537060 0.661390 -0.511492
O18   O     O_R   0.666620 0.921370 0.332440 -0.482320
O19   O     O_R   0.333380 0.921370 0.667560 -0.515718
O20   O     O_R   0.166620 0.421370 0.332440 -0.482333
O21   O     O_R   0.833380 0.421370 0.667560 -0.515715
O22   O     O_R   0.557170 0.082420 0.312350 -0.498889
O23   O     O_R   0.283230 0.787800 0.346510 -0.525402
O24   O     O_R   0.442830 0.082420 0.687650 -0.500939
O25   O     O_R   0.057170 0.582420 0.312350 -0.498900
O26   O     O_R   0.942830 0.582420 0.687650 -0.500938
O27   O     O_R   0.548310 0.285980 0.316250 -0.489575
O28   O     O_R   0.451690 0.285980 0.683750 -0.522732
O29   O     O_R   0.048310 0.785980 0.316250 -0.489583
O30   O     O_R   0.951690 0.785980 0.683750 -0.522735
O31   O     O_R   0.680520 0.375500 0.327470 -0.458509
O32   O     O_R   0.319480 0.375500 0.672530 -0.504642
O33   O     O_R   0.180520 0.875500 0.327470 -0.458521
O34   O     O_R   0.716770 0.787800 0.653490 -0.505601
O35   O     O_R   0.819480 0.875500 0.672530 -0.504635
O36   O     O_R   0.780350 0.286970 0.193350 -0.509711
O37   O     O_R   0.219650 0.286970 0.806650 -0.506452
O38   O     O_R   0.280350 0.786970 0.193350 -0.509703
O39   O     O_R   0.719650 0.786970 0.806650 -0.506457
O40   O     O_R   0.757460 0.036290 0.196640 -0.489255
O41   O     O_R   0.242540 0.036290 0.803360 -0.500365
O42   O     O_R   0.257460 0.536290 0.196640 -0.489252
O43   O     O_R   0.742540 0.536290 0.803360 -0.500359
O44   O     O_R   0.663740 0.920540 0.179290 -0.503661
O45   O     O_R   0.554500 0.081650 0.170370 -0.521435
O46   O     O_R   0.336260 0.920540 0.820710 -0.517608
O47   O     O_R   0.163740 0.420540 0.179290 -0.503660
O48   O     O_R   0.836260 0.420540 0.820710 -0.517612
O49   O     O_3   0.622188 0.452384 0.445077 -0.529764
O50   O     O_3   0.303166 0.621225 0.585906 -0.556160
O51   O     O_3   0.122194 0.952433 0.445069 -0.529766
O52   O     O_3   0.803172 0.121218 0.585903 -0.556164
O53   O     O_2   0.884086 0.536951 0.402155 -0.516674
O54   O     O_R   0.808355 0.694127 0.396344 -0.707439
O55   O     O_2   0.069231 0.323761 0.525739 -0.546749
O56   O     O_R   0.445500 0.081650 0.829630 -0.513016
O57   O     O_R   0.094874 0.458427 0.614357 -0.691652
O58   O     O_2   0.384091 0.036844 0.402130 -0.516625
O59   O     O_R   0.308446 0.194151 0.396397 -0.707476
O60   O     O_2   0.569231 0.823773 0.525744 -0.546735
O61   O     O_R   0.594878 0.958442 0.614359 -0.691655
O62   O     O_3   0.635773 0.192791 0.991505 -0.566439
O63   O     O_3   0.361290 0.156259 0.000446 -0.583619
O64   O     O_3   0.135768 0.692826 0.991504 -0.566430
O65   O     O_3   0.861280 0.656319 0.000438 -0.583639
O66   O     O_R   0.054500 0.581650 0.170370 -0.521463
O67   O     O_R   0.945500 0.581650 0.829630 -0.513025
O68   O     O_R   0.545430 0.285140 0.163100 -0.524763

loop_
_geom_bond_atom_site_label_1
_geom_bond_atom_site_label_2
_ccdc_geom_bond_type
C101  C107  T    
C39   C51   S    
C21   C87   S    
C44   H9    S    
C15   H51   S    
C29   C42   S    
C100  O8    A    
Cr9   O10   S    
C19   C20   S    
C24   C112  S    
C104  C108  T    
C56   C96   S    
C35   H5    S    
C20   H63   S    
C114  C115  S    
C69   C78   T    
Cr10  O25   S    
Cr1   O1    S    
C12   H44   S    
Cr8   O18   S    
C51   O21   A    
C57   C102  S    
C105  C107  S    
C13   C84   S    
C48   O62   S    
C14   H47   S    
C21   C25   S    
H42   O59   S    
C102  C105  T    
C68   C77   T    
Cr3   O3    S    
C59   C104  S    
C11   O61   S    
C6    O52   S    
Cr1   O14   S    
C9    O55   D    
C114  H19   S    
Cr1   O9    S    
C3    C116  S    
Cr12  O31   S    
C83   C106  S    
C71   C76   S    
Cr8   O44   S    
Cr5   O41   S    
C26   C39   S    
C29   O19   A    
C114  O49   S    
C54   C63   S    
C15   C16   S    
C88   O44   A    
C18   H59   S    
C25   C30   S    
C108  C109  S    
Cr12  O27   S    
C2    C85   S    
C2    C32   S    
C94   O3    A    
C28   C42   S    
C37   C42   S    
C61   C63   S    
C42   C112  S    
C111  H56   S    
C54   C93   S    
C14   H48   S    
C59   O25   A    
Cr11  O26   S    
Cr4   O4    S    
C67   C90   S    
C12   H46   S    
C53   C61   S    
Cr11  O13   S    
C39   C110  S    
C4    H30   S    
C17   H57   S    
C22   C110  S    
C13   C86   S    
C91   O43   A    
C37   H7    S    
C37   C84   S    
C73   C111  S    
Cr9   O19   S    
C23   C27   S    
C83   O1    A    
C60   C103  S    
C49   C54   S    
C47   H13   S    
C72   C81   T    
C9    C32   S    
C93   O56   A    
C74   C78   S    
C66   C91   S    
C86   O23   A    
C80   C98   S    
C51   O17   A    
C26   H3    S    
Cr12  O68   S    
C7    H37   S    
C45   C53   S    
C26   C31   S    
C10   O58   D    
C90   O47   A    
C27   H4    S    
C113  H67   S    
C62   H1    S    
C40   O20   A    
C36   C41   S    
Cr2   O6    S    
C12   O62   S    
Cr5   O10   S    
C74   C82   T    
C55   C94   S    
Cr6   O11   S    
Cr4   O35   S    
C71   C80   T    
C1    C43   S    
C29   O15   A    
C6    C7    S    
Cr7   O43   S    
C2    C23   S    
Cr9   O56   S    
C48   C53   S    
C88   O40   A    
Cr8   O22   S    
C8    O53   D    
C49   C61   S    
Cr6   O23   S    
C90   O42   A    
Cr2   O28   S    
C10   O59   S    
C89   O41   A    
H43   O61   S    
Cr3   O7    S    
C114  H18   S    
C52   C64   S    
C95   H34   S    
C23   C111  S    
C85   O32   A    
C99   O38   A    
C30   C34   S    
C16   H53   S    
C48   C63   S    
C83   O31   A    
C21   C34   S    
C21   C95   S    
Cr1   O40   S    
Cr2   O32   S    
C22   C106  S    
C64   H16   S    
C115  H20   S    
C18   H58   S    
Cr2   O10   S    
C33   C37   S    
C13   C24   S    
C60   O26   A    
C35   C62   S    
C5    H33   S    
C38   C95   S    
C35   C39   S    
C25   O52   S    
C4    O51   S    
C13   C33   S    
C72   C77   S    
C52   O65   S    
C25   C113  S    
C19   O65   S    
H41   O57   S    
C115  H22   S    
C92   O45   A    
C27   C41   S    
C16   H54   S    
C4    H29   S    
C62   C110  S    
C45   C49   S    
Cr10  O11   S    
C5    H32   S    
C8    O54   S    
C55   C64   S    
C115  H21   S    
C53   C92   S    
C3    H27   S    
C11   O60   D    
C1    O14   A    
Cr9   O46   S    
C58   C101  S    
C84   C112  S    
C6    H35   S    
C17   O64   S    
C17   H55   S    
C69   C88   S    
C112  H66   S    
C116  H25   S    
C92   O68   A    
C2    C73   S    
Cr10  O20   S    
C19   H61   S    
Cr7   O39   S    
C57   O22   A    
C44   C54   S    
C40   C41   S    
Cr6   O38   S    
C7    H38   S    
C116  O50   S    
C28   C33   S    
C96   O67   A    
Cr5   O37   S    
Cr7   O17   S    
C22   C26   S    
Cr4   O8    S    
C31   C106  S    
Cr6   O16   S    
C30   C43   S    
C1    O18   A    
Cr8   O9    S    
Cr3   O11   S    
Cr12  O9    S    
C65   H17   S    
Cr2   O2    S    
Cr4   O30   S    
C20   H65   S    
C116  H24   S    
C15   O63   S    
C44   C45   S    
Cr11  O21   S    
C47   C55   S    
C57   O27   A    
C110  H45   S    
Cr3   O33   S    
Cr4   O13   S    
C96   O4    A    
Cr3   O29   S    
C7    H39   S    
C46   C47   S    
C58   O28   A    
C99   O7    A    
C70   C79   T    
C34   C38   S    
C86   O33   A    
C82   C100  S    
C38   H8    S    
C98   O6    A    
C11   C34   S    
C9    O57   S    
Cr11  O48   S    
C24   C28   S    
C97   O5    A    
C4    C5    S    
C24   O51   S    
C36   H6    S    
C20   H64   S    
C22   O49   S    
C32   C36   S    
C79   C97   S    
C47   C52   S    
C62   C106  S    
C56   C65   S    
C87   O34   A    
H40   O54   S    
C46   C50   S    
Cr1   O36   S    
C58   O24   A    
C50   C55   S    
C17   C18   S    
C81   C99   S    
C103  C109  T    
C64   C65   S    
C23   O50   S    
C98   O37   A    
C93   O2    A    
C12   C14   S    
C38   C43   S    
C44   C48   S    
C30   H2    S    
C84   H23   S    
C43   C113  S    
C49   O63   S    
C73   H12   S    
Cr6   O42   S    
Cr7   O34   S    
C50   O64   S    
C95   C113  S    
C3    H26   S    
C87   O35   A    
C66   C75   T    
Cr7   O13   S    
C31   C35   S    
C18   H60   S    
C3    H28   S    
C28   H68   S    
C94   O66   A    
Cr11  O67   S    
C10   C33   S    
C60   O30   A    
Cr12  O5    S    
Cr5   O15   S    
C6    H36   S    
C59   O29   A    
C50   C65   S    
C14   H49   S    
C36   C73   S    
C27   C32   S    
C19   H62   S    
C97   O36   A    
Cr9   O24   S    
C16   H52   S    
C61   H14   S    
C91   O48   A    
C70   C75   S    
C5    H31   S    
C41   C111  S    
C15   H50   S    
C46   C56   S    
Cr10  O47   S    
C63   H15   S    
C89   O46   A    
C100  O39   A    
C45   H10   S    
C67   C76   T    
Cr5   O12   S    
C68   C89   S    
Cr8   O45   S    
C40   O16   A    
Cr10  O66   S    
C8    C31   S    
C52   C56   S    
C85   O12   A    
C46   H11   S    
