data_mof_unit_1944.cif
_audit_creation_date              2012-12-10T18:05:15-0500
_audit_creation_method            fapswitch 2.2
_symmetry_space_group_name_H-M    P1
_symmetry_Int_Tables_number       1
_space_group_crystal_system       triclinic
_cell_length_a                    9.699142
_cell_length_b                    10.744928
_cell_length_c                    17.098803
_cell_angle_alpha                 84.972247
_cell_angle_beta                  93.221179
_cell_angle_gamma                 88.998718
_cell_volume                      1771.86829887

loop_
_atom_site_label
_atom_site_type_symbol
_atom_type_description
_atom_site_fract_x
_atom_site_fract_y
_atom_site_fract_z
_atom_type_partial_charge
C1    C     C_R   0.500821 0.262730 0.500214 0.801694
C2    C     C_R   0.499177 0.737271 0.499777 0.801914
C3    C     C_R   0.414843 0.945122 0.444485 -0.084531
C4    C     C_R   0.585141 0.054879 0.555508 -0.078596
C5    C     C_R   0.498437 0.871245 0.500162 -0.008094
C6    C     C_R   0.501552 0.128757 0.499830 -0.010066
C7    C     C_R   0.078487 0.407865 0.544981 0.397573
C8    C     C_R   0.921536 0.592207 0.455051 0.466563
C9    C     C_R   0.930002 0.408095 0.542362 -0.116870
C10   C     C_R   0.070019 0.591902 0.457633 -0.092679
C11   C     C_R   0.516769 0.498499 0.650536 0.804833
C12   C     C_R   0.483229 0.501436 0.349466 0.803794
C13   C     C_R   0.525312 0.497408 0.736487 -0.019703
C14   C     C_R   0.474672 0.502267 0.263526 -0.030463
C15   C     C_R   0.404167 0.498428 0.777562 -0.180310
C16   C     C_R   0.595804 0.500801 0.222466 -0.174609
C17   C     C_R   0.411735 0.498149 0.858970 -0.154848
C18   C     C_R   0.588222 0.500807 0.141072 -0.156645
C19   C     C_R   0.541435 0.496885 0.900854 0.384806
C20   C     C_R   0.458516 0.502253 0.099184 0.380554
C21   C     C_R   0.661873 0.495191 0.859792 -0.179329
C22   C     C_R   0.338088 0.504317 0.140234 -0.179078
C23   C     C_R   0.654334 0.495467 0.778235 -0.222576
C24   C     C_R   0.345646 0.504306 0.221777 -0.220845
C25   C     C_R   0.415477 0.074108 0.444723 -0.117962
C26   C     C_R   0.584498 0.925895 0.555275 -0.109505
Cu1   Cu    Cu3+1 0.640660 0.500020 0.500000 1.015554
Cu2   Cu    Cu3+1 0.359340 0.499980 0.500000 1.012549
H1    H     H_    0.696720 0.499432 0.253102 0.191009
H2    H     H_    0.303254 0.499657 0.746929 0.171002
H3    H     H_    0.683844 0.499545 0.111374 0.160173
H4    H     H_    0.316108 0.499084 0.888680 0.156283
H5    H     H_    0.762052 0.493968 0.891256 0.145671
H6    H     H_    0.237904 0.505667 0.108768 0.148456
H7    H     H_    0.749503 0.494321 0.748039 0.157887
H8    H     H_    0.250485 0.505751 0.251963 0.168637
H9    H     H_    0.350824 0.131317 0.401395 0.145988
H10   H     H_    0.649146 0.868685 0.598606 0.148684
H11   H     H_    0.352383 0.903346 0.399818 0.159494
H12   H     H_    0.647599 0.096657 0.600175 0.163212
N1    N     N_2   0.555773 0.497391 0.983770 -0.257812
N2    N     N_2   0.444166 0.501672 0.016272 -0.257425
N3    N     N_R   0.852070 0.500030 0.499980 -0.286062
N4    N     N_R   0.147930 0.499970 0.500020 -0.283311
O1    O     O_R   0.618740 0.319660 0.500000 -0.597072
O2    O     O_R   0.381260 0.680340 0.500000 -0.596981
O3    O     O_R   0.381170 0.319630 0.500010 -0.508520
O4    O     O_R   0.618830 0.680370 0.499990 -0.508189
O5    O     O_R   0.631780 0.498870 0.613920 -0.631750
O6    O     O_R   0.368220 0.501130 0.386080 -0.630800
O7    O     O_R   0.394210 0.498840 0.613930 -0.535793
O8    O     O_R   0.605790 0.501160 0.386070 -0.530014
S1    S     S_3+6 0.161863 0.278914 0.607496 0.055789
O9    O     O_2   0.157392 0.165482 0.561926 -0.193149
O10   O     O_2   0.307531 0.292411 0.638091 -0.288470
O11   O     O_3   0.072464 0.248155 0.688300 -0.523774
H13   H     H_    0.078619 0.324945 0.716317 0.313875
S2    S     S_3+6 0.838211 0.721713 0.393039 0.035085
O12   O     O_2   0.693073 0.707236 0.361897 -0.287598
O13   O     O_2   0.841677 0.834199 0.439557 -0.242996
O14   O     O_3   0.928257 0.753014 0.312466 -0.580397
H14   H     H_    0.903077 0.840633 0.293390 0.384749
C27   C     C_2   0.857178 0.304515 0.582815 0.593115
H15   H     H_    0.791387 0.320817 0.630087 0.044287
O15   O     O_2   0.869969 0.198800 0.562834 -0.483861
C28   C     C_2   0.142906 0.695577 0.417346 0.598789
H16   H     H_    0.208745 0.679436 0.370065 0.052999
O16   O     O_2   0.130156 0.801194 0.437504 -0.504333

loop_
_geom_bond_atom_site_label_1
_geom_bond_atom_site_label_2
_ccdc_geom_bond_type
Cu1   O4    S    
C4    C26   A    
C27   O15   D    
Cu2   O3    S    
C15   C17   A    
C11   O5    A    
C14   C16   A    
C5    C26   A    
N1    N2    D    
C12   O8    A    
C2    O2    A    
C20   N2    S    
C8    N3    A    
Cu2   O2    S    
Cu1   O1    S    
S2    O14   S    
C19   N1    S    
C28   H16   S    
S2    O12   D    
C3    H11   S    
S1    O9    D    
O11   H13   S    
C11   C13   S    
C1    O1    A    
C24   H8    S    
C10   C28   S    
Cu2   O6    S    
C15   H2    S    
Cu1   O5    S    
C8    C10   A    
C19   C21   A    
C20   C22   A    
C25   H9    S    
C23   H7    S    
S1    O10   D    
C13   C15   A    
O14   H14   S    
C22   H6    S    
Cu2   O7    S    
C22   C24   A    
C9    N3    A    
C6    C25   A    
C21   H5    S    
C28   O16   D    
C7    S1    S    
C10   N4    A    
C27   H15   S    
C2    C5    S    
C17   C19   A    
Cu1   N3    S    
C3    C25   A    
C11   O7    A    
Cu1   O8    S    
C13   C23   A    
C18   C20   A    
C16   C18   A    
C4    C6    A    
S1    O11   S    
C14   C24   A    
Cu1   Cu2   S    
C7    C9    A    
C17   H4    S    
C26   H10   S    
C8    S2    S    
C18   H3    S    
C1    C6    S    
C2    O4    A    
C16   H1    S    
C9    C27   S    
S2    O13   D    
C21   C23   A    
C7    N4    A    
C1    O3    A    
C4    H12   S    
C12   C14   S    
C12   O6    A    
C3    C5    A    
Cu2   N4    S    
