data_mof_unit_4183.cif
_audit_creation_date              2012-12-10T19:44:25-0500
_audit_creation_method            fapswitch 2.2
_symmetry_space_group_name_H-M    P1
_symmetry_Int_Tables_number       1
_space_group_crystal_system       triclinic
_cell_length_a                    10.857907
_cell_length_b                    12.295933
_cell_length_c                    13.375854
_cell_angle_alpha                 116.442893
_cell_angle_beta                  77.042473
_cell_angle_gamma                 100.301661
_cell_volume                      1551.8424609

loop_
_atom_site_label
_atom_site_type_symbol
_atom_type_description
_atom_site_fract_x
_atom_site_fract_y
_atom_site_fract_z
_atom_type_partial_charge
C1    C     C_R   0.515463 0.854580 0.286472 0.774974
C2    C     C_R   0.668215 0.747776 0.746243 -0.116955
C3    C     C_R   0.040390 0.948899 0.563274 -0.188724
C4    C     C_R   0.128611 0.007191 0.504829 -0.072447
C5    C     C_R   0.086199 0.071060 0.455554 -0.003441
C6    C     C_R   0.957207 0.070036 0.461605 -0.224235
C7    C     C_R   0.868582 0.006515 0.514717 -0.047618
C8    C     C_R   0.910213 0.946775 0.569344 0.063723
C9    C     C_R   0.176146 0.263606 0.436658 -0.175823
C10   C     C_R   0.243548 0.324566 0.371654 -0.124814
C11   C     C_R   0.305137 0.258534 0.262117 -0.065193
C12   C     C_R   0.736146 0.002557 0.506046 0.791666
C13   C     C_R   0.299803 0.131370 0.217445 -0.118369
C14   C     C_R   0.233055 0.070015 0.282371 -0.115643
C15   C     C_R   0.170661 0.135910 0.392343 0.136620
C16   C     C_R   0.543985 0.268858 0.005790 0.125623
C17   C     C_R   0.477474 0.227701 0.831649 -0.066900
C18   C     C_R   0.465644 0.819201 0.101386 -0.167112
C19   C     C_R   0.430352 0.740779 0.997007 -0.161648
C20   C     C_R   0.435812 0.615279 0.954843 -0.176574
C21   C     C_R   0.483445 0.565519 0.014316 0.104289
C22   C     C_R   0.524914 0.647351 0.118065 0.079289
C23   C     C_R   0.479797 0.145246 0.712490 0.789378
C24   C     C_R   0.492240 0.437678 0.974808 0.055201
C25   C     C_R   0.537263 0.394708 0.041917 0.096269
C26   C     C_R   0.581974 0.478389 0.140037 -0.153896
C27   C     C_R   0.584412 0.601954 0.171969 -0.189630
C28   C     C_R   0.464251 0.351484 0.868491 -0.231709
C29   C     C_R   0.508504 0.186655 0.903447 -0.227143
C30   C     C_R   0.508233 0.773468 0.165419 -0.090531
C31   C     C_R   0.727164 0.357309 0.354683 -0.194855
C32   C     C_R   0.321338 0.757019 0.638933 0.094109
C33   C     C_R   0.283521 0.660446 0.669780 -0.271383
C34   C     C_R   0.262751 0.001615 0.500299 0.792387
C35   C     C_R   0.353568 0.559357 0.619970 -0.203144
C36   C     C_R   0.463552 0.554179 0.538796 -0.003600
C37   C     C_R   0.500088 0.656377 0.512344 0.250174
C38   C     C_R   0.538043 0.451721 0.482622 -0.088301
C39   C     C_R   0.654748 0.458312 0.410091 0.018288
C40   C     C_R   0.694896 0.564340 0.392477 0.307903
C41   C     C_R   0.613256 0.656247 0.437381 -0.280575
C42   C     C_R   0.501069 0.341623 0.494837 0.075802
C43   C     C_R   0.684457 0.251914 0.369555 0.084771
C44   C     C_R   0.644896 0.866451 0.773039 -0.093215
C45   C     C_R   0.723609 0.932755 0.716889 -0.079405
C46   C     C_R   0.824737 0.879062 0.631178 0.096577
C47   C     C_R   0.850182 0.761378 0.609051 -0.099047
C48   C     C_R   0.771633 0.695716 0.665138 -0.158674
Cu1   Cu    Cu3+1 0.529370 0.098270 0.475420 0.950118
Cu2   Cu    Cu3+1 0.470630 0.901730 0.524580 0.944039
H1    H     H_    0.606922 0.696420 0.788938 0.144001
H2    H     H_    0.355712 0.306004 0.211605 0.150000
H3    H     H_    0.345499 0.080112 0.131779 0.142637
H4    H     H_    0.226899 0.971343 0.246118 0.126126
H5    H     H_    0.516659 0.091140 0.875518 0.158397
H6    H     H_    0.618986 0.448717 0.190911 0.204832
H7    H     H_    0.438750 0.378495 0.809991 0.140101
H8    H     H_    0.453932 0.915274 0.134430 0.163831
H9    H     H_    0.401637 0.560098 0.875906 0.124029
H10   H     H_    0.394637 0.777197 0.949817 0.139256
H11   H     H_    0.565760 0.906247 0.837672 0.127259
H12   H     H_    0.636935 0.662869 0.237226 0.151958
H13   H     H_    0.740605 0.174547 0.327570 0.137798
H14   H     H_    0.815064 0.356605 0.297594 0.226748
H15   H     H_    0.415444 0.329169 0.548995 0.115915
H16   H     H_    0.266443 0.835148 0.677850 0.121327
H17   H     H_    0.320401 0.487720 0.647738 0.130800
H18   H     H_    0.199649 0.663867 0.732337 0.149469
H19   H     H_    0.640353 0.726209 0.410044 0.224596
H20   H     H_    0.705815 0.025283 0.739383 0.120663
H21   H     H_    0.931243 0.720289 0.548184 0.196297
H22   H     H_    0.790955 0.604361 0.645512 0.148563
H23   H     H_    0.073284 0.905133 0.605910 0.139101
H24   H     H_    0.926515 0.116082 0.419789 0.161376
H25   H     H_    0.126432 0.315490 0.520640 0.132364
H26   H     H_    0.246639 0.422830 0.405553 0.160945
N1    N     N_R   0.573890 0.246290 0.438210 -0.183665
N2    N     N_R   0.426890 0.754320 0.561170 -0.193535
O1    O     O_R   0.536940 0.972510 0.318130 -0.568428
O2    O     O_R   0.487330 0.806530 0.359650 -0.586955
O3    O     O_R   0.705160 0.082990 0.479250 -0.596377
O4    O     O_R   0.655550 0.917010 0.520760 -0.591753
O5    O     O_R   0.512670 0.193470 0.640350 -0.587769
O6    O     O_R   0.463060 0.027490 0.681870 -0.600029
O7    O     O_R   0.344450 0.082990 0.479240 -0.583516
O8    O     O_R   0.294840 0.917010 0.520750 -0.583312
I1    I     I_    0.626566 0.192768 0.087466 -0.468826
S1    S     S_3+6 0.846020 0.585707 0.313275 -0.040776
O9    O     O_2   0.948789 0.556925 0.354198 -0.294209
O10   O     O_2   0.850010 0.501396 0.189942 -0.302531
O11   O     O_3   0.876437 0.730801 0.328228 -0.545292
H27   H     H_    0.858708 0.729587 0.258271 0.347992

loop_
_geom_bond_atom_site_label_1
_geom_bond_atom_site_label_2
_ccdc_geom_bond_type
C17   C29   A    
C19   C20   A    
Cu2   O6    S    
C7    C8    A    
C28   H7    S    
C26   C27   A    
C17   C23   S    
C31   C43   A    
C32   H16   S    
C36   C37   A    
C38   C42   A    
C5    C6    A    
C18   C19   A    
C34   O8    A    
Cu1   O3    S    
C11   H2    S    
C10   H26   S    
C18   H8    S    
C35   C36   A    
C2    C44   A    
C42   H15   S    
C18   C30   A    
C9    C10   A    
C13   C14   A    
C48   H22   S    
Cu2   N2    S    
C25   C26   A    
C6    H24   S    
C13   H3    S    
C7    C12   S    
C4    C34   S    
C23   O6    A    
C43   H13   S    
Cu1   O7    S    
C24   C25   A    
C3    C8    A    
C10   C11   A    
O11   H27   S    
C29   H5    S    
C2    C48   A    
C16   C29   A    
C45   C46   A    
Cu1   O1    S    
C26   H6    S    
C34   O7    A    
C27   H12   S    
C16   I1    S    
C47   C48   A    
S1    O11   S    
C35   H17   S    
C12   O4    A    
C20   C21   A    
C20   H9    S    
C47   H21   S    
C23   O5    A    
C40   C41   A    
C14   H4    S    
S1    O10   D    
C22   C27   A    
C1    O1    A    
C3    C4    A    
C39   C40   A    
C44   C45   A    
Cu2   O4    S    
C41   H19   S    
C16   C25   A    
C46   C47   A    
C22   C30   A    
C45   H20   S    
C17   C28   A    
C31   H14   S    
C24   C28   A    
C4    C5    A    
Cu2   O2    S    
C6    C7    A    
C44   H11   S    
C43   N1    A    
C37   N2    A    
C32   C33   A    
C40   S1    S    
C36   C38   A    
C9    C15   A    
C11   C13   A    
Cu1   O5    S    
C38   C39   A    
C1    C30   S    
C33   C35   A    
Cu1   N1    S    
C12   O3    A    
C37   C41   A    
C3    H23   S    
C8    C46   S    
C5    C15   S    
C2    H1    S    
Cu2   O8    S    
C32   N2    A    
S1    O9    D    
C42   N1    A    
Cu1   Cu2   S    
C21   C24   A    
C31   C39   A    
C1    O2    A    
C14   C15   A    
C19   H10   S    
C9    H25   S    
C21   C22   A    
C33   H18   S    
