data_mof_unit_1933.cif
_audit_creation_date              2012-12-10T20:21:43-0500
_audit_creation_method            fapswitch 2.2
_symmetry_space_group_name_H-M    P1
_symmetry_Int_Tables_number       1
_space_group_crystal_system       triclinic
_cell_length_a                    19.36413
_cell_length_b                    18.434736
_cell_length_c                    8.924251
_cell_angle_alpha                 90.19094
_cell_angle_beta                  90.186441
_cell_angle_gamma                 90.424265
_cell_volume                      3185.59114952

loop_
_atom_site_label
_atom_site_type_symbol
_atom_type_description
_atom_site_fract_x
_atom_site_fract_y
_atom_site_fract_z
_atom_type_partial_charge
C1    C     C_R   0.365572 0.499812 0.500130 0.997877
C2    C     C_R   0.634102 0.500173 0.499530 1.022781
C3    C     C_R   0.524824 0.726629 0.620776 -0.009739
C4    C     C_R   0.474884 0.273658 0.379107 0.013039
C5    C     C_R   0.473950 0.725451 0.379811 -0.050042
C6    C     C_R   0.525999 0.274314 0.619908 -0.070523
C7    C     C_R   0.525426 0.802962 0.623992 0.316643
C8    C     C_R   0.473997 0.197331 0.375480 0.302748
C9    C     C_R   0.473088 0.801789 0.375908 0.320990
C10   C     C_R   0.526565 0.197969 0.623383 0.319692
C11   C     C_R   0.499377 0.841806 0.499608 -0.216787
C12   C     C_R   0.500078 0.158219 0.499494 -0.221107
C13   C     C_R   0.439209 0.961643 0.533568 -0.034994
C14   C     C_R   0.560114 0.038378 0.464877 -0.039392
C15   C     C_R   0.559921 0.962164 0.464785 -0.040061
C16   C     C_R   0.439404 0.037861 0.533672 -0.038329
C17   C     C_R   0.499864 0.076998 0.499370 0.190031
C18   C     C_R   0.499476 0.923025 0.499174 0.186889
C19   C     C_R   0.500428 0.499949 0.218373 1.018500
C20   C     C_R   0.500372 0.500054 0.781632 1.025187
C21   C     C_1   0.500684 0.499914 0.065265 -0.048132
C22   C     C_1   0.500721 0.500044 0.934729 -0.072487
C23   C     C_R   0.744020 0.472649 0.370639 0.311283
C24   C     C_R   0.253644 0.543642 0.603136 0.430059
C25   C     C_R   0.253099 0.456747 0.393478 0.320650
C26   C     C_R   0.746472 0.527987 0.621198 0.406547
C27   C     C_R   0.815812 0.473218 0.369814 -0.203648
C28   C     C_R   0.181825 0.543755 0.599062 -0.215517
C29   C     C_R   0.181394 0.458375 0.392996 -0.197049
C30   C     C_R   0.818157 0.529667 0.615455 -0.205003
C31   C     C_R   0.852422 0.502139 0.490912 -0.046110
C32   C     C_R   0.145818 0.501453 0.494859 -0.039907
C33   C     C_R   0.709001 0.500375 0.497090 -0.300460
C34   C     C_R   0.290130 0.499706 0.499421 -0.316476
C35   C     C_R   0.963423 0.567670 0.506130 -0.149059
C36   C     C_R   0.033767 0.436422 0.476139 -0.152499
C37   C     C_R   0.035002 0.567558 0.506865 -0.156490
C38   C     C_R   0.962245 0.436739 0.473200 -0.155123
C39   C     C_R   0.070485 0.501860 0.492641 0.148964
C40   C     C_R   0.927172 0.502284 0.489000 0.142467
H1    H     H_    0.543877 0.696550 0.715526 0.206927
H2    H     H_    0.455478 0.304007 0.284810 0.235930
H3    H     H_    0.453481 0.694399 0.286612 0.198415
H4    H     H_    0.546583 0.305183 0.713254 0.216230
H5    H     H_    0.392103 0.932655 0.560966 0.170896
H6    H     H_    0.607233 0.067363 0.437560 0.162647
H7    H     H_    0.606906 0.933579 0.437475 0.164518
H8    H     H_    0.392433 0.066449 0.561080 0.169145
N1    N     N_R   0.500000 0.689440 0.500000 -0.147285
N2    N     N_R   0.500000 0.310560 0.500000 -0.159294
O1    O     O_R   0.398180 0.560840 0.499960 -0.581411
O2    O     O_R   0.601820 0.439160 0.500040 -0.595003
O3    O     O_R   0.601820 0.560840 0.500040 -0.578430
O4    O     O_R   0.398180 0.439160 0.499960 -0.564305
O5    O     O_R   0.500000 0.560800 0.285330 -0.657580
O6    O     O_R   0.500000 0.439200 0.714670 -0.620019
O7    O     O_R   0.500000 0.560800 0.714670 -0.612749
O8    O     O_R   0.500000 0.439200 0.285330 -0.567342
Zn1   Zn    Zn3+2 0.500000 0.581210 0.500000 1.048584
Zn2   Zn    Zn3+2 0.500000 0.418790 0.500000 1.076091
S1    S     S_3+6 0.699832 0.441553 0.208379 0.080829
O9    O     O_2   0.654276 0.501497 0.153894 -0.255122
O10   O     O_2   0.749691 0.421754 0.086374 -0.228651
O11   O     O_3   0.650667 0.368660 0.248515 -0.509373
H9    H     H_    0.682657 0.333835 0.295937 0.349848
S2    S     S_3+6 0.294851 0.596576 0.744475 0.050661
O12   O     O_2   0.331676 0.659876 0.674161 -0.264631
O13   O     O_2   0.242759 0.624708 0.854508 -0.280068
O14   O     O_3   0.351995 0.545151 0.836603 -0.579328
H10   H     H_    0.370482 0.577131 0.916874 0.372561
S3    S     S_3+6 0.293416 0.402357 0.255243 0.076063
O15   O     O_2   0.324266 0.337083 0.329278 -0.233899
O16   O     O_2   0.242076 0.377034 0.139269 -0.243978
O17   O     O_3   0.355868 0.449925 0.169513 -0.559101
H11   H     H_    0.333959 0.496332 0.141441 0.347785
S4    S     S_3+6 0.705702 0.555903 0.788543 0.067743
O18   O     O_2   0.655526 0.497939 0.835681 -0.283955
O19   O     O_2   0.758037 0.567922 0.911138 -0.239299
O20   O     O_3   0.663182 0.633547 0.758123 -0.545860
H12   H     H_    0.643025 0.646326 0.856535 0.395852
H13   H     H_    0.843656 0.452525 0.273860 0.197136
H14   H     H_    0.153417 0.575988 0.679204 0.195449
H15   H     H_    0.152755 0.426740 0.311065 0.194293
H16   H     H_    0.847804 0.550634 0.709421 0.196167
H17   H     H_    0.936250 0.618547 0.517628 0.165125
H18   H     H_    0.060347 0.385096 0.467452 0.162068
H19   H     H_    0.062594 0.618654 0.517388 0.161620
H20   H     H_    0.934193 0.385946 0.461495 0.160478
S5    S     S_3+6 0.558914 0.847786 0.784457 0.070725
O21   O     O_2   0.626876 0.882614 0.745329 -0.257120
O22   O     O_2   0.509522 0.905413 0.834628 -0.214975
O23   O     O_3   0.571055 0.788359 0.924579 -0.538310
H21   H     H_    0.590742 0.817527 0.007996 0.410400
S6    S     S_3+6 0.439947 0.152871 0.215152 0.087079
O24   O     O_2   0.488900 0.094968 0.164299 -0.226595
O25   O     O_2   0.371856 0.118454 0.254744 -0.243673
O26   O     O_3   0.427884 0.212529 0.075411 -0.491005
H22   H     H_    0.408689 0.183401 0.991400 0.411369
S7    S     S_3+6 0.438728 0.845134 0.215795 0.070524
O27   O     O_2   0.370471 0.878171 0.255662 -0.252529
O28   O     O_2   0.487325 0.903982 0.165047 -0.220348
O29   O     O_3   0.426947 0.784883 0.075848 -0.522674
H23   H     H_    0.407971 0.813471 0.991643 0.417327
S8    S     S_3+6 0.560667 0.154279 0.783361 0.068643
O30   O     O_2   0.511803 0.095590 0.833709 -0.218974
O31   O     O_2   0.628812 0.120984 0.743519 -0.265049
O32   O     O_3   0.572602 0.214316 0.923639 -0.506691
H24   H     H_    0.591361 0.185534 0.007789 0.410086

loop_
_geom_bond_atom_site_label_1
_geom_bond_atom_site_label_2
_ccdc_geom_bond_type
C15   C18   A    
S2    O13   D    
C11   C18   S    
O5    Zn1   S    
S4    O20   S    
C15   H7    S    
C4    C8    A    
C16   H8    S    
S8    O31   D    
O26   H22   S    
C3    N1    A    
C14   H6    S    
O4    Zn2   S    
C7    C11   A    
C13   C18   A    
C35   C37   A    
S4    O19   D    
C29   H15   S    
C29   C32   A    
C3    C7    A    
O14   H10   S    
C30   C31   A    
O7    Zn1   S    
S2    O14   S    
O8    Zn2   S    
C7    S5    S    
C31   C40   S    
C32   C39   S    
S1    O10   D    
O2    Zn2   S    
C16   C17   A    
C23   C33   A    
C12   C17   S    
C26   S4    S    
O32   H24   S    
C25   S3    S    
C23   C27   A    
S5    O22   D    
C24   S2    S    
C25   C34   A    
S2    O12   D    
C5    H3    S    
C9    S7    S    
C38   C40   A    
C6    H4    S    
C21   C22   T    
C25   C29   A    
C14   C17   A    
C5    N1    A    
S1    O9    D    
C10   C12   A    
S8    O30   D    
C1    C34   S    
C19   O8    A    
O3    Zn1   S    
O17   H11   S    
C28   H14   S    
O29   H23   S    
C28   C32   A    
C8    S6    S    
S4    O18   D    
S3    O16   D    
S6    O26   S    
C36   H18   S    
C27   C31   A    
C24   C34   A    
O6    Zn2   S    
C38   H20   S    
S1    O11   S    
C1    O4    A    
C5    C9    A    
C1    O1    A    
C26   C33   A    
S7    O27   D    
C27   H13   S    
C8    C12   A    
C6    N2    A    
S5    O23   S    
S6    O25   D    
C9    C11   A    
C2    O2    A    
C2    C33   S    
S7    O28   D    
C20   C22   S    
C26   C30   A    
O1    Zn1   S    
C19   O5    A    
C3    H1    S    
C19   C21   S    
C37   H19   S    
C36   C39   A    
C24   C28   A    
C2    O3    A    
C6    C10   A    
S3    O17   S    
N1    Zn1   S    
N2    Zn2   S    
O11   H9    S    
C36   C38   A    
C35   C40   A    
S5    O21   D    
S3    O15   D    
C37   C39   A    
C13   H5    S    
C35   H17   S    
C4    H2    S    
C10   S8    S    
O23   H21   S    
C20   O6    A    
C30   H16   S    
S6    O24   D    
O20   H12   S    
C23   S1    S    
S7    O29   S    
C13   C16   A    
C4    N2    A    
C14   C15   A    
C20   O7    A    
S8    O32   S    
