data_mof_unit_4863.cif
_audit_creation_date              2012-12-11T17:02:19-0500
_audit_creation_method            fapswitch 2.2
_symmetry_space_group_name_H-M    P1
_symmetry_Int_Tables_number       1
_space_group_crystal_system       triclinic
_cell_length_a                    21.667825
_cell_length_b                    7.06162
_cell_length_c                    14.903746
_cell_angle_alpha                 89.99996
_cell_angle_beta                  106.458409
_cell_angle_gamma                 90.0
_cell_volume                      2186.98259024

loop_
_atom_site_label
_atom_site_type_symbol
_atom_type_description
_atom_site_fract_x
_atom_site_fract_y
_atom_site_fract_z
_atom_type_partial_charge
O1    O     O_R   0.585850 0.505770 0.002130 -0.531896
O2    O     O_R   0.414150 0.005770 0.997870 -0.531896
O3    O     O_R   0.467530 0.173560 0.861970 -0.519255
O4    O     O_R   0.532470 0.673560 0.138030 -0.519255
C1    C     C_R   0.455455 0.344908 0.825031 0.779943
C2    C     C_R   0.544545 0.844908 0.174969 0.779943
O5    O     O_R   0.588690 0.175900 0.993250 -0.529191
O6    O     O_R   0.411310 0.675900 0.006750 -0.529191
O7    O     O_R   0.536170 0.007950 0.130090 -0.534560
O8    O     O_R   0.463830 0.507950 0.869910 -0.534560
C3    C     C_R   0.615037 0.344969 0.997401 0.723258
C4    C     C_R   0.384963 0.844970 0.002599 0.723257
O9    O     O_3   0.482630 0.339970 0.044740 -0.376005
O10   O     O_3   0.517370 0.839970 0.955260 -0.376005
V1    V     V_3+5 0.503220 0.064200 0.991700 1.571930
V2    V     V_3+5 0.496780 0.564200 0.008300 1.571930
C5    C     C_R   0.277346 0.010009 0.960583 0.181067
C6    C     C_R   0.722654 0.510009 0.039417 0.181066
C7    C     C_R   0.315897 0.854310 0.999693 -0.143714
C8    C     C_R   0.684103 0.354310 0.000307 -0.143714
C9    C     C_R   0.285703 0.703285 0.032450 -0.123406
C10   C     C_R   0.714297 0.203285 0.967550 -0.123406
H1    H     H_    0.313345 0.580558 0.063559 0.139760
H2    H     H_    0.686655 0.080558 0.936441 0.139760
C11   C     C_R   0.220367 0.713496 0.030474 -0.175197
C12   C     C_R   0.779633 0.213496 0.969526 -0.175197
H3    H     H_    0.199728 0.597390 0.059555 0.125308
H4    H     H_    0.800272 0.097390 0.940445 0.125307
C13   C     C_R   0.183345 0.876563 0.997066 -0.109074
C14   C     C_R   0.816655 0.376563 0.002934 -0.109073
C15   C     C_R   0.212879 0.021094 0.959886 0.048979
C16   C     C_R   0.787121 0.521094 0.040114 0.048979
C17   C     C_3   0.217678 0.226755 0.982992 -0.460992
C18   C     C_3   0.782322 0.726755 0.017008 -0.460992
C19   C     C_3   0.287861 0.215226 0.983748 0.234471
C20   C     C_3   0.712139 0.715225 0.016252 0.234472
H5    H     H_    0.211407 0.255612 0.053229 0.130941
H6    H     H_    0.788592 0.755612 0.946771 0.130941
H7    H     H_    0.187001 0.313925 0.925307 0.217592
H8    H     H_    0.812999 0.813925 0.074693 0.217592
H9    H     H_    0.322535 0.240279 0.053599 0.054933
H10   H     H_    0.677465 0.740280 0.946402 0.054934
C21   C     C_R   0.926467 0.880277 0.723946 -0.031631
C22   C     C_R   0.073533 0.380276 0.276054 -0.031631
C23   C     C_R   0.570912 0.861060 0.277011 -0.098777
C24   C     C_R   0.429088 0.361059 0.722989 -0.098777
C25   C     C_R   0.935834 0.803914 0.570507 -0.155406
C26   C     C_R   0.064166 0.303921 0.429493 -0.155406
C27   C     C_R   0.964318 0.831116 0.665796 -0.171141
C28   C     C_R   0.035682 0.331121 0.334204 -0.171141
C29   C     C_R   0.859943 0.902380 0.686930 -0.210987
C30   C     C_R   0.140057 0.402377 0.313069 -0.210987
C31   C     C_R   0.829744 0.876171 0.590307 0.085042
C32   C     C_R   0.170256 0.376170 0.409693 0.085042
C33   C     C_R   0.869033 0.824049 0.532529 0.129473
C34   C     C_R   0.130967 0.324053 0.467472 0.129473
C35   C     C_R   0.762032 0.898859 0.549346 0.056314
C36   C     C_R   0.237968 0.398856 0.450654 0.056314
C37   C     C_R   0.734035 0.850279 0.453299 0.069617
C38   C     C_R   0.265965 0.350280 0.546701 0.069617
C39   C     C_R   0.775524 0.809641 0.398034 -0.089773
C40   C     C_R   0.224476 0.309646 0.601967 -0.089773
C41   C     C_R   0.841581 0.795239 0.437047 -0.210372
C42   C     C_R   0.158419 0.295247 0.562954 -0.210371
C43   C     C_R   0.722024 0.978777 0.599499 -0.183425
C44   C     C_R   0.277976 0.478770 0.400500 -0.183425
C45   C     C_R   0.657623 0.016797 0.556052 -0.171798
C46   C     C_R   0.342378 0.516789 0.443947 -0.171798
C47   C     C_R   0.629639 0.965175 0.463150 0.105669
C48   C     C_R   0.370361 0.465170 0.536849 0.105669
C49   C     C_R   0.665988 0.865175 0.412937 0.011217
C50   C     C_R   0.334012 0.365174 0.587063 0.011217
C51   C     C_R   0.565781 0.016544 0.419337 -0.147349
C52   C     C_R   0.434220 0.516538 0.580662 -0.147350
C53   C     C_R   0.538164 0.974564 0.325422 -0.230991
C54   C     C_R   0.461836 0.474561 0.674577 -0.230993
C55   C     C_R   0.632513 0.790723 0.323509 0.339323
C56   C     C_R   0.367487 0.290723 0.676491 0.339323
H11   H     H_    0.871506 0.762789 0.391793 0.136258
H12   H     H_    0.128494 0.262801 0.608208 0.136258
H13   H     H_    0.490658 0.028927 0.290452 0.118250
H14   H     H_    0.509343 0.528923 0.709547 0.118250
H15   H     H_    0.629561 0.088934 0.595431 0.116938
H16   H     H_    0.370440 0.588922 0.404566 0.116938
H17   H     H_    0.965995 0.765057 0.526513 0.121064
H18   H     H_    0.034005 0.265069 0.473488 0.121064
H19   H     H_    0.015748 0.811398 0.694466 0.114885
H20   H     H_    0.984252 0.311406 0.305535 0.114885
H21   H     H_    0.832967 0.932181 0.736001 0.087652
H22   H     H_    0.167033 0.432174 0.263998 0.087652
H23   H     H_    0.758187 0.800110 0.322889 0.219043
H24   H     H_    0.241813 0.300119 0.677111 0.219043
H25   H     H_    0.739975 0.025945 0.670906 0.116229
H26   H     H_    0.260026 0.525934 0.329091 0.116228
H27   H     H_    0.538353 0.098076 0.456371 0.125948
H28   H     H_    0.461648 0.598067 0.543627 0.125948
O11   O     O_R   0.036080 0.231270 0.130120 -0.538288
O12   O     O_R   0.963920 0.731270 0.869880 -0.538288
O13   O     O_R   0.911300 0.558970 0.006750 -0.539830
O14   O     O_R   0.088700 0.058970 0.993250 -0.539830
C57   C     C_R   0.884709 0.389907 0.001184 0.702743
C58   C     C_R   0.115291 0.889907 0.998816 0.702743
O15   O     O_R   0.032450 0.561140 0.138040 -0.540684
O16   O     O_R   0.967550 0.061140 0.861960 -0.540685
O17   O     O_R   0.085870 0.728910 0.002130 -0.541848
O18   O     O_R   0.914130 0.228910 0.997870 -0.541848
C59   C     C_R   0.044894 0.392114 0.174983 0.691643
C60   C     C_R   0.955106 0.892114 0.825016 0.691643
O19   O     O_3   0.017320 0.394650 0.955270 -0.372946
O20   O     O_3   0.982680 0.894650 0.044730 -0.372946
V3    V     V_3+5 0.996780 0.670490 0.008300 1.422697
V4    V     V_3+5 0.003220 0.170490 0.991700 1.422697
Cl1   Cl    Cl    0.304314 0.345464 0.890624 -0.618743
Cl2   Cl    Cl    0.695686 0.845462 0.109376 -0.618744
Cl3   Cl    Cl    0.659585 0.585083 0.277816 -0.620904
Cl4   Cl    Cl    0.340414 0.085086 0.722185 -0.620903

loop_
_geom_bond_atom_site_label_1
_geom_bond_atom_site_label_2
_ccdc_geom_bond_type
C44   C46   A    
C45   H15   S    
C2    C23   S    
C51   C53   A    
C27   H19   S    
C20   H10   S    
O1    C3    A    
O16   C60   A    
C20   Cl2   S    
C2    O7    A    
C24   C54   A    
C25   C27   A    
C41   H11   S    
O5    C3    A    
C17   H7    S    
C52   C54   A    
C18   H8    S    
C25   H17   S    
C10   H2    S    
O15   V3    S    
C7    C9    A    
O19   V3    S    
C35   C37   A    
C38   C50   A    
C36   C38   A    
O12   C60   A    
C14   C57   S    
C58   O17   A    
C38   C40   A    
C47   C49   A    
O20   V3    S    
C50   C56   A    
C17   C19   S    
C30   H22   S    
C36   C44   A    
C43   C45   A    
C33   C41   A    
C48   C52   A    
C40   C42   A    
C15   C17   S    
C47   C51   A    
C18   C20   S    
C28   H20   S    
C44   H26   S    
C22   C30   A    
C26   C28   A    
O17   V3    S    
C25   C33   A    
O2    C4    A    
O6    V2    S    
C42   H12   S    
C30   C32   A    
C56   Cl4   S    
C31   C33   A    
C11   C13   A    
C32   C34   A    
C3    C8    S    
C37   C39   A    
C48   C50   A    
C46   H16   S    
C52   H28   S    
O4    C2    A    
O19   V4    S    
C54   H14   S    
C24   C56   A    
O11   V4    S    
C31   C35   A    
C21   C27   A    
O18   V4    S    
C17   H5    S    
C40   H24   S    
C29   C31   A    
C16   C18   S    
O4    V2    S    
O6    C4    A    
O13   V3    S    
O14   C58   A    
O1    V2    S    
O2    V1    S    
O13   C57   A    
C8    C10   A    
O14   V4    S    
C9    H1    S    
C5    C15   A    
C26   H18   S    
C6    C16   A    
C51   H27   S    
C49   C55   A    
O3    V1    S    
O16   V4    S    
C32   C36   A    
C22   C59   S    
C22   C28   A    
C57   O18   A    
C26   C34   A    
C9    C11   A    
O12   V3    S    
C18   H6    S    
C39   C41   A    
C53   H13   S    
C35   C43   A    
O3    C1    A    
O15   C59   A    
C12   C14   A    
C11   H3    S    
C1    C24   S    
C12   H4    S    
C23   C53   A    
O7    V1    S    
C1    O8    A    
C13   C15   A    
O8    V2    S    
C29   H21   S    
C14   C16   A    
C21   C29   A    
C34   C42   A    
C4    C7    S    
O5    V1    S    
C43   H25   S    
C5    C7    A    
C13   C58   S    
C19   Cl1   S    
C6    C8    A    
C21   C60   S    
C19   H9    S    
O20   V4    S    
O11   C59   A    
C46   C48   A    
C10   C12   A    
O9    V2    S    
O10   V1    S    
C23   C55   A    
C5    C19   S    
C45   C47   A    
C55   Cl3   S    
C6    C20   S    
C39   H23   S    
C37   C49   A    
