data_mof_unit_2306.cif
_audit_creation_date              2012-12-11T15:50:41-0500
_audit_creation_method            fapswitch 2.2
_symmetry_space_group_name_H-M    P1
_symmetry_Int_Tables_number       1
_space_group_crystal_system       triclinic
_cell_length_a                    6.923821
_cell_length_b                    14.449928
_cell_length_c                    16.238081
_cell_angle_alpha                 90.000012
_cell_angle_beta                  89.999986
_cell_angle_gamma                 90.0
_cell_volume                      1624.59913706

loop_
_atom_site_label
_atom_site_type_symbol
_atom_type_description
_atom_site_fract_x
_atom_site_fract_y
_atom_site_fract_z
_atom_type_partial_charge
O1    O     O_R   0.638140 0.833910 0.163320 -0.540636
O2    O     O_R   0.361860 0.166090 0.836680 -0.540636
O3    O     O_R   0.361860 0.166090 0.663320 -0.540636
O4    O     O_R   0.638140 0.833910 0.336680 -0.540636
O5    O     O_R   0.138140 0.666090 0.336680 -0.540636
O6    O     O_R   0.861860 0.333910 0.663320 -0.540636
O7    O     O_R   0.861860 0.333910 0.836680 -0.540636
O8    O     O_R   0.138140 0.666090 0.163320 -0.540636
O9    O     O_R   0.308390 0.844930 0.336080 -0.529011
O10   O     O_R   0.691610 0.155070 0.663920 -0.529011
O11   O     O_R   0.691610 0.155070 0.836080 -0.529011
O12   O     O_R   0.308390 0.844930 0.163920 -0.529011
O13   O     O_R   0.808390 0.655070 0.163920 -0.529011
O14   O     O_R   0.191610 0.344930 0.836080 -0.529011
O15   O     O_R   0.191610 0.344930 0.663920 -0.529011
O16   O     O_R   0.808390 0.655070 0.336080 -0.529011
C1    C     C_R   0.476784 0.868761 0.363783 0.731731
C2    C     C_R   0.523216 0.131239 0.636217 0.731731
C3    C     C_R   0.523216 0.131239 0.863783 0.731732
C4    C     C_R   0.476784 0.868761 0.136217 0.731732
C5    C     C_R   0.976784 0.631239 0.136217 0.731732
C6    C     C_R   0.023216 0.368761 0.863783 0.731732
C7    C     C_R   0.023216 0.368761 0.636217 0.731731
C8    C     C_R   0.976784 0.631239 0.363783 0.731731
O17   O     O_3   0.471620 0.691320 0.250000 -0.354059
O18   O     O_3   0.528380 0.308680 0.750000 -0.354059
O19   O     O_3   0.971620 0.808680 0.250000 -0.354059
O20   O     O_3   0.028380 0.191320 0.750000 -0.354059
V1    V     V_3+5 0.196770 0.760880 0.250000 1.552324
V2    V     V_3+5 0.803230 0.239120 0.750000 1.552324
V3    V     V_3+5 0.696770 0.739120 0.250000 1.552324
V4    V     V_3+5 0.303230 0.260880 0.750000 1.552324
C9    C     C_R   0.838721 0.496463 0.447549 0.183035
C10   C     C_R   0.161279 0.503537 0.552451 0.183035
C11   C     C_R   0.161280 0.503536 0.947550 0.183036
C12   C     C_R   0.838720 0.496464 0.052450 0.183036
C13   C     C_R   0.338718 0.003535 0.052449 0.183037
C14   C     C_R   0.661281 0.996465 0.947551 0.183036
C15   C     C_R   0.661278 0.996463 0.552451 0.183035
C16   C     C_R   0.338721 0.003537 0.447549 0.183035
C17   C     C_R   0.854693 0.435353 0.514195 -0.159235
C18   C     C_R   0.145307 0.564647 0.485805 -0.159235
C19   C     C_R   0.145309 0.564646 0.014196 -0.159235
C20   C     C_R   0.854691 0.435354 0.985804 -0.159234
C21   C     C_R   0.354690 0.064645 0.985803 -0.159234
C22   C     C_R   0.645310 0.935354 0.014197 -0.159233
C23   C     C_R   0.645307 0.935353 0.485805 -0.159235
C24   C     C_R   0.354693 0.064647 0.514195 -0.159235
C25   C     C_R   0.014374 0.437296 0.567518 -0.123878
C26   C     C_R   0.985626 0.562704 0.432482 -0.123878
C27   C     C_R   0.985626 0.562704 0.067518 -0.123878
C28   C     C_R   0.014374 0.437296 0.932482 -0.123878
C29   C     C_R   0.514374 0.062704 0.932482 -0.123878
C30   C     C_R   0.485626 0.937296 0.067518 -0.123878
C31   C     C_R   0.485626 0.937296 0.432482 -0.123878
C32   C     C_R   0.514374 0.062704 0.567518 -0.123878
I1    I     I_    0.590798 0.477109 0.372370 -0.320126
I2    I     I_    0.409201 0.522891 0.627630 -0.320126
I3    I     I_    0.409206 0.522889 0.872372 -0.320128
I4    I     I_    0.590794 0.477111 0.127628 -0.320127
I5    I     I_    0.090791 0.022887 0.127627 -0.320129
I6    I     I_    0.909209 0.977113 0.872373 -0.320130
I7    I     I_    0.909200 0.977109 0.627631 -0.320126
I8    I     I_    0.090799 0.022891 0.372369 -0.320126
H1    H     H_    0.741619 0.384599 0.523504 0.158986
H2    H     H_    0.258381 0.615401 0.476496 0.158986
H3    H     H_    0.258384 0.615399 0.023505 0.158987
H4    H     H_    0.741616 0.384601 0.976494 0.158987
H5    H     H_    0.241613 0.115397 0.976493 0.158988
H6    H     H_    0.758387 0.884603 0.023507 0.158988
H7    H     H_    0.758381 0.884599 0.476496 0.158986
H8    H     H_    0.241619 0.115401 0.523504 0.158986

loop_
_geom_bond_atom_site_label_1
_geom_bond_atom_site_label_2
_ccdc_geom_bond_type
O17   V3    S    
O18   V4    S    
O12   V1    S    
O19   V1    S    
C10   C18   A    
C19   C27   A    
O15   V4    S    
O16   V3    S    
O5    C8    A    
O11   C3    A    
O8    V1    S    
O2    V4    S    
C6    C28   S    
C7    C25   S    
O1    V3    S    
O3    C2    A    
C11   I3    S    
C16   C24   A    
O11   V2    S    
O1    C4    A    
C11   C19   A    
C1    C31   S    
C2    C32   S    
C3    C29   S    
O15   C7    A    
C21   C29   A    
O16   C8    A    
O7    V2    S    
O17   V1    S    
O12   C4    A    
C24   H8    S    
C17   C25   A    
O5    V1    S    
C8    C26   S    
C22   H6    S    
C21   H5    S    
O20   V4    S    
C4    C30   S    
C17   H1    S    
C9    C26   A    
C15   C23   A    
O19   V3    S    
O10   V2    S    
C15   C32   A    
C16   C31   A    
C22   C30   A    
O8    C5    A    
O13   C5    A    
C10   I2    S    
C23   H7    S    
C12   C27   A    
C18   C26   A    
C13   C30   A    
O9    C1    A    
O6    V2    S    
O18   V2    S    
C12   C20   A    
O4    C1    A    
C13   C21   A    
C5    C27   S    
C23   C31   A    
C24   C32   A    
C10   C25   A    
C9    I1    S    
O2    C3    A    
O13   V3    S    
O14   V4    S    
C12   I4    S    
C13   I5    S    
O9    V1    S    
O7    C6    A    
C15   I7    S    
C16   I8    S    
C9    C17   A    
O14   C6    A    
O20   V2    S    
C20   C28   A    
C14   C29   A    
O10   C2    A    
O6    C7    A    
O3    V4    S    
C14   C22   A    
O4    V3    S    
C20   H4    S    
C19   H3    S    
C11   C28   A    
C18   H2    S    
C14   I6    S    
