data_mof_unit_2713.cif
_audit_creation_date              2012-12-10T18:12:38-0500
_audit_creation_method            fapswitch 2.2
_symmetry_space_group_name_H-M    P1
_symmetry_Int_Tables_number       1
_space_group_crystal_system       triclinic
_cell_length_a                    12.622461
_cell_length_b                    13.088765
_cell_length_c                    15.720992
_cell_angle_alpha                 90.538114
_cell_angle_beta                  102.708695
_cell_angle_gamma                 82.255873
_cell_volume                      2510.0134024

loop_
_atom_site_label
_atom_site_type_symbol
_atom_type_description
_atom_site_fract_x
_atom_site_fract_y
_atom_site_fract_z
_atom_type_partial_charge
C1    C     C_R   0.438421 0.691491 0.489660 0.891154
C2    C     C_3   0.501951 0.500814 0.917408 0.024409
C3    C     C_3   0.469467 0.412089 0.020811 0.394519
C4    C     C_3   0.498386 0.499809 0.082638 0.023975
C5    C     C_3   0.571178 0.421267 0.984594 0.395896
C6    C     C_3   0.601282 0.509072 0.047687 -0.248720
C7    C     C_1   0.503261 0.501241 0.826656 0.059071
C8    C     C_1   0.496856 0.499523 0.173357 0.053986
C9    C     C_R   0.683465 0.072250 0.645434 -0.079600
C10   C     C_R   0.596909 0.200796 0.533797 -0.055842
C11   C     C_R   0.307681 0.837280 0.409550 0.389039
C12   C     C_R   0.500986 0.500385 0.661859 0.883571
C13   C     C_R   0.283908 0.941875 0.388398 -0.156395
C14   C     C_R   0.353602 0.009838 0.428970 -0.232304
C15   C     C_R   0.446849 0.974750 0.495221 0.098819
C16   C     C_R   0.460455 0.872556 0.526595 -0.021198
C17   C     C_R   0.526878 0.037955 0.531459 0.049756
C18   C     C_R   0.607080 0.006024 0.608603 0.048574
C19   C     C_R   0.607133 0.909898 0.647493 0.373128
C20   C     C_R   0.536256 0.843344 0.605566 -0.240267
C21   C     C_R   0.529250 0.132274 0.492137 -0.202434
C22   C     C_R   0.676923 0.170219 0.608998 -0.192265
C23   C     C_R   0.561103 0.308807 0.511526 0.855179
C24   C     C_R   0.398143 0.801564 0.477941 -0.181974
C25   C     C_R   0.089233 0.343847 0.381622 -0.277056
C26   C     C_R   0.799441 0.631059 0.601610 -0.035558
C27   C     C_R   0.903766 0.660324 0.622321 0.381653
C28   C     C_R   0.985049 0.610775 0.583517 -0.250680
C29   C     C_R   0.962372 0.531055 0.523801 -0.041518
C30   C     C_R   0.854788 0.503905 0.505110 0.212065
C31   C     C_R   0.041812 0.477411 0.482147 0.018089
C32   C     C_R   0.012207 0.397829 0.423088 0.177028
C33   C     C_R   0.906196 0.372548 0.406166 -0.252936
C34   C     C_R   0.498970 0.499798 0.338133 0.900345
C35   C     C_R   0.828816 0.424800 0.446723 -0.162307
C36   C     C_R   0.150295 0.498978 0.496708 0.008280
C37   C     C_R   0.194964 0.368776 0.399084 0.039849
C38   C     C_3   0.428423 0.580172 0.015659 -0.164174
C39   C     C_3   0.531205 0.589450 0.978962 -0.164144
C40   C     C_1   0.503020 0.501069 0.751242 -0.129926
C41   C     C_1   0.496947 0.499474 0.248747 -0.128298
C42   C     C_3   0.399076 0.491510 0.952366 -0.243311
H1    H     H_    0.556407 0.662340 0.959706 0.195387
H2    H     H_    0.474551 0.157475 0.430852 0.141687
H3    H     H_    0.213695 0.970285 0.337269 0.188175
H4    H     H_    0.539186 0.769090 0.636428 0.176222
H5    H     H_    0.255959 0.327527 0.368055 0.137081
H6    H     H_    0.882879 0.311825 0.361361 0.170005
H7    H     H_    0.067979 0.282876 0.336529 0.161767
H8    H     H_    0.180684 0.557542 0.540270 0.133103
H9    H     H_    0.735584 0.669164 0.631295 0.186091
H10   H     H_    0.064449 0.636302 0.601514 0.176736
H11   H     H_    0.749147 0.401376 0.431205 0.208759
H12   H     H_    0.683854 0.515739 0.088336 0.193314
H13   H     H_    0.316717 0.483935 0.911757 0.195390
H14   H     H_    0.745321 0.050834 0.704205 0.217748
N1    N     N_R   0.222180 0.444680 0.455580 -0.103100
N2    N     N_R   0.776980 0.554790 0.543960 -0.157791
O1    O     O_R   0.366730 0.627160 0.478790 -0.563416
O2    O     O_R   0.544830 0.662520 0.507160 -0.617364
O3    O     O_R   0.410960 0.482330 0.609040 -0.615338
O4    O     O_R   0.589060 0.517690 0.637410 -0.606891
O5    O     O_R   0.455170 0.337480 0.492840 -0.615514
O6    O     O_R   0.633270 0.372840 0.521210 -0.636852
O7    O     O_R   0.410940 0.482310 0.362590 -0.583025
O8    O     O_R   0.589040 0.517670 0.390960 -0.631248
Zn1   Zn    Zn3+2 0.381080 0.476390 0.481050 0.999916
Zn2   Zn    Zn3+2 0.618920 0.523610 0.518950 0.955897
Cl1   Cl    Cl    0.225010 0.754671 0.344668 -0.569461
H15   H     H_    0.330928 0.089789 0.408706 0.151148
H16   H     H_    0.369893 0.645485 0.030462 0.191899
Cl2   Cl    Cl    0.933311 0.758964 0.696483 -0.515523
Cl3   Cl    Cl    0.665617 0.316194 0.962017 -0.507462
Cl4   Cl    Cl    0.428628 0.294783 0.050480 -0.517043
H17   H     H_    0.729287 0.223969 0.642427 0.175964
Cl5   Cl    Cl    0.693443 0.869431 0.748931 -0.533734

loop_
_geom_bond_atom_site_label_1
_geom_bond_atom_site_label_2
_ccdc_geom_bond_type
O8    Zn2   S    
C3    C42   S    
C35   H11   S    
C11   C13   A    
C19   C20   A    
C4    C8    S    
C34   O8    A    
C10   C22   A    
C26   C27   A    
C30   C35   A    
O6    Zn2   S    
C19   Cl5   S    
N1    Zn1   S    
C38   C42   S    
C1    O1    A    
C38   C39   S    
C9    C22   A    
C15   C16   A    
C20   H4    S    
C11   C24   A    
C18   C19   A    
C3    Cl4   S    
C25   C37   A    
C2    C39   S    
C2    C7    S    
O7    Zn1   S    
C7    C40   T    
C37   H5    S    
O1    Zn1   S    
C25   C32   A    
C23   O5    A    
C16   C24   A    
C13   C14   A    
C14   H15   S    
C34   C41   S    
C22   H17   S    
C6    H12   S    
C34   O7    A    
C10   C21   A    
O5    Zn1   S    
C8    C41   T    
C4    C6    S    
C36   N1    A    
C1    O2    A    
C39   H1    S    
C17   C21   A    
C12   C40   S    
C29   C30   A    
C42   H13   S    
C21   H2    S    
C12   O4    A    
O3    Zn1   S    
C31   C32   A    
C14   C15   A    
C16   C20   A    
C17   C18   A    
C9    H14   S    
C26   N2    A    
N2    Zn2   S    
C23   O6    A    
C4    C38   S    
C2    C5    S    
C3    C4    S    
C36   H8    S    
C15   C17   A    
C38   H16   S    
C28   C29   A    
C31   C36   A    
C3    C5    S    
C11   Cl1   S    
C10   C23   S    
O4    Zn2   S    
C32   C33   A    
C29   C31   A    
C26   H9    S    
C13   H3    S    
C12   O3    A    
C28   H10   S    
C5    C6    S    
C2    C42   S    
C30   N2    A    
C33   C35   A    
C5    Cl3   S    
C25   H7    S    
C9    C18   A    
O2    Zn2   S    
C1    C24   S    
C27   C28   A    
C33   H6    S    
C6    C39   S    
C37   N1    A    
C27   Cl2   S    
