data_mof_unit_1683.cif
_audit_creation_date              2012-12-10T18:04:49-0500
_audit_creation_method            fapswitch 2.2
_symmetry_space_group_name_H-M    P1
_symmetry_Int_Tables_number       1
_space_group_crystal_system       triclinic
_cell_length_a                    10.851824
_cell_length_b                    9.595265
_cell_length_c                    17.738562
_cell_angle_alpha                 90.004413
_cell_angle_beta                  92.521159
_cell_angle_gamma                 89.99885
_cell_volume                      1845.25989513

loop_
_atom_site_label
_atom_site_type_symbol
_atom_type_description
_atom_site_fract_x
_atom_site_fract_y
_atom_site_fract_z
_atom_type_partial_charge
C1    C     C_R   0.262344 0.500484 0.501143 0.778969
C2    C     C_R   0.737656 0.500482 0.498857 0.778958
C3    C     C_1   0.498536 0.474016 0.966188 0.092280
C4    C     C_1   0.502146 0.473991 0.033828 0.092640
C5    C     C_R   0.063526 0.377209 0.503525 -0.203859
C6    C     C_R   0.935987 0.629500 0.499598 -0.175338
C7    C     C_R   0.936487 0.377200 0.496567 -0.203787
C8    C     C_R   0.064003 0.629502 0.500335 -0.175340
C9    C     C_R   0.502029 0.499170 0.355615 0.840980
C10   C     C_R   0.498001 0.499180 0.644386 0.840976
C11   C     C_R   0.871591 0.502577 0.497781 -0.010148
C12   C     C_R   0.128410 0.502584 0.502226 -0.010173
C13   C     C_R   0.473954 0.607103 0.848578 0.455809
C14   C     C_R   0.489878 0.356795 0.156223 0.458403
C15   C     C_R   0.526371 0.607074 0.151455 0.455825
C16   C     C_R   0.510831 0.356919 0.843763 0.457960
C17   C     C_R   0.466549 0.611516 0.769743 -0.298051
C18   C     C_R   0.484557 0.365783 0.235001 -0.281225
C19   C     C_R   0.533578 0.611515 0.230288 -0.298075
C20   C     C_R   0.515894 0.365855 0.764991 -0.280364
C21   C     C_R   0.494175 0.493280 0.727414 -0.168639
C22   C     C_R   0.506014 0.493252 0.272591 -0.168403
C23   C     C_R   0.421272 0.075243 0.451956 0.386788
C24   C     C_R   0.572412 0.925365 0.551480 0.384277
C25   C     C_R   0.578718 0.075255 0.548050 0.386813
C26   C     C_R   0.427567 0.925350 0.448530 0.384412
C27   C     C_R   0.494764 0.479130 0.885422 -0.086778
C28   C     C_R   0.505839 0.479059 0.114595 -0.086329
Cu1   Cu    Cu3+1 0.500000 0.640660 0.500000 1.015967
Cu2   Cu    Cu3+1 0.500000 0.359340 0.500000 1.016452
H1    H     H_    0.439490 0.707325 0.742161 0.165538
H2    H     H_    0.464056 0.272665 0.266564 0.195163
H3    H     H_    0.560434 0.707375 0.257888 0.165538
H4    H     H_    0.536385 0.272705 0.733439 0.195308
H5    H     H_    0.110544 0.279043 0.509814 0.142690
H6    H     H_    0.887874 0.728405 0.499879 0.157185
H7    H     H_    0.889478 0.279017 0.490356 0.142723
H8    H     H_    0.112106 0.728406 0.499987 0.157239
N1    N     N_R   0.500000 0.852070 0.500000 -0.269753
N2    N     N_R   0.500000 0.147930 0.500000 -0.269725
O1    O     O_R   0.319640 0.618740 0.499990 -0.558116
O2    O     O_R   0.680360 0.381260 0.500010 -0.554528
O3    O     O_R   0.680360 0.618740 0.500010 -0.558146
O4    O     O_R   0.319640 0.381260 0.499990 -0.554530
O5    O     O_R   0.500000 0.618830 0.391250 -0.545663
O6    O     O_R   0.500000 0.381170 0.608750 -0.548535
O7    O     O_R   0.500000 0.618830 0.608750 -0.545625
O8    O     O_R   0.500000 0.381170 0.391250 -0.548528
O9    O     O_3   0.455933 0.727370 0.889540 -0.588062
C29   C     C_3   0.571756 0.791508 0.903397 -0.297010
H9    H     H_    0.606940 0.835450 0.850525 0.148696
H10   H     H_    0.640809 0.718791 0.930110 0.173671
H11   H     H_    0.561072 0.878803 0.943430 0.201663
O10   O     O_3   0.473135 0.231031 0.118652 -0.571021
C30   C     C_3   0.564684 0.135148 0.143963 -0.291082
H12   H     H_    0.535752 0.080462 0.195469 0.153569
H13   H     H_    0.656920 0.184553 0.154390 0.152820
H14   H     H_    0.575948 0.055962 0.099364 0.207887
O11   O     O_3   0.544308 0.727371 0.110512 -0.588003
C31   C     C_3   0.428426 0.791382 0.096641 -0.297915
H15   H     H_    0.393045 0.835017 0.149520 0.148368
H16   H     H_    0.359556 0.718668 0.069777 0.173975
H17   H     H_    0.439079 0.878872 0.056746 0.201705
O12   O     O_3   0.527813 0.231135 0.881228 -0.570991
C32   C     C_3   0.434611 0.136374 0.856986 -0.290235
H18   H     H_    0.460720 0.082272 0.804634 0.153352
H19   H     H_    0.342382 0.186739 0.848401 0.152967
H20   H     H_    0.424860 0.056573 0.901436 0.207532
O13   O     O_3   0.342448 0.150437 0.403635 -0.544794
C33   C     C_3   0.218488 0.109634 0.411814 -0.273587
H21   H     H_    0.158274 0.197788 0.393712 0.175538
H22   H     H_    0.198407 0.080680 0.470865 0.123290
H23   H     H_    0.191844 0.022471 0.373627 0.186822
O14   O     O_3   0.642367 0.851711 0.604899 -0.541355
C34   C     C_3   0.603052 0.884097 0.677793 -0.280964
H24   H     H_    0.635301 0.799910 0.716501 0.178917
H25   H     H_    0.500893 0.893129 0.679590 0.130757
H26   H     H_    0.645399 0.981448 0.700219 0.180152
O15   O     O_3   0.657531 0.150467 0.596377 -0.544809
C35   C     C_3   0.781486 0.109574 0.588269 -0.273669
H27   H     H_    0.841717 0.197705 0.606388 0.175503
H28   H     H_    0.801635 0.080560 0.529234 0.123317
H29   H     H_    0.808043 0.022436 0.626486 0.186904
O16   O     O_3   0.357540 0.851678 0.395147 -0.541254
C36   C     C_3   0.396758 0.884016 0.322227 -0.281385
H30   H     H_    0.364573 0.799732 0.283555 0.178939
H31   H     H_    0.354272 0.981277 0.299785 0.179914
H32   H     H_    0.498903 0.893198 0.320389 0.130645

loop_
_geom_bond_atom_site_label_1
_geom_bond_atom_site_label_2
_ccdc_geom_bond_type
C30   H12   S    
C9    O5    A    
C14   C18   A    
C36   H30   S    
C15   C19   A    
Cu1   O7    S    
C31   H17   S    
Cu2   O8    S    
C25   N2    A    
C26   N1    A    
C23   N2    A    
C24   N1    A    
C31   H16   S    
C23   C26   A    
C23   O13   S    
C32   H19   S    
C10   O6    A    
C29   H10   S    
C33   H21   S    
C8    C12   A    
C20   H4    S    
C16   C27   A    
O11   C31   S    
C25   O15   S    
Cu1   O3    S    
Cu2   O4    S    
C1    C12   S    
C8    H8    S    
C35   H29   S    
C2    C11   S    
C4    C28   S    
C36   H31   S    
C10   C21   S    
C29   H11   S    
O14   C34   S    
C19   C22   A    
O16   C36   S    
C5    C12   A    
C35   H28   S    
C19   H3    S    
C6    C11   A    
C5    C7    A    
C6    C8    A    
C17   C21   A    
Cu1   O5    S    
C31   H15   S    
C7    C11   A    
C34   H24   S    
Cu1   Cu2   S    
C1    O4    A    
C2    O3    A    
C16   C20   A    
C32   H20   S    
Cu1   N1    S    
C33   H23   S    
C29   H9    S    
C7    H7    S    
Cu2   N2    S    
C24   C25   A    
C34   H25   S    
C13   O9    S    
C1    O1    A    
C14   O10   S    
C32   H18   S    
C30   H13   S    
C17   H1    S    
C18   H2    S    
C3    C4    T    
C36   H32   S    
O10   C30   S    
C26   O16   S    
Cu1   O1    S    
C18   C22   A    
C15   O11   S    
Cu2   O6    S    
C13   C27   A    
C35   H27   S    
C13   C17   A    
O12   C32   S    
C3    C27   S    
C24   O14   S    
C15   C28   A    
C2    O2    A    
C5    H5    S    
C6    H6    S    
O13   C33   S    
C9    C22   S    
C34   H26   S    
O15   C35   S    
C20   C21   A    
C9    O8    A    
O9    C29   S    
C30   H14   S    
C10   O7    A    
Cu2   O2    S    
C33   H22   S    
C16   O12   S    
C14   C28   A    
