data_mof_unit_4612.cif
_audit_creation_date              2012-12-10T17:22:01-0500
_audit_creation_method            fapswitch 2.2
_symmetry_space_group_name_H-M    P1
_symmetry_Int_Tables_number       1
_space_group_crystal_system       triclinic
_cell_length_a                    10.137464
_cell_length_b                    10.520662
_cell_length_c                    15.739831
_cell_angle_alpha                 90.188164
_cell_angle_beta                  82.291087
_cell_angle_gamma                 94.563725
_cell_volume                      1658.20538595

loop_
_atom_site_label
_atom_site_type_symbol
_atom_type_description
_atom_site_fract_x
_atom_site_fract_y
_atom_site_fract_z
_atom_type_partial_charge
C1    C     C_R   0.554921 0.734575 0.499155 0.925509
C2    C     C_2   0.485702 0.929341 0.563494 -0.187078
C3    C     C_2   0.417196 0.131191 0.529086 -0.390355
C4    C     C_R   0.501135 0.499604 0.661525 0.880412
C5    C     C_2   0.496963 0.066614 0.572411 0.122597
C6    C     C_2   0.931815 0.522797 0.496963 -0.272500
C7    C     C_2   0.077978 0.499989 0.483802 0.485760
C8    C     C_R   0.445368 0.266061 0.510688 0.914746
C9    C     C_R   0.498591 0.499496 0.338485 0.921030
C10   C     C_3   0.403788 0.605697 0.958072 -0.050822
C11   C     C_3   0.638207 0.529640 0.939001 -0.512674
C12   C     C_3   0.392167 0.600057 0.059271 -0.074755
C13   C     C_3   0.637368 0.543739 0.037743 0.500677
C14   C     C_1   0.495068 0.498909 0.250068 -0.186057
C15   C     C_3   0.494209 0.500017 0.917363 0.268679
C16   C     C_3   0.274327 0.626074 0.916837 -0.401259
C17   C     C_3   0.186411 0.506832 0.895245 -0.307953
C18   C     C_3   0.058052 0.544578 0.864711 -0.919691
C19   C     C_3   0.247406 0.578235 0.109375 -0.429181
C20   C     C_3   0.190620 0.703287 0.142391 -0.376442
C21   C     C_3   0.044162 0.681062 0.180836 -0.850309
C22   C     C_3   0.597831 0.127368 0.627053 -0.330255
C23   C     C_3   0.490799 0.501369 0.083579 0.274672
C24   C     C_3   0.573357 0.072782 0.718673 -0.375821
C25   C     C_3   0.667933 0.140206 0.775265 -0.907404
C26   C     C_3   0.754032 0.474473 0.069376 -0.420643
C27   C     C_3   0.746775 0.328070 0.066895 -0.379985
C28   C     C_3   0.883730 0.279344 0.071171 -0.893371
C29   C     C_3   0.436892 0.368383 0.053214 -0.504043
C30   C     C_3   0.444368 0.366428 0.955074 -0.420914
C31   C     C_1   0.492323 0.499195 0.175091 -0.076413
C32   C     C_1   0.500788 0.498173 0.825435 -0.094798
C33   C     C_1   0.503108 0.498276 0.750030 -0.201200
C34   C     C_2   0.582474 0.869065 0.517179 -0.374818
H1    H     H_    0.430949 0.695368 0.080384 0.191244
H2    H     H_    0.702019 0.453531 0.912864 0.170568
H3    H     H_    0.683770 0.618525 0.905067 0.170921
H4    H     H_    0.345900 0.332744 0.936816 0.173932
H5    H     H_    0.513955 0.294957 0.928742 0.176573
H6    H     H_    0.331214 0.346333 0.081727 0.186617
H7    H     H_    0.001719 0.602507 0.913968 0.252207
H8    H     H_    0.081791 0.600802 0.804208 0.264981
H9    H     H_    0.993938 0.457554 0.852682 0.252025
H10   H     H_    0.239797 0.452447 0.842826 0.230314
H11   H     H_    0.158902 0.441799 0.950815 0.202639
H12   H     H_    0.488721 0.288967 0.075263 0.175103
H13   H     H_    0.212436 0.690787 0.957557 0.207139
H14   H     H_    0.305450 0.679415 0.855512 0.191612
H15   H     H_    0.982995 0.646198 0.130804 0.254763
H16   H     H_    0.032419 0.610092 0.233981 0.261481
H17   H     H_    0.007311 0.772045 0.206489 0.252699
H18   H     H_    0.248853 0.743555 0.192631 0.230470
H19   H     H_    0.199365 0.774867 0.089919 0.213633
H20   H     H_    0.177991 0.526796 0.070874 0.227746
H21   H     H_    0.246000 0.516460 0.166549 0.214511
H22   H     H_    0.773369 0.128086 0.748816 0.267214
H23   H     H_    0.389237 0.880292 0.586897 0.170157
H24   H     H_    0.652557 0.243555 0.779393 0.264516
H25   H     H_    0.648022 0.098609 0.840932 0.247488
H26   H     H_    0.468715 0.084943 0.747244 0.219487
H27   H     H_    0.588729 0.969297 0.717584 0.231070
H28   H     H_    0.700289 0.109828 0.596946 0.196606
H29   H     H_    0.591568 0.231672 0.632511 0.218167
H30   H     H_    0.072341 0.422949 0.372266 0.301984
H31   H     H_    0.753119 0.704890 0.025868 0.325248
H32   H     H_    0.953744 0.309930 0.013158 0.258051
H33   H     H_    0.925075 0.316357 0.129167 0.263767
H34   H     H_    0.338028 0.080886 0.498877 0.143777
H35   H     H_    0.874358 0.173521 0.074135 0.254719
H36   H     H_    0.679254 0.289103 0.123793 0.226535
H37   H     H_    0.710488 0.291194 0.007439 0.225770
H38   H     H_    0.848387 0.511459 0.029926 0.196079
H39   H     H_    0.764333 0.504315 0.136180 0.219423
H40   H     H_    0.678773 0.918206 0.493772 0.155084
H41   H     H_    0.899378 0.602871 0.535770 0.156708
H42   H     H_    0.115903 0.606308 0.583738 0.096879
H43   H     H_    0.464797 0.697326 0.940948 0.126908
H44   H     H_    0.872914 0.367755 0.434552 0.175225
N1    N     N_2   0.842720 0.448890 0.465540 -0.190186
N2    N     N_2   0.157250 0.551040 0.534500 -0.194734
O1    O     O_R   0.431050 0.692470 0.506940 -0.611563
O2    O     O_3   0.663477 0.674594 0.055666 -0.821554
O3    O     O_R   0.651130 0.659650 0.484820 -0.603302
O4    O     O_R   0.389910 0.516410 0.633920 -0.616704
O5    O     O_R   0.609990 0.483590 0.611800 -0.617217
O6    O     O_R   0.348870 0.340350 0.515180 -0.560045
O7    O     O_R   0.568950 0.307530 0.493060 -0.614350
O8    O     O_R   0.390010 0.516410 0.388200 -0.548951
O9    O     O_R   0.610090 0.483590 0.366080 -0.609323
O10   O     O_3   0.131500 0.425726 0.417507 -0.723702
Zn1   Zn    Zn3+2 0.353060 0.521920 0.514770 0.981281
Zn2   Zn    Zn3+2 0.646940 0.478080 0.485230 0.932968

loop_
_geom_bond_atom_site_label_1
_geom_bond_atom_site_label_2
_ccdc_geom_bond_type
C24   H27   S    
C26   H38   S    
C3    H34   S    
C25   H22   S    
H30   O10   S    
C14   C31   T    
C16   H14   S    
C21   H15   S    
H31   O2    S    
C2    H23   S    
C15   C32   S    
O3    Zn2   S    
C12   C23   S    
C13   C23   S    
C26   C27   S    
C23   C29   S    
C11   H2    S    
C17   H11   S    
O6    Zn1   S    
C18   H8    S    
C9    O8    A    
C1    O1    A    
C26   H39   S    
C30   H4    S    
C11   H3    S    
C22   H29   S    
C11   C15   S    
O5    Zn2   S    
C5    C22   S    
C19   C20   S    
C16   C17   S    
O4    Zn1   S    
C2    C34   D    
O7    Zn2   S    
C16   H13   S    
C21   H16   S    
C10   H43   S    
C1    C34   S    
C6    H41   S    
C28   H33   S    
C24   C25   S    
C3    C8    S    
C18   H7    S    
C9    O9    A    
H44   N1    S    
C4    O5    A    
C7    O10   S    
C13   O2    S    
C12   H1    S    
C23   C31   S    
C28   H32   S    
C9    C14   S    
C29   C30   S    
C22   H28   S    
C4    O4    A    
O8    Zn1   S    
C24   H26   S    
C28   H35   S    
C17   C18   S    
O9    Zn2   S    
N1    Zn2   S    
C27   H36   S    
C10   C12   S    
C34   H40   S    
C19   H20   S    
C22   C24   S    
C13   C26   S    
C2    C5    S    
C25   H24   S    
C21   H17   S    
C27   H37   S    
C15   C30   S    
C19   H21   S    
C4    C33   S    
H42   N2    S    
C20   H19   S    
C3    C5    D    
C6    C7    S    
C1    O3    A    
C29   H12   S    
C10   C15   S    
C8    O7    A    
C32   C33   T    
N2    Zn1   S    
C17   H10   S    
C20   H18   S    
C10   C16   S    
C18   H9    S    
C11   C13   S    
C6    N1    D    
C12   C19   S    
C30   H5    S    
C8    O6    A    
O1    Zn1   S    
C20   C21   S    
C27   C28   S    
C25   H25   S    
C29   H6    S    
C7    N2    D    
