data_mof_unit_4856.cif
_audit_creation_date              2013-03-05T15:42:41-0500
_audit_creation_method            fapswitch 2.2
_symmetry_space_group_name_H-M    P1
_symmetry_Int_Tables_number       1
_space_group_crystal_system       triclinic
_cell_length_a                    19.263616
_cell_length_b                    11.187594
_cell_length_c                    18.544264
_cell_angle_alpha                 90.12217
_cell_angle_beta                  90.201323
_cell_angle_gamma                 90.096681
_cell_volume                      3996.50001655

loop_
_atom_site_label
_atom_site_type_symbol
_atom_site_description
_atom_site_fract_x
_atom_site_fract_y
_atom_site_fract_z
_atom_type_partial_charge
O1    O     O_R   0.788190 0.043000 0.172520 -0.548222
O2    O     O_R   0.211810 0.043000 0.827480 -0.561865
O3    O     O_R   0.288190 0.543000 0.172520 -0.538844
O4    O     O_R   0.711810 0.543000 0.827480 -0.561111
O5    O     O_R   0.766240 0.292300 0.176860 -0.498500
O6    O     O_R   0.233760 0.292300 0.823140 -0.492221
O7    O     O_R   0.266240 0.792300 0.176860 -0.499405
O8    O     O_R   0.733760 0.792300 0.823140 -0.487159
C1    C     C_R   0.712870 0.334130 0.138555 0.554379
C2    C     C_R   0.286426 0.333838 0.862272 0.580588
C3    C     C_R   0.213449 0.835386 0.138214 0.571099
C4    C     C_R   0.786258 0.834698 0.862152 0.577301
O9    O     O_R   0.670310 0.409160 0.168720 -0.394138
O10   O     O_R   0.329690 0.409160 0.831280 -0.383396
O11   O     O_R   0.170310 0.909160 0.168720 -0.383977
O12   O     O_R   0.829690 0.909160 0.831280 -0.388103
O13   O     O_R   0.556160 0.251900 0.173380 -0.481506
O14   O     O_R   0.443840 0.251900 0.826620 -0.474844
O15   O     O_R   0.056160 0.751900 0.173380 -0.482004
O16   O     O_R   0.943840 0.751900 0.826620 -0.483559
C5    C     C_R   0.561181 0.150683 0.137121 0.530276
C6    C     C_R   0.468118 0.154569 0.854170 0.581759
C7    C     C_R   0.034929 0.654437 0.143798 0.580437
C8    C     C_R   0.966174 0.654437 0.855528 0.561170
O17   O     O_R   0.545410 0.050140 0.168240 -0.425668
O18   O     O_R   0.454590 0.050140 0.831760 -0.439759
O19   O     O_R   0.045410 0.550140 0.168240 -0.434978
O20   O     O_R   0.954590 0.550140 0.831760 -0.451155
O21   O     O_R   0.681530 0.958350 0.176970 -0.488313
O22   O     O_R   0.318470 0.958350 0.823030 -0.468078
O23   O     O_R   0.181530 0.458350 0.176970 -0.471312
O24   O     O_R   0.818470 0.458350 0.823030 -0.472947
C9    C     C_R   0.744201 0.961699 0.153571 0.548566
C10   C     C_R   0.255526 0.963186 0.846877 0.567954
C11   C     C_R   0.244078 0.461230 0.153596 0.560600
C12   C     C_R   0.755593 0.464622 0.847489 0.566216
O25   O     O_R   0.788610 0.044480 0.334450 -0.526009
O26   O     O_R   0.211390 0.044480 0.665550 -0.555617
O27   O     O_R   0.288610 0.544480 0.334450 -0.555390
O28   O     O_R   0.711390 0.544480 0.665550 -0.535584
O29   O     O_R   0.766630 0.293670 0.326970 -0.490238
O30   O     O_R   0.233370 0.293670 0.673030 -0.489867
O31   O     O_R   0.266630 0.793670 0.326970 -0.491595
O32   O     O_R   0.733370 0.793670 0.673030 -0.480102
C13   C     C_R   0.730000 0.378522 0.354990 0.575202
C14   C     C_R   0.289637 0.332530 0.637450 0.565040
C15   C     C_R   0.210221 0.832537 0.362361 0.565038
C16   C     C_R   0.784492 0.842460 0.637321 0.562974
O33   O     O_R   0.670730 0.410640 0.330640 -0.500612
O34   O     O_R   0.329270 0.410640 0.669360 -0.454822
O35   O     O_R   0.170730 0.910640 0.330640 -0.456047
O36   O     O_R   0.829270 0.910640 0.669360 -0.490220
O37   O     O_R   0.556550 0.253260 0.323480 -0.518351
O38   O     O_R   0.443450 0.253260 0.676520 -0.531925
O39   O     O_R   0.056550 0.753260 0.323480 -0.531215
O40   O     O_R   0.943450 0.753260 0.676520 -0.536906
C17   C     C_R   0.530194 0.158530 0.350614 0.537382
C18   C     C_R   0.437186 0.152194 0.639151 0.509058
C19   C     C_R   0.063101 0.652319 0.360827 0.508513
C20   C     C_R   0.970035 0.658421 0.649530 0.521014
O41   O     O_R   0.545830 0.051610 0.330160 -0.459919
O42   O     O_R   0.454170 0.051610 0.669840 -0.489679
O43   O     O_R   0.045830 0.551610 0.330160 -0.494721
O44   O     O_R   0.954170 0.551610 0.669840 -0.467281
O45   O     O_R   0.681920 0.959720 0.327070 -0.415675
O46   O     O_R   0.318080 0.959720 0.672930 -0.481102
O47   O     O_R   0.181920 0.459720 0.327070 -0.479641
O48   O     O_R   0.818080 0.459720 0.672930 -0.420480
C21   C     C_R   0.743294 0.963500 0.352265 0.568850
C22   C     C_R   0.253174 0.959711 0.650279 0.555186
C23   C     C_R   0.246682 0.459618 0.349681 0.552658
C24   C     C_R   0.757416 0.465298 0.646016 0.560059
Cr1   Cr    Cr6+3 0.772820 0.169820 0.252640 1.045228
Cr2   Cr    Cr6+3 0.227180 0.169820 0.747360 1.012383
Cr3   Cr    Cr6+3 0.272820 0.669820 0.252640 1.017249
Cr4   Cr    Cr6+3 0.727180 0.669820 0.747360 1.050820
Cr5   Cr    Cr6+3 0.615040 0.323610 0.249150 1.109873
Cr6   Cr    Cr6+3 0.384960 0.323610 0.750850 1.110716
Cr7   Cr    Cr6+3 0.115040 0.823610 0.249150 1.109824
Cr8   Cr    Cr6+3 0.884960 0.823610 0.750850 1.103422
Cr9   Cr    Cr6+3 0.616720 0.011130 0.250660 1.172585
Cr10  Cr    Cr6+3 0.383280 0.011130 0.749340 1.131840
Cr11  Cr    Cr6+3 0.116720 0.511130 0.250660 1.132397
Cr12  Cr    Cr6+3 0.883280 0.511130 0.749340 1.161863
O49   O     O_3   0.668190 0.168190 0.250820 -0.341860
O50   O     O_3   0.331810 0.168190 0.749180 -0.361326
O51   O     O_3   0.168190 0.668190 0.250820 -0.360481
O52   O     O_3   0.831810 0.668190 0.749180 -0.343445
C25   C     C_3   0.544899 0.249239 0.959522 -0.067450
C26   C     C_3   0.495919 0.255723 0.026585 -0.039243
C27   C     C_3   0.032593 0.750201 0.967031 -0.058722
C28   C     C_3   0.978216 0.758740 0.029162 -0.051156
C29   C     C_3   0.587051 0.147209 0.995599 -0.193762
C30   C     C_3   0.447086 0.162615 0.991991 -0.151977
C31   C     C_3   0.071205 0.649216 0.007420 -0.166913
C32   C     C_3   0.931981 0.664259 0.991396 -0.152253
H1    H     H_    0.644439 0.139219 0.998305 0.129076
H2    H     H_    0.389604 0.165243 0.988633 0.130912
H3    H     H_    0.128076 0.641783 0.016274 0.127186
H4    H     H_    0.875045 0.665431 0.982472 0.125969
H5    H     H_    0.565062 0.317171 0.921848 0.195880
H6    H     H_    0.476694 0.330614 0.059479 0.239540
H7    H     H_    0.055184 0.815668 0.929484 0.195282
H8    H     H_    0.961817 0.834226 0.063025 0.220362
C33   C     C_3   0.537714 0.154492 0.061402 -0.024952
C34   C     C_3   0.496337 0.157049 0.926824 0.001027
C35   C     C_3   0.016033 0.658145 0.067908 -0.018638
C36   C     C_3   0.986924 0.657037 0.930874 0.001317
C37   C     C_3   0.489123 0.062423 0.026724 0.224849
C38   C     C_3   0.537101 0.055825 0.961802 0.215804
C39   C     C_3   0.971105 0.564712 0.030482 0.209634
C40   C     C_3   0.024616 0.556804 0.970326 0.217284
H9    H     H_    0.864514 0.943903 0.094411 0.189922
H10   H     H_    0.138214 0.972468 0.912480 0.190134
H11   H     H_    0.365927 0.427984 0.097601 0.189948
H12   H     H_    0.643448 0.497607 0.920062 0.191486
C41   C     C_R   0.777635 0.847336 0.942754 -0.026866
C42   C     C_R   0.221044 0.853279 0.058799 -0.021823
C43   C     C_R   0.277812 0.343499 0.943490 -0.027049
C44   C     C_R   0.719929 0.352516 0.059600 -0.015744
C45   C     C_R   0.717735 0.800266 0.981124 -0.044452
C46   C     C_R   0.281022 0.809555 0.019579 -0.048817
C47   C     C_R   0.216895 0.298366 0.981079 -0.035735
C48   C     C_R   0.778398 0.306059 0.019149 -0.050527
C49   C     C_R   0.714934 0.809507 0.057992 -0.005461
C50   C     C_R   0.280927 0.812927 0.942891 -0.009229
C51   C     C_R   0.212655 0.309448 0.057923 -0.007789
C52   C     C_R   0.777211 0.311663 0.942627 -0.012889
C53   C     C_R   0.824407 0.905717 0.060543 -0.133940
C54   C     C_R   0.176164 0.924467 0.943987 -0.148704
C55   C     C_R   0.324988 0.394599 0.062842 -0.123978
C56   C     C_R   0.678755 0.439327 0.948207 -0.147784
C57   C     C_R   0.832781 0.898474 0.986227 0.145194
C58   C     C_R   0.165206 0.907061 0.017138 0.150820
C59   C     C_R   0.333303 0.390310 0.988245 0.144551
C60   C     C_R   0.665705 0.413671 0.019660 0.156423
C61   C     C_R   0.658073 0.750253 0.947688 -0.068306
C62   C     C_R   0.343778 0.770655 0.051709 -0.042309
C63   C     C_R   0.157667 0.248308 0.946779 -0.053057
C64   C     C_R   0.841295 0.264606 0.049634 -0.042280
C65   C     C_R   0.098106 0.221725 0.985129 -0.070765
C66   C     C_R   0.897687 0.238067 0.005896 -0.049286
C67   C     C_R   0.599955 0.719483 0.987389 -0.085559
C68   C     C_R   0.400169 0.737978 0.009718 -0.050787
C69   C     C_R   0.602374 0.715824 0.061706 -0.006465
C70   C     C_R   0.393424 0.721461 0.936181 -0.008868
C71   C     C_R   0.098183 0.221638 0.059515 -0.017549
C72   C     C_R   0.889244 0.221236 0.932453 -0.006415
C73   C     C_R   0.662033 0.750971 0.097661 0.239730
C74   C     C_R   0.331704 0.750827 0.902450 0.222051
C75   C     C_R   0.157663 0.254598 0.096653 0.227053
C76   C     C_R   0.826283 0.248541 0.900773 0.224277
C77   C     C_R   0.762739 0.882780 0.093009 -0.000931
C78   C     C_R   0.235459 0.890450 0.909136 -0.004407
C79   C     C_R   0.261871 0.379309 0.093844 -0.005015
C80   C     C_R   0.734951 0.396256 0.910971 -0.003977
H13   H     H_    0.649792 0.739055 0.891296 0.211940
H14   H     H_    0.355650 0.773762 0.107949 0.215151
H15   H     H_    0.150929 0.233112 0.890544 0.203757
H16   H     H_    0.853537 0.263508 0.105816 0.219128
H17   H     H_    0.052259 0.193427 0.956141 0.203402
H18   H     H_    0.947291 0.219023 0.030079 0.199707
H19   H     H_    0.553447 0.691556 0.959492 0.202540
H20   H     H_    0.448349 0.714341 0.035436 0.203547
H21   H     H_    0.053485 0.187432 0.087939 0.207488
H22   H     H_    0.931178 0.183665 0.901085 0.207118
H23   H     H_    0.558644 0.680133 0.091026 0.216425
H24   H     H_    0.435584 0.681469 0.906281 0.207565
H25   H     H_    0.537308 0.339530 0.446134 0.159629
H26   H     H_    0.498076 0.332675 0.569642 0.145203
H27   H     H_    0.004722 0.833347 0.431668 0.150383
H28   H     H_    0.965412 0.840136 0.555113 0.155107
C81   C     C_R   0.452973 0.156619 0.561392 -0.001617
C82   C     C_R   0.488415 0.172657 0.415344 0.006752
C83   C     C_R   0.012258 0.672105 0.584995 0.007141
C84   C     C_R   0.047830 0.656463 0.438814 -0.007671
C85   C     C_R   0.436065 0.061661 0.512740 0.028939
C86   C     C_R   0.446344 0.078367 0.438047 0.053515
C87   C     C_R   0.053800 0.577447 0.561912 0.056399
C88   C     C_R   0.064082 0.560986 0.487100 0.025161
C89   C     C_R   0.505138 0.265323 0.462988 -0.136153
C90   C     C_R   0.484845 0.259415 0.534346 -0.135023
C91   C     C_R   0.016936 0.759512 0.466475 -0.138650
C92   C     C_R   0.996590 0.765295 0.537802 -0.141297
C93   C     C_R   0.413743 0.947697 0.534852 -0.078036
C94   C     C_R   0.421474 0.992883 0.388095 -0.018861
C95   C     C_R   0.078309 0.491681 0.611547 -0.013752
C96   C     C_R   0.085772 0.446866 0.464565 -0.081739
C97   C     C_R   0.097687 0.379820 0.587631 -0.057838
C98   C     C_R   0.098164 0.356958 0.514464 -0.108622
C99   C     C_R   0.400987 0.858004 0.484641 -0.113277
C100  C     C_R   0.401819 0.880980 0.411570 -0.063656
H29   H     H_    0.409749 0.921692 0.589934 0.205138
H30   H     H_    0.422063 0.009341 0.330560 0.156023
H31   H     H_    0.077761 0.507988 0.669139 0.153867
H32   H     H_    0.089646 0.420954 0.409390 0.205199
H33   H     H_    0.109900 0.309739 0.625636 0.149493
H34   H     H_    0.111049 0.269827 0.496021 0.144816
H35   H     H_    0.387554 0.770979 0.502744 0.144608
H36   H     H_    0.389554 0.811008 0.373294 0.151387
C101  C     C_R   0.771579 0.868143 0.561714 -0.034432
C102  C     C_R   0.210375 0.843592 0.442855 -0.031524
C103  C     C_R   0.289193 0.343268 0.556820 -0.031678
C104  C     C_R   0.744681 0.411877 0.429559 -0.041424
C105  C     C_R   0.823025 0.921002 0.518502 -0.008101
C106  C     C_R   0.161429 0.916336 0.481915 0.027803
C107  C     C_R   0.338328 0.415284 0.517472 0.027049
C108  C     C_R   0.689892 0.455514 0.472180 -0.001816
C109  C     C_R   0.822803 0.894206 0.445034 -0.011948
C110  C     C_R   0.163473 0.913040 0.557862 0.000804
C111  C     C_R   0.336170 0.410826 0.441507 -0.000212
C112  C     C_R   0.684984 0.417388 0.543483 -0.008861
C113  C     C_R   0.700275 0.842255 0.455829 0.173246
C114  C     C_R   0.263382 0.789207 0.558581 0.165161
C115  C     C_R   0.235512 0.289036 0.441053 0.165472
C116  C     C_R   0.806524 0.360446 0.538782 0.183323
C117  C     C_R   0.711517 0.823003 0.528823 -0.127448
C118  C     C_R   0.253015 0.767138 0.484189 -0.183290
C119  C     C_R   0.245949 0.267130 0.515481 -0.183102
C120  C     C_R   0.802740 0.362663 0.463786 -0.128142
C121  C     C_R   0.865065 0.016724 0.541530 -0.085333
C122  C     C_R   0.111380 0.994798 0.451495 -0.055567
C123  C     C_R   0.388277 0.494810 0.547430 -0.055902
C124  C     C_R   0.643200 0.542804 0.448142 -0.076605
C125  C     C_R   0.908932 0.072776 0.492884 -0.132569
C126  C     C_R   0.066697 0.059509 0.494576 -0.161974
C127  C     C_R   0.432168 0.560120 0.503571 -0.163649
C128  C     C_R   0.592008 0.585117 0.494211 -0.131284
C129  C     C_R   0.920519 0.022325 0.425152 -0.117069
C130  C     C_R   0.060929 0.035795 0.567421 -0.134470
C131  C     C_R   0.437969 0.534513 0.430852 -0.131568
C132  C     C_R   0.580851 0.529971 0.560590 -0.127814
C133  C     C_R   0.881072 0.924651 0.403495 -0.077449
C134  C     C_R   0.106930 0.956509 0.598460 -0.069214
C135  C     C_R   0.392586 0.453249 0.400558 -0.068075
C136  C     C_R   0.623579 0.437491 0.582024 -0.078504
C137  C     C_R   0.756917 0.884294 0.413417 0.002576
C138  C     C_R   0.225900 0.880232 0.591499 0.022342
C139  C     C_R   0.273481 0.379426 0.408142 0.023064
C140  C     C_R   0.747296 0.396188 0.579391 0.005640
H37   H     H_    0.858795 0.058542 0.593222 0.219199
H38   H     H_    0.104152 0.015743 0.395944 0.214680
H39   H     H_    0.395253 0.516625 0.603000 0.214871
H40   H     H_    0.650087 0.585175 0.396575 0.209854
H41   H     H_    0.670151 0.784327 0.560640 0.178729
H42   H     H_    0.280713 0.694590 0.458412 0.143755
H43   H     H_    0.218006 0.194866 0.541236 0.143228
H44   H     H_    0.845581 0.327722 0.432440 0.169361
H45   H     H_    0.934256 0.154414 0.508562 0.180324
H46   H     H_    0.036784 0.129035 0.469716 0.126428
H47   H     H_    0.461538 0.631620 0.527411 0.125217
H48   H     H_    0.561057 0.660178 0.477926 0.184628
H49   H     H_    0.956674 0.062367 0.387762 0.127533
H50   H     H_    0.022801 0.081498 0.600093 0.146073
H51   H     H_    0.475222 0.580737 0.397421 0.143774
H52   H     H_    0.541814 0.561454 0.597690 0.125874
H53   H     H_    0.885733 0.893422 0.348341 0.144658
H54   H     H_    0.103080 0.939537 0.655839 0.147061
H55   H     H_    0.396063 0.435427 0.343197 0.147700
H56   H     H_    0.616463 0.399661 0.635291 0.147979
N1    N     N_R   0.629637 0.839166 0.430217 0.064642
O53   O     O_R   0.613081 0.784133 0.370674 -0.320206
O54   O     O_R   0.580716 0.887701 0.468601 -0.357990
N2    N     N_R   0.297057 0.702798 0.602708 0.061436
O55   O     O_R   0.353517 0.730462 0.637540 -0.328417
O56   O     O_R   0.260953 0.610990 0.623591 -0.293558
N3    N     N_R   0.202069 0.202185 0.396709 0.059764
O57   O     O_R   0.145900 0.229573 0.361464 -0.324287
O58   O     O_R   0.238663 0.111406 0.375304 -0.295465
N4    N     N_R   0.872025 0.332155 0.571816 0.067637
O59   O     O_R   0.874981 0.265975 0.629339 -0.312937
O60   O     O_R   0.929388 0.371691 0.543651 -0.372357
N5    N     N_R   0.456267 0.968838 0.068283 0.081923
O61   O     O_R   0.494539 0.882632 0.092773 -0.375640
O62   O     O_R   0.399247 0.994913 0.102222 -0.339166
N6    N     N_R   0.559283 0.954661 0.918857 0.077328
O63   O     O_R   0.513661 0.873918 0.901628 -0.369640
O64   O     O_R   0.612824 0.969000 0.877183 -0.313565
N7    N     N_R   0.937489 0.472986 0.073006 0.070540
O65   O     O_R   0.975455 0.389414 0.101403 -0.363865
O66   O     O_R   0.878566 0.499130 0.103227 -0.333168
N8    N     N_R   0.050689 0.455997 0.929731 0.075072
O67   O     O_R   0.006576 0.376136 0.907603 -0.377862
O68   O     O_R   0.107328 0.471541 0.892901 -0.333884
N9    N     N_R   0.896073 0.954499 0.960970 0.060775
O69   O     O_R   0.931950 0.015626 0.007045 -0.384428
O70   O     O_R   0.929142 0.923424 0.903693 -0.294379
N10   N     N_R   0.097804 0.952132 0.041664 0.051177
O71   O     O_R   0.055754 0.995163 0.993936 -0.376034
O72   O     O_R   0.071210 0.941659 0.105131 -0.292300
N11   N     N_R   0.395947 0.448470 0.963956 0.061663
O73   O     O_R   0.430118 0.511671 0.010440 -0.382343
O74   O     O_R   0.429258 0.419818 0.906373 -0.293199
N12   N     N_R   0.596866 0.454005 0.043280 0.039929
O75   O     O_R   0.553730 0.490338 0.994384 -0.377100
O76   O     O_R   0.572006 0.453720 0.107985 -0.298965
N13   N     N_R   0.670208 0.720847 0.172827 0.103798
O77   O     O_R   0.731675 0.701167 0.199613 -0.318279
O78   O     O_R   0.616112 0.699065 0.212588 -0.291843
N14   N     N_R   0.320142 0.715154 0.828572 0.108269
O79   O     O_R   0.257289 0.701102 0.803936 -0.289063
O80   O     O_R   0.371993 0.682136 0.788424 -0.268073
N15   N     N_R   0.163806 0.223936 0.171918 0.112146
O81   O     O_R   0.224352 0.201239 0.200065 -0.275901
O82   O     O_R   0.108516 0.203990 0.210229 -0.278315
N16   N     N_R   0.812618 0.214230 0.827056 0.099557
O83   O     O_R   0.749030 0.202740 0.804057 -0.309753
O84   O     O_R   0.863136 0.181677 0.784971 -0.284615

loop_
_geom_bond_atom_site_label_1
_geom_bond_atom_site_label_2
_geom_bond_distance
_ccdc_geom_bond_type
O4    C12   1.272644 A    
O25   C21   1.300993 A    
N11   O73   1.291580 A    
C41   C57   1.447650 A    
Cr7   O51   2.019554 S    
C122  H38   1.065652 S    
N15   O82   1.301589 A    
C5    C33   1.474324 S    
C12   C80   1.461195 S    
N8    O67   1.296981 A    
C110  C138  1.402562 A    
H27   C91   1.075265 S    
C117  H41   1.083319 S    
O39   C19   1.331941 A    
C31   H3    1.110485 S    
O21   C9    1.284838 A    
C1    O9    1.301243 A    
O44   Cr12  2.063572 S    
C70   C74   1.381950 A    
C3    O11   1.302087 A    
C4    O12   1.313296 A    
C123  H39   1.066489 S    
C25   C34   1.515467 S    
C58   N10   1.467097 S    
C29   C38   1.534161 S    
O2    C10   1.279719 A    
C120  H44   1.084096 S    
C63   H15   1.063711 S    
C68   H20   1.075669 S    
O17   Cr9   2.098490 S    
H10   C54   1.078820 S    
C54   C58   1.387680 A    
C124  C128  1.390043 A    
C67   H19   1.078425 S    
O31   Cr3   1.956426 S    
O16   Cr8   1.975121 S    
C99   C100  1.379906 A    
O13   C5    1.319599 A    
O28   Cr4   2.084873 S    
O12   Cr8   2.069480 S    
C39   N7    1.448805 S    
O22   Cr10  1.946202 S    
O15   C7    1.285100 A    
C91   C92   1.382280 A    
O6    C2    1.328016 A    
O46   Cr10  1.974254 S    
N15   O81   1.301748 A    
C108  C112  1.393701 A    
C7    C35   1.453104 S    
N16   O83   1.301705 A    
C40   N8    1.446318 S    
C60   N12   1.469438 S    
C53   C57   1.390314 A    
C50   C78   1.382829 A    
C14   C103  1.500284 S    
C81   C90   1.397619 A    
C114  C118  1.414358 A    
N4    O60   1.301114 A    
C115  C139  1.390448 A    
N14   O79   1.301760 A    
C127  H47   1.072659 S    
C97   H33   1.081003 S    
C134  H54   1.084036 S    
C25   H5    1.104408 S    
O5    Cr1   1.968766 S    
Cr12  O52   2.019020 S    
C26   C33   1.533059 S    
C27   H7    1.101746 S    
O7    Cr3   1.968766 S    
C17   O41   1.290548 A    
C43   C47   1.457098 A    
C30   C37   1.526280 S    
C19   O43   1.303153 A    
C20   O44   1.290224 A    
Cr8   O52   2.016463 S    
O46   C22   1.317588 A    
C55   C79   1.357482 A    
C111  C135  1.410169 A    
C130  C134  1.380073 A    
N7    O66   1.301116 A    
C52   C80   1.380073 A    
C4    C41   1.510857 S    
C86   C94   1.412018 A    
C16   O36   1.292721 A    
N9    O70   1.287962 A    
O27   C23   1.278148 A    
C81   C85   1.428760 A    
O31   C15   1.343873 A    
O32   C16   1.307889 A    
C127  C131  1.382972 A    
O47   Cr11  1.977249 S    
C26   C30   1.539851 S    
C121  C125  1.388201 A    
C39   C40   1.524084 S    
C121  H37   1.073058 S    
C45   C49   1.430213 A    
O24   C12   1.296824 A    
C114  C138  1.390651 A    
C109  C137  1.400340 A    
N1    O53   1.301535 A    
C123  C127  1.384028 A    
C47   C63   1.418162 A    
C28   C32   1.546060 S    
C96   C98   1.388600 A    
C42   C46   1.452401 A    
C45   C61   1.417661 A    
O32   Cr4   1.960300 S    
C106  C110  1.409365 A    
C26   H6    1.100767 S    
C2    C43   1.519472 S    
C71   H21   1.081038 S    
C51   C75   1.421141 A    
C52   C76   1.414147 A    
O11   Cr7   2.070760 S    
N2    O55   1.299612 A    
O27   Cr3   2.089908 S    
O3    Cr3   2.074538 S    
C42   C58   1.454037 A    
O8    C4    1.327737 A    
C100  H36   1.080855 S    
Cr5   O49   2.019554 S    
H26   C90   1.077489 S    
C107  C111  1.409946 A    
N13   O78   1.301653 A    
C112  C136  1.402409 A    
C32   C39   1.528451 S    
C136  H56   1.084517 S    
O22   C10   1.293285 A    
C116  C140  1.426555 A    
C104  C108  1.408156 A    
C19   C84   1.477489 S    
C2    O10   1.318354 A    
C27   C28   1.562780 S    
C65   C71   1.379433 A    
C126  C130  1.382036 A    
C17   C82   1.456027 S    
C15   C102  1.497548 S    
C113  N1    1.440005 S    
N10   O72   1.290730 A    
C71   C75   1.383863 A    
O5    C1    1.333585 A    
C62   H14   1.067407 S    
C47   C51   1.432780 A    
H12   C56   1.077297 S    
O3    C11   1.294607 A    
C56   C60   1.380236 A    
C54   C78   1.368517 A    
Cr1   O49   2.015769 S    
Cr3   O51   2.015769 S    
C76   N16   1.442318 S    
C75   N15   1.442486 S    
C29   H1    1.110232 S    
O26   Cr2   2.084873 S    
C5    O17   1.301316 A    
O29   C13   1.292986 A    
O28   C24   1.305987 A    
O14   C6    1.291454 A    
C35   C39   1.520850 S    
C94   H30   1.083194 S    
C72   C76   1.380754 A    
N3    O57   1.299549 A    
C108  C124  1.401222 A    
N8    O68   1.300869 A    
O40   Cr8   1.948902 S    
C61   H13   1.064394 S    
C102  C118  1.412299 A    
C9    C77   1.472413 S    
C62   C68   1.387846 A    
C64   H16   1.067490 S    
C53   C77   1.358022 A    
C50   C74   1.416723 A    
C106  C122  1.421079 A    
C73   N13   1.442896 S    
C32   H4    1.108730 S    
N5    O62   1.301094 A    
O33   Cr5   2.088383 S    
C129  C133  1.387790 A    
C56   C80   1.373477 A    
O35   Cr7   2.088383 S    
O29   Cr1   1.956426 S    
C84   C88   1.429694 A    
N6    O63   1.297895 A    
C1    C44   1.485658 S    
C101  C105  1.406992 A    
C131  C135  1.377715 A    
C22   C138  1.498377 S    
O38   Cr6   1.948902 S    
C3    C42   1.494325 S    
Cr9   O49   2.016095 S    
C18   O42   1.303786 A    
Cr11  O51   2.016095 S    
O26   C22   1.276917 A    
O20   Cr12  2.096170 S    
C72   H22   1.082137 S    
C89   C90   1.382829 A    
C107  C123  1.420313 A    
C104  C120  1.398376 A    
C114  N2    1.423639 S    
C64   C66   1.390097 A    
C31   C40   1.528733 S    
C34   C38   1.523935 S    
N12   O75   1.294349 A    
C87   C95   1.411745 A    
C30   H2    1.109268 S    
C85   C93   1.407216 A    
O30   C14   1.343086 A    
C33   C37   1.529834 S    
C88   C96   1.407120 A    
N16   O84   1.301564 A    
N7    O65   1.299258 A    
O6    Cr2   1.964291 S    
C8    C36   1.452148 S    
C131  H51   1.081675 S    
C82   C86   1.395794 A    
C48   C52   1.420662 A    
O42   Cr10  2.063572 S    
O18   Cr10  2.096170 S    
O34   Cr6   2.093070 S    
N14   O80   1.301438 A    
C93   C99   1.388485 A    
C10   C78   1.466515 S    
O24   Cr12  1.946202 S    
O30   Cr2   1.960300 S    
O48   Cr12  1.974254 S    
C8    O20   1.265629 A    
C46   C62   1.415522 A    
C68   C70   1.381403 A    
C51   C79   1.394368 A    
O37   C17   1.279214 A    
C15   O35   1.299819 A    
Cr10  O50   2.019020 S    
C125  C129  1.394781 A    
O40   C20   1.280592 A    
O43   Cr11  2.063205 S    
O48   C24   1.270804 A    
C44   C60   1.451525 A    
C23   C139  1.499504 S    
O37   Cr5   1.949740 S    
O21   Cr9   1.945709 S    
N9    O69   1.291164 A    
C115  C119  1.416029 A    
O39   Cr7   1.949740 S    
C28   H8    1.098799 S    
O45   Cr9   1.977249 S    
C13   O33   1.278697 A    
O13   Cr5   1.971130 S    
O15   Cr7   1.971130 S    
H25   C89   1.082443 S    
C112  C140  1.391610 A    
C31   C35   1.551133 S    
C57   N9    1.449631 S    
C83   C87   1.395880 A    
O23   C11   1.282315 A    
C18   C81   1.475669 S    
C135  H55   1.084154 S    
C128  C132  1.395247 A    
C98   H34   1.062438 S    
C69   H23   1.080608 S    
C126  H46   1.072740 S    
C70   H24   1.081912 S    
N11   O74   1.287959 A    
C27   C36   1.516467 S    
C48   C64   1.414527 A    
C115  N3    1.423427 S    
C130  H50   1.082146 S    
C66   H18   1.075947 S    
C113  C137  1.426963 A    
O1    Cr1   2.074538 S    
O19   Cr11  2.098490 S    
C37   C38   1.522100 S    
N3    O58   1.299455 A    
C13   C104  1.458124 S    
O45   C21   1.270343 A    
O47   C23   1.314733 A    
C110  C134  1.412689 A    
C97   C98   1.380263 A    
C43   C59   1.447684 A    
C87   C88   1.413782 A    
C36   C40   1.523953 S    
N2    O56   1.299925 A    
C85   C86   1.412654 A    
C6    O18   1.265587 A    
C20   C83   1.457533 S    
N4    O59   1.300921 A    
O41   Cr9   2.063205 S    
C25   C26   1.565315 S    
O36   Cr8   2.093070 S    
C69   C73   1.382724 A    
C83   C92   1.395368 A    
C128  H48   1.073948 S    
C84   C91   1.395840 A    
C65   H17   1.078992 S    
C63   C65   1.384240 A    
N13   O77   1.301722 A    
C132  H52   1.079987 S    
C132  C136  1.381390 A    
O1    C9    1.289488 A    
H11   C55   1.082279 S    
O7    C3    1.333469 A    
H9    C53   1.080838 S    
C118  H42   1.083301 S    
C99   H35   1.062404 S    
C55   C59   1.393866 A    
C122  C126  1.381212 A    
O23   Cr11  1.945709 S    
C41   C45   1.456148 A    
C29   C33   1.551428 S    
O16   C8    1.289910 A    
C24   C140  1.468325 S    
C7    O19   1.268899 A    
Cr4   O52   2.015832 S    
O2    Cr2   2.078185 S    
O14   Cr6   1.975121 S    
Cr6   O50   2.016463 S    
C61   C67   1.385474 A    
C25   C29   1.553212 S    
C82   C89   1.397176 A    
C116  N4    1.436770 S    
C49   C77   1.390219 A    
O9    Cr5   2.070760 S    
O4    Cr4   2.078185 S    
C66   C72   1.383496 A    
N1    O54   1.301697 A    
C113  C117  1.387415 A    
C124  H40   1.076742 S    
C133  H53   1.084177 S    
C6    C34   1.451270 S    
C103  C107  1.442996 A    
C16   C101  1.452500 S    
C74   N14   1.442583 S    
C46   C50   1.422689 A    
H28   C92   1.080146 S    
C28   C35   1.521854 S    
C105  C109  1.394371 A    
N5    O61   1.296870 A    
Cr2   O50   2.015832 S    
C49   C73   1.419008 A    
C38   N6    1.448421 S    
N6    O64   1.300889 A    
O8    Cr4   1.964291 S    
C111  C139  1.398904 A    
O38   C18   1.329978 A    
C67   C69   1.379479 A    
O25   Cr1   2.089908 S    
C30   C34   1.540241 S    
C125  H45   1.073795 S    
C95   H31   1.083182 S    
C93   H29   1.065682 S    
C129  H49   1.081749 S    
C14   O34   1.299637 A    
C103  C119  1.413349 A    
N10   O71   1.292045 A    
C101  C117  1.399090 A    
N12   O76   1.293510 A    
C59   N11   1.443929 S    
C105  C121  1.406317 A    
C119  H43   1.083254 S    
O10   Cr6   2.069480 S    
C94   C100  1.379152 A    
C109  C133  1.405444 A    
C95   C97   1.379330 A    
C44   C48   1.451789 A    
C96   H32   1.065758 S    
C27   C31   1.546990 S    
C102  C106  1.442535 A    
C32   C36   1.547456 S    
C37   N5    1.447539 S    
C116  C120  1.392660 A    
C21   C137  1.463921 S    
C11   C79   1.478052 S    
