data_mof_unit_1189.cif
_audit_creation_date              2012-12-10T17:29:13-0500
_audit_creation_method            fapswitch 2.2
_symmetry_space_group_name_H-M    P1
_symmetry_Int_Tables_number       1
_space_group_crystal_system       triclinic
_cell_length_a                    12.008496
_cell_length_b                    12.845494
_cell_length_c                    13.037335
_cell_angle_alpha                 87.571692
_cell_angle_beta                  114.2778
_cell_angle_gamma                 93.679015
_cell_volume                      1829.16036698

loop_
_atom_site_label
_atom_site_type_symbol
_atom_type_description
_atom_site_fract_x
_atom_site_fract_y
_atom_site_fract_z
_atom_type_partial_charge
C1    C     C_R   0.478017 0.299485 0.501177 0.949236
C2    C     C_R   0.616249 0.508008 0.834125 -0.158370
C3    C     C_R   0.539688 0.811031 0.504795 -0.015823
C4    C     C_R   0.568867 0.500501 0.710249 0.928985
C5    C     C_R   0.463309 0.187761 0.501264 -0.116582
C6    C     C_R   0.347497 0.035423 0.404975 -0.174448
C7    C     C_R   0.355444 0.141324 0.422307 -0.180300
C8    C     C_R   0.562847 0.128484 0.568981 -0.070641
C9    C     C_R   0.558181 0.022468 0.546369 0.095058
C10   C     C_R   0.448686 0.976421 0.464361 0.172357
C11   C     C_R   0.440263 0.870822 0.444964 -0.223777
C12   C     C_R   0.549517 0.507354 0.985943 0.136023
C13   C     C_R   0.650194 0.855715 0.580706 -0.124287
C14   C     C_R   0.658677 0.960483 0.603786 -0.151239
C15   C     C_R   0.004274 0.595591 0.386906 -0.129869
C16   C     C_R   0.522103 0.700332 0.498932 0.910722
C17   C     C_R   0.127044 0.586573 0.402122 -0.014271
C18   C     C_R   0.159573 0.460070 0.547302 -0.023865
C19   C     C_R   0.038221 0.466418 0.537472 0.062475
C20   C     C_R   0.958703 0.534900 0.456711 -0.002104
C21   C     C_R   0.838172 0.541233 0.451585 -0.011773
C22   C     C_R   0.874992 0.414123 0.596905 0.049640
C23   C     C_R   0.539788 0.547259 0.880711 -0.065693
C24   C     C_R   0.995251 0.406050 0.607374 -0.281316
C25   C     C_R   0.431719 0.502128 0.290634 0.944359
C26   C     C_R   0.278989 0.619976 0.004827 0.211735
C27   C     C_R   0.386045 0.512258 0.169115 -0.176627
C28   C     C_R   0.728468 0.465371 0.907748 0.214289
C29   C     C_R   0.750313 0.447292 0.020763 -0.107974
C30   C     C_R   0.660205 0.463665 0.058289 -0.109605
C31   C     C_2   0.666160 0.176752 0.666456 0.883157
C32   C     C_2   0.928016 0.667160 0.296264 0.879506
C33   C     C_3   0.177814 0.693153 0.944351 -0.914805
C34   C     C_R   0.453367 0.520628 0.019546 0.007528
C35   C     C_2   0.481960 0.355101 0.139174 0.886932
C36   C     C_3   0.826743 0.440578 0.870183 -0.853145
C37   C     C_2   0.473125 0.703632 0.746284 0.960612
C38   C     C_R   0.363550 0.593973 0.960895 0.111568
C39   C     C_R   0.366088 0.645086 0.864965 -0.247906
C40   C     C_R   0.455788 0.626038 0.827067 -0.116866
C41   C     C_R   0.446676 0.466147 0.112975 -0.112313
C42   C     C_R   0.296608 0.583549 0.112521 -0.225714
H1    H     H_    0.244772 0.614584 0.154469 0.163281
H2    H     H_    0.303272 0.705535 0.822992 0.188328
H3    H     H_    0.220552 0.407257 0.608657 0.143756
H4    H     H_    0.680478 0.446046 0.145820 0.164916
H5    H     H_    0.835492 0.416291 0.079523 0.146522
H6    H     H_    0.355326 0.834262 0.385653 0.146971
H7    H     H_    0.848274 0.204909 0.748770 0.328951
H8    H     H_    0.764903 0.693651 0.168761 0.349287
H9    H     H_    0.119411 0.663268 0.859182 0.245430
H10   H     H_    0.118208 0.700097 0.989870 0.248379
H11   H     H_    0.217233 0.772241 0.937058 0.247578
H12   H     H_    0.726966 0.808205 0.627952 0.166571
H13   H     H_    0.512141 0.220411 0.082465 0.354553
H14   H     H_    0.910482 0.414925 0.941673 0.224326
H15   H     H_    0.793681 0.376590 0.809140 0.271814
H16   H     H_    0.853347 0.511110 0.831551 0.239683
H17   H     H_    0.657858 0.715990 0.830326 0.298828
H18   H     H_    0.263708 0.000202 0.342857 0.160051
H19   H     H_    0.743470 0.990577 0.667971 0.188583
H20   H     H_    0.279255 0.187796 0.370854 0.166553
H21   H     H_    0.775890 0.595769 0.395225 0.177036
H22   H     H_    0.843144 0.368248 0.651438 0.149085
H23   H     H_    0.054410 0.353113 0.670155 0.159017
H24   H     H_    0.162716 0.631740 0.349232 0.147879
N1    N     N_R   0.798200 0.480260 0.519790 -0.110299
N2    N     N_R   0.201820 0.519740 0.480210 -0.104428
O1    O     O_R   0.579910 0.341070 0.505280 -0.585458
O2    O     O_R   0.786170 0.174056 0.675870 -0.823618
O3    O     O_2   0.973849 0.749555 0.277554 -0.622393
O4    O     O_R   0.805934 0.638994 0.228729 -0.843198
O5    O     O_2   0.498756 0.315017 0.230784 -0.624788
O6    O     O_R   0.489134 0.294399 0.055662 -0.787668
O7    O     O_2   0.384003 0.740490 0.671223 -0.565825
O8    O     O_R   0.589873 0.740510 0.758329 -0.815980
O9    O     O_R   0.388440 0.353740 0.492580 -0.625267
O10   O     O_R   0.643280 0.490550 0.663120 -0.615758
O11   O     O_R   0.451810 0.503220 0.650420 -0.610449
O12   O     O_R   0.611560 0.646260 0.507420 -0.643205
O13   O     O_R   0.420090 0.658930 0.494720 -0.584623
O14   O     O_R   0.548190 0.496780 0.349580 -0.586138
O15   O     O_R   0.356720 0.509450 0.336880 -0.640679
O16   O     O_2   0.645111 0.219396 0.738194 -0.638557
Zn1   Zn    Zn3+2 0.627850 0.491540 0.508480 0.980098
Zn2   Zn    Zn3+2 0.372150 0.508460 0.491520 0.975989

loop_
_geom_bond_atom_site_label_1
_geom_bond_atom_site_label_2
_ccdc_geom_bond_type
C35   O6    S    
C1    O9    A    
C19   C20   A    
C15   C32   S    
C32   O4    S    
C33   H10   S    
C12   C23   A    
C17   H24   S    
C29   C30   A    
C29   H5    S    
C1    C5    S    
C28   C29   A    
C37   C40   S    
C36   H16   S    
C38   C39   A    
C18   N2    A    
C23   C40   A    
N2    Zn2   S    
C18   C19   A    
H8    O4    S    
H13   O6    S    
C31   O2    S    
C8    C9    A    
C9    C10   A    
O13   Zn2   S    
C3    C13   A    
C37   O7    D    
C13   C14   A    
C21   N1    A    
C11   H6    S    
C34   C41   A    
C32   O3    D    
C33   H11   S    
C15   C20   A    
N1    Zn1   S    
C6    H18   S    
C4    O11   A    
C36   H15   S    
C39   C40   A    
C5    C7    A    
C26   C38   A    
C14   H19   S    
C1    O1    A    
C31   O16   D    
C16   O12   A    
C2    C4    S    
C9    C14   A    
C7    H20   S    
C4    O10   A    
O12   Zn1   S    
C36   H14   S    
C27   C41   A    
C26   C33   S    
C39   H2    S    
C24   H23   S    
O10   Zn1   S    
C37   O8    S    
O9    Zn2   S    
H7    O2    S    
C25   O14   A    
C22   C24   A    
C25   C27   S    
C42   H1    S    
C12   C34   A    
C18   H3    S    
O1    Zn1   S    
C26   C42   A    
C13   H12   S    
C15   C17   A    
C35   O5    D    
C17   N2    A    
C12   C30   A    
C34   C38   A    
C8    C31   S    
C30   H4    S    
C6    C10   A    
C5    C8    A    
C6    C7    A    
C33   H9    S    
O14   Zn1   S    
C19   C24   A    
C27   C42   A    
C16   O13   A    
C35   C41   S    
C22   N1    A    
C21   H21   S    
C3    C11   A    
C10   C11   A    
C22   H22   S    
O15   Zn2   S    
C20   C21   A    
C28   C36   S    
C2    C23   A    
C25   O15   A    
C2    C28   A    
H17   O8    S    
O11   Zn2   S    
C3    C16   S    
