data_mof_unit_2927.cif
_audit_creation_date              2012-12-10T18:33:35-0500
_audit_creation_method            fapswitch 2.2
_symmetry_space_group_name_H-M    P1
_symmetry_Int_Tables_number       1
_space_group_crystal_system       triclinic
_cell_length_a                    8.773012
_cell_length_b                    15.156735
_cell_length_c                    13.973745
_cell_angle_alpha                 91.957006
_cell_angle_beta                  98.119679
_cell_angle_gamma                 92.783857
_cell_volume                      1835.71329441

loop_
_atom_site_label
_atom_site_type_symbol
_atom_type_description
_atom_site_fract_x
_atom_site_fract_y
_atom_site_fract_z
_atom_type_partial_charge
C1    C     C_R   0.497090 0.330096 0.498415 0.808591
C2    C     C_R   0.502654 0.669897 0.501564 0.810283
C3    C     C_R   0.563137 0.572095 0.117755 -0.198869
C4    C     C_R   0.440682 0.426699 0.882548 -0.208538
C5    C     C_R   0.573113 0.567426 0.218709 0.039365
C6    C     C_R   0.429320 0.431721 0.781503 0.028802
C7    C     C_R   0.400965 0.441511 0.198131 0.275521
C8    C     C_R   0.598423 0.558947 0.801741 0.282551
C9    C     C_R   0.381866 0.448495 0.095543 0.260441
C10   C     C_R   0.618971 0.551550 0.904235 0.264976
C11   C     C_R   0.488478 0.503737 0.053810 0.026555
C12   C     C_R   0.513729 0.495637 0.946233 0.038018
C13   C     C_R   0.203878 0.499814 0.475139 0.888103
C14   C     C_R   0.796122 0.500194 0.524864 0.889066
C15   C     C_2   0.037928 0.499822 0.461645 -0.336980
C16   C     C_2   0.962074 0.500185 0.538366 -0.344018
C17   C     C_R   0.411963 0.097076 0.565648 0.157078
C18   C     C_R   0.586286 0.903209 0.434701 0.156833
C19   C     C_R   0.425367 0.189109 0.568175 -0.173340
C20   C     C_R   0.573939 0.811148 0.432148 -0.173718
C21   C     C_R   0.486172 0.233651 0.495020 -0.068543
C22   C     C_R   0.512614 0.766337 0.504926 -0.067880
C23   C     C_R   0.521076 0.185496 0.414922 -0.145645
C24   C     C_R   0.475872 0.814265 0.584663 -0.145542
C25   C     C_R   0.513274 0.093798 0.414202 -0.121993
C26   C     C_R   0.482729 0.905948 0.585433 -0.122135
C27   C     C_R   0.481634 0.048105 0.495910 0.061712
C28   C     C_R   0.515274 0.951875 0.504063 0.061566
Cu1   Cu    Cu3+1 0.500000 0.499990 0.596430 0.993564
Cu2   Cu    Cu3+1 0.500000 0.500010 0.403570 0.997614
H1    H     H_    0.977865 0.499549 0.388047 0.201257
H2    H     H_    0.022134 0.500454 0.611967 0.196061
H3    H     H_    0.377494 0.226042 0.623586 0.164672
H4    H     H_    0.622895 0.774437 0.377030 0.165194
H5    H     H_    0.554406 0.218432 0.352873 0.180936
H6    H     H_    0.441880 0.781152 0.646434 0.181450
H7    H     H_    0.527797 0.059650 0.347807 0.180014
H8    H     H_    0.467102 0.939836 0.651730 0.180458
H9    H     H_    0.613460 0.630568 0.091044 0.226120
H10   H     H_    0.391480 0.367980 0.909533 0.215218
H11   H     H_    0.637683 0.619066 0.264923 0.150590
H12   H     H_    0.365533 0.379733 0.735426 0.147905
N1    N     N_R   0.500000 0.500020 0.258690 -0.224226
N2    N     N_R   0.500000 0.499980 0.741310 -0.222262
O1    O     O_R   0.500010 0.371450 0.581430 -0.597392
O2    O     O_R   0.499990 0.628550 0.418570 -0.596890
O3    O     O_R   0.500010 0.371460 0.418560 -0.571133
O4    O     O_R   0.499990 0.628540 0.581440 -0.569922
O5    O     O_R   0.274840 0.499990 0.562640 -0.580481
O6    O     O_R   0.725160 0.500010 0.437360 -0.579049
O7    O     O_R   0.274840 0.500000 0.399770 -0.558165
O8    O     O_R   0.725160 0.500000 0.600230 -0.561485
I1    I     I_    0.234000 0.048221 0.643183 -0.305098
I2    I     I_    0.764064 0.952948 0.357528 -0.307942
I3    I     I_    0.264815 0.337993 0.253019 -0.157841
I4    I     I_    0.732017 0.663862 0.747226 -0.172037
S1    S     S_3+6 0.199030 0.411822 0.028679 0.040612
O9    O     O_2   0.197403 0.313894 0.006753 -0.297274
O10   O     O_2   0.073264 0.429489 0.088151 -0.179807
O11   O     O_3   0.159712 0.465110 0.925331 -0.486943
H13   H     H_    0.085680 0.424710 0.882403 0.381813
S2    S     S_3+6 0.802596 0.587886 0.970279 0.027997
O12   O     O_2   0.839090 0.537902 0.060859 -0.241761
O13   O     O_2   0.926825 0.572730 0.908914 -0.220179
O14   O     O_3   0.803958 0.696789 0.998392 -0.535493
H14   H     H_    0.912145 0.713631 0.026416 0.391650

loop_
_geom_bond_atom_site_label_1
_geom_bond_atom_site_label_2
_ccdc_geom_bond_type
C2    C22   S    
S2    O13   D    
Cu2   O7    S    
C18   C28   A    
C1    C21   S    
S2    O12   D    
C7    N1    A    
C16   H2    S    
Cu1   Cu2   S    
C14   O8    A    
C18   C20   A    
C24   H6    S    
C7    I3    S    
C11   C12   S    
C4    H10   S    
C20   H4    S    
C8    I4    S    
C13   C15   S    
Cu2   O6    S    
C3    C5    A    
C3    H9    S    
Cu1   O5    S    
C2    O2    A    
C15   H1    S    
C9    C11   A    
C1    O1    A    
S1    O9    D    
C10   S2    S    
C10   C12   A    
C13   O5    A    
C22   C24   A    
C4    C6    A    
C17   C19   A    
C24   C26   A    
C23   H5    S    
C21   C23   A    
Cu1   N2    S    
C5    N1    A    
C25   C27   A    
C14   C16   S    
Cu2   N1    S    
S1    O10   D    
C4    C12   A    
C14   O6    A    
Cu1   O4    S    
C5    H11   S    
C15   C16   D    
C17   C27   A    
C17   I1    S    
Cu2   O3    S    
C23   C25   A    
C3    C11   A    
C9    S1    S    
C8    C10   A    
O14   H14   S    
C6    H12   S    
Cu1   O1    S    
C27   C28   S    
C7    C9    A    
C18   I2    S    
C1    O3    A    
S1    O11   S    
C6    N2    A    
S2    O14   S    
C2    O4    A    
C19   H3    S    
C13   O7    A    
C26   C28   A    
Cu2   O2    S    
C26   H8    S    
C8    N2    A    
C20   C22   A    
O11   H13   S    
C19   C21   A    
Cu1   O8    S    
C25   H7    S    
