data_mof_unit_400.cif
_audit_creation_date              2012-12-10T20:34:09-0500
_audit_creation_method            fapswitch 2.2
_symmetry_space_group_name_H-M    P1
_symmetry_Int_Tables_number       1
_space_group_crystal_system       triclinic
_cell_length_a                    9.913654
_cell_length_b                    10.679943
_cell_length_c                    13.591874
_cell_angle_alpha                 90.625914
_cell_angle_beta                  82.806142
_cell_angle_gamma                 89.414955
_cell_volume                      1427.55976601

loop_
_atom_site_label
_atom_site_type_symbol
_atom_type_description
_atom_site_fract_x
_atom_site_fract_y
_atom_site_fract_z
_atom_type_partial_charge
C1    C     C_R   0.500212 0.739897 0.496230 0.871873
C2    C     C_1   0.455182 0.500586 0.789538 -0.226191
C3    C     C_R   0.386358 0.937079 0.463893 0.141479
C4    C     C_R   0.504015 0.870957 0.478672 -0.136309
C5    C     C_R   0.628640 0.933589 0.473535 -0.214108
C6    C     C_R   0.629191 0.062838 0.474555 -0.231676
C7    C     C_R   0.505209 0.128361 0.480975 -0.100499
C8    C     C_R   0.386939 0.065063 0.466702 0.085349
C9    C     C_3   0.246437 0.074576 0.521197 -0.479627
C10   C     C_3   0.244350 0.932071 0.516621 -0.031257
C11   C     C_R   0.919446 0.585224 0.556285 0.157922
C12   C     C_R   0.475292 0.500256 0.685635 0.917083
C13   C     C_R   0.941851 0.421912 0.438174 0.219905
C14   C     C_R   0.084821 0.421918 0.439662 -0.122801
C15   C     C_R   0.061718 0.588489 0.552636 0.100958
C16   C     C_3   0.058783 0.617570 0.659678 -0.488814
C17   C     C_3   0.904004 0.605552 0.667871 0.328816
C18   C     C_R   0.501085 0.260007 0.497170 0.875949
C19   C     C_R   0.524559 0.499935 0.314325 0.883645
C20   C     C_1   0.543108 0.500696 0.210369 -0.157069
C21   C     C_2   0.551134 0.502422 0.018751 -0.265937
C22   C     C_2   0.432028 0.500638 0.982989 0.536919
C23   C     C_1   0.440222 0.500733 0.877527 -0.194101
C24   C     C_1   0.552714 0.501530 0.122471 0.078018
H1    H     H_    0.149532 0.357375 0.392685 0.160349
H2    H     H_    0.111657 0.544358 0.698596 0.206950
H3    H     H_    0.094992 0.713995 0.671893 0.180585
H4    H     H_    0.647399 0.504339 0.970547 0.116337
H5    H     H_    0.723935 0.884122 0.476770 0.174497
H6    H     H_    0.724570 0.110091 0.478258 0.174439
H7    H     H_    0.245283 0.112327 0.597889 0.182728
H8    H     H_    0.174623 0.122196 0.476750 0.208136
H9    H     H_    0.238477 0.887330 0.590524 0.161787
N1    N     N_R   0.857130 0.500860 0.500650 -0.117495
N2    N     N_R   0.142770 0.500820 0.500650 -0.117812
O1    O     O_R   0.385310 0.683210 0.499990 -0.614553
O2    O     O_R   0.614650 0.683240 0.500000 -0.618985
O3    O     O_R   0.368820 0.499950 0.640340 -0.615869
O4    O     O_R   0.598170 0.499990 0.640350 -0.607907
O5    O     O_R   0.385350 0.316760 0.500000 -0.617189
O6    O     O_R   0.614690 0.316790 0.500010 -0.629716
O7    O     O_R   0.401830 0.500010 0.359650 -0.595178
O8    O     O_R   0.631180 0.500050 0.359660 -0.623939
Zn1   Zn    Zn3+2 0.346870 0.499980 0.499990 0.941142
Zn2   Zn    Zn3+2 0.653130 0.500020 0.500010 0.938681
O9    O     O_3   0.310482 0.497839 0.047744 -0.598164
C25   C     C_3   0.193857 0.497261 0.997671 0.114209
H10   H     H_    0.194032 0.412855 0.948796 0.144162
H11   H     H_    0.188659 0.583678 0.953100 0.144537
C26   C     C_3   0.067430 0.493629 0.073560 -0.824479
H12   H     H_    0.063734 0.576903 0.123546 0.262378
H13   H     H_    0.974997 0.493651 0.035051 0.201959
H14   H     H_    0.068830 0.407498 0.118484 0.253728
C27   C     C_3   0.855596 0.491882 0.731696 -0.798357
H15   H     H_    0.747641 0.501603 0.762959 0.256156
H16   H     H_    0.871556 0.402804 0.688625 0.224914
H17   H     H_    0.912347 0.485633 0.797020 0.203071
C28   C     C_3   0.827676 0.727772 0.700517 -0.857280
H18   H     H_    0.867892 0.807363 0.654037 0.214181
H19   H     H_    0.717904 0.718327 0.693339 0.252675
H20   H     H_    0.838929 0.749467 0.779154 0.236627
C29   C     C_3   0.143186 0.880429 0.450400 -0.852936
H21   H     H_    0.148376 0.932060 0.379472 0.244078
H22   H     H_    0.166214 0.780368 0.432618 0.263278
H23   H     H_    0.038375 0.888767 0.489859 0.227578
C30   C     C_3   0.890865 0.330463 0.367183 -0.864440
H24   H     H_    0.781189 0.334087 0.365758 0.292856
H25   H     H_    0.939339 0.349669 0.290791 0.217439
H26   H     H_    0.918890 0.233785 0.386818 0.205312

loop_
_geom_bond_atom_site_label_1
_geom_bond_atom_site_label_2
_ccdc_geom_bond_type
C30   H25   S    
O3    Zn1   S    
C29   H21   S    
O2    Zn2   S    
C13   C14   A    
C10   H9    S    
C9    C10   S    
C26   H13   S    
C19   C20   S    
C29   H23   S    
C19   O7    A    
C1    O2    A    
C17   C28   S    
O4    Zn2   S    
C1    C4    S    
C2    C12   S    
C7    C18   S    
C28   H20   S    
C30   H24   S    
C13   N1    A    
C25   H11   S    
N1    Zn2   S    
C10   C29   S    
C21   C22   D    
C12   O3    A    
N2    Zn1   S    
O8    Zn2   S    
C6    C7    A    
O7    Zn1   S    
C16   H3    S    
C4    C5    A    
C15   N2    A    
C22   O9    S    
C21   H4    S    
C19   O8    A    
C26   H12   S    
C25   C26   S    
C5    H5    S    
C13   C30   S    
C11   N1    A    
C14   H1    S    
C16   H2    S    
C5    C6    A    
C27   H16   S    
O1    Zn1   S    
C26   H14   S    
C7    C8    A    
C9    H7    S    
C28   H19   S    
C15   C16   S    
C30   H26   S    
C25   H10   S    
C20   C24   T    
O5    Zn1   S    
C18   O6    A    
C29   H22   S    
C3    C8    A    
O9    C25   S    
C21   C24   S    
C2    C23   T    
C3    C10   S    
O6    Zn2   S    
C27   H15   S    
C16   C17   S    
C18   O5    A    
C9    H8    S    
C6    H6    S    
C28   H18   S    
C22   C23   S    
C11   C15   A    
C17   C27   S    
C14   N2    A    
C12   O4    A    
C11   C17   S    
C3    C4    A    
C1    O1    A    
C8    C9    S    
C27   H17   S    
