data_mof_unit_644.cif
_audit_creation_date              2013-03-05T16:19:18-0500
_audit_creation_method            fapswitch 2.2
_symmetry_space_group_name_H-M    P1
_symmetry_Int_Tables_number       1
_space_group_crystal_system       triclinic
_cell_length_a                    10.649209
_cell_length_b                    9.693329
_cell_length_c                    23.435486
_cell_angle_alpha                 90.301787
_cell_angle_beta                  90.2831
_cell_angle_gamma                 90.018336
_cell_volume                      2419.09495819

loop_
_atom_site_label
_atom_site_type_symbol
_atom_site_description
_atom_site_fract_x
_atom_site_fract_y
_atom_site_fract_z
_atom_type_partial_charge
O1    O     O_R   0.314910 0.616040 0.499990 -0.619647
O2    O     O_R   0.314910 0.383960 0.499990 -0.609979
C1    C     C_R   0.258021 0.500065 0.502248 0.986141
O3    O     O_R   0.500080 0.616070 0.416130 -0.615128
O4    O     O_R   0.500080 0.383930 0.416130 -0.612764
C2    C     C_R   0.499556 0.499518 0.389217 0.919566
Zn1   Zn    Zn3+2 0.500150 0.654960 0.499970 0.959519
Zn2   Zn    Zn3+2 0.500150 0.345040 0.499970 0.960866
O5    O     O_R   0.685320 0.616040 0.499970 -0.623440
O6    O     O_R   0.685320 0.383960 0.499970 -0.635591
O7    O     O_R   0.500150 0.616010 0.583820 -0.625386
O8    O     O_R   0.500150 0.383990 0.583820 -0.624220
C3    C     C_R   0.741564 0.500328 0.505230 0.978984
C4    C     C_R   0.499488 0.500362 0.610677 0.994563
C5    C     C_R   0.603460 0.485704 0.880857 0.665273
N1    N     N_R   0.492567 0.504188 0.852367 -0.331865
C6    C     C_R   0.381193 0.521204 0.880191 0.637018
C7    C     C_R   0.378453 0.520103 0.939738 -0.022340
C8    C     C_R   0.491602 0.499124 0.970059 -0.002012
C9    C     C_R   0.605026 0.481625 0.940418 -0.082166
C10   C     C_R   0.265808 0.539269 0.969420 -0.095647
C11   C     C_R   0.265238 0.537898 0.028692 -0.083458
C12   C     C_R   0.376977 0.516102 0.059289 -0.018787
C13   C     C_R   0.491101 0.495844 0.030045 -0.036146
C14   C     C_R   0.604239 0.472892 0.060576 -0.137194
C15   C     C_R   0.717162 0.449474 0.030020 0.329419
C16   C     C_R   0.716554 0.457455 0.970546 -0.167745
C17   C     C_R   0.377347 0.513661 0.118711 0.591463
N2    N     N_R   0.487231 0.494024 0.147623 -0.348380
C18   C     C_R   0.599609 0.477716 0.120532 0.604906
O9    O     O_2   0.711167 0.469780 0.851407 -0.484019
O10   O     O_2   0.274089 0.539591 0.850140 -0.501700
H1    H     H_    0.177937 0.555886 0.947012 0.215623
H2    H     H_    0.177081 0.554177 0.050485 0.237389
O11   O     O_2   0.269035 0.530307 0.147647 -0.508151
O12   O     O_2   0.705719 0.469357 0.151966 -0.474114
H3    H     H_    0.803597 0.439948 0.947865 0.225927
C19   C     C_R   0.493932 0.366352 0.238213 0.365100
C20   C     C_R   0.500052 0.370921 0.297707 -0.280351
H4    H     H_    0.506814 0.275259 0.321155 0.187453
C21   C     C_R   0.496006 0.497455 0.327012 -0.103858
C22   C     C_R   0.486509 0.620955 0.296615 -0.195230
H5    H     H_    0.483544 0.719709 0.318346 0.169050
C23   C     C_R   0.481159 0.617994 0.237550 -0.121395
H6    H     H_    0.475434 0.713911 0.214178 0.184323
C24   C     C_R   0.485090 0.492030 0.208309 0.180906
C25   C     C_R   0.461889 0.381156 0.761659 0.332470
C26   C     C_R   0.464214 0.382059 0.702213 -0.241294
H7    H     H_    0.440423 0.288898 0.678815 0.197400
C27   C     C_R   0.497578 0.501408 0.672770 -0.139061
C28   C     C_R   0.528216 0.622072 0.702630 -0.196367
H8    H     H_    0.553407 0.714501 0.679543 0.212817
C29   C     C_R   0.526093 0.625215 0.762078 0.316419
C30   C     C_R   0.493034 0.503711 0.791629 0.060519
C31   C     C_3   0.074959 0.637018 0.535213 -0.190335
C32   C     C_3   0.074042 0.368797 0.538018 -0.196399
H9    H     H_    0.109966 0.726684 0.510424 0.150080
H10   H     H_    0.095791 0.277351 0.511269 0.149614
C33   C     C_3   0.929511 0.644235 0.531694 0.153630
C34   C     C_3   0.928840 0.373844 0.542462 0.122144
H11   H     H_    0.907331 0.721397 0.497976 0.082041
H12   H     H_    0.895019 0.280382 0.518919 0.103711
H13   H     H_    0.878263 0.568153 0.418226 0.190129
H14   H     H_    0.887001 0.387968 0.426975 0.191531
C35   C     C_3   0.068112 0.495367 0.441556 0.179750
C36   C     C_3   0.121732 0.500311 0.504977 0.045825
C37   C     C_3   0.877635 0.501880 0.508439 -0.127334
C38   C     C_3   0.922311 0.487018 0.445253 -0.624474
C39   C     C_3   0.377454 0.082037 0.477607 0.032368
C40   C     C_3   0.376861 0.917431 0.478387 0.035695
H15   H     H_    0.303272 0.116020 0.508008 0.125244
H16   H     H_    0.304110 0.886656 0.509935 0.114970
H17   H     H_    0.597576 0.121084 0.419010 0.157261
H18   H     H_    0.593349 0.879522 0.418073 0.154636
C41   C     C_3   0.602705 0.080748 0.463155 -0.251196
C42   C     C_3   0.601595 0.918502 0.462509 -0.250438
C43   C     C_3   0.518950 0.081887 0.557114 -0.272040
C44   C     C_3   0.520715 0.919299 0.557010 -0.276547
N3    N     N_3   0.499750 0.138610 0.498760 -0.054196
N4    N     N_3   0.499750 0.861390 0.498760 -0.052730
H19   H     H_    0.608501 0.121459 0.575338 0.231249
H20   H     H_    0.612052 0.882016 0.574279 0.224542
H21   H     H_    0.443407 0.119133 0.585966 0.162633
H22   H     H_    0.447385 0.880598 0.586545 0.162164
H23   H     H_    0.694881 0.116950 0.480036 0.164234
H24   H     H_    0.694103 0.880467 0.478050 0.166365
N5    N     N_R   0.558214 0.751525 0.791568 0.240965
O13   O     O_R   0.511071 0.780600 0.841301 -0.331733
O14   O     O_R   0.627216 0.843988 0.766614 -0.288682
N6    N     N_3   0.128871 0.654457 0.592866 -0.437912
H25   H     H_    0.066212 0.627218 0.624815 0.283844
H26   H     H_    0.150348 0.758606 0.599739 0.219095
N7    N     N_3   0.142120 0.339227 0.591424 -0.434779
H27   H     H_    0.133187 0.415502 0.622237 0.257821
H28   H     H_    0.108280 0.247049 0.608553 0.237632
N8    N     N_R   0.870777 0.701247 0.583671 0.226076
O15   O     O_R   0.899758 0.826222 0.599487 -0.388173
O16   O     O_R   0.776010 0.641895 0.608269 -0.349869
N9    N     N_R   0.879411 0.361482 0.600828 0.238553
O17   O     O_R   0.802915 0.261040 0.612570 -0.371691
O18   O     O_R   0.916931 0.441088 0.642291 -0.328182
N10   N     N_3   0.106292 0.620607 0.410131 -0.437282
H29   H     H_    0.052631 0.705939 0.422173 0.155984
H30   H     H_    0.087178 0.608298 0.366594 0.207107
N11   N     N_3   0.117865 0.374040 0.410317 -0.430762
H31   H     H_    0.098453 0.383179 0.366723 0.208340
H32   H     H_    0.072264 0.283276 0.422070 0.156413
N12   N     N_3   0.342965 0.143145 0.422505 -0.389454
H33   H     H_    0.250564 0.115852 0.412363 0.158219
H34   H     H_    0.400673 0.108080 0.389713 0.180685
N13   N     N_3   0.338757 0.852095 0.424344 -0.388703
H35   H     H_    0.245625 0.878342 0.415266 0.158725
H36   H     H_    0.394338 0.884377 0.390478 0.176154
N14   N     N_R   0.831944 0.410591 0.057826 0.255645
O19   O     O_R   0.836917 0.295589 0.086149 -0.271172
O20   O     O_R   0.936283 0.471607 0.044180 -0.375982
N15   N     N_R   0.497222 0.234906 0.209131 0.223451
O21   O     O_R   0.446277 0.219183 0.158942 -0.348308
O22   O     O_R   0.542951 0.126923 0.234656 -0.385679
N16   N     N_R   0.427647 0.255831 0.790689 0.244052
O23   O     O_R   0.472174 0.227712 0.841089 -0.326281
O24   O     O_R   0.359610 0.163051 0.764687 -0.323920

loop_
_geom_bond_atom_site_label_1
_geom_bond_atom_site_label_2
_geom_bond_distance
_ccdc_geom_bond_type
N5    O13   1.300880 A    
N7    H27   1.035506 S    
C31   C33   1.552305 S    
C7    C10   1.401567 A    
C21   C22   1.399693 A    
C8    C9    1.406224 A    
C34   N9    1.473517 S    
N14   O19   1.301366 A    
C20   C21   1.403330 A    
C4    C27   1.455416 S    
C29   C30   1.414721 A    
C23   H6    1.083155 S    
Zn1   O7    2.002957 S    
N11   H32   1.043721 S    
C15   C16   1.396354 A    
H18   C42   1.108998 S    
H14   C38   1.113803 S    
C17   N2    1.363196 A    
C31   N6    1.474315 S    
C39   C40   1.595793 S    
N15   O22   1.301784 A    
O4    C2    1.288643 A    
O7    C4    1.288543 A    
C44   N4    1.489058 S    
C10   H1    1.083278 S    
C43   H21   1.112511 S    
C5    N1    1.366047 A    
N12   H33   1.044795 S    
C34   H12   1.116886 S    
C7    C8    1.411179 A    
C39   H15   1.115104 S    
O5    C3    1.277953 A    
C33   C37   1.579538 S    
C19   N15   1.442327 S    
C41   H23   1.112514 S    
C25   C26   1.393562 A    
C17   O11   1.350191 S    
N16   O24   1.301752 A    
N1    C6    1.365915 A    
C2    C21   1.458156 S    
N8    O16   1.300247 A    
Zn2   N3    2.001049 S    
C12   C13   1.411468 A    
C26   C27   1.396899 A    
N7    H28   1.046127 S    
C10   C11   1.389259 A    
H17   C41   1.109003 S    
C32   N7    1.472809 S    
C22   C23   1.385267 A    
C35   N10   1.481054 S    
O3    Zn1   1.998713 S    
C35   N11   1.481537 S    
C39   N12   1.468617 S    
C23   C24   1.397755 A    
C27   C28   1.397520 A    
C43   N3    1.489827 S    
C5    C9    1.396610 A    
C11   H2    1.082161 S    
C33   H11   1.115397 S    
C40   N4    1.494216 S    
C28   H8    1.083430 S    
C13   C14   1.416463 A    
C34   C37   1.574800 S    
N13   H36   1.041782 S    
C20   H4    1.082599 S    
C14   C15   1.420346 A    
C43   C44   1.576132 S    
C37   C38   1.563525 S    
C28   C29   1.393654 A    
C41   C42   1.572737 S    
C15   N14   1.433810 S    
N2    C18   1.366319 A    
C44   H22   1.112439 S    
C44   H20   1.112819 S    
N6    H26   1.046528 S    
N9    O17   1.300691 A    
C43   H19   1.110407 S    
Zn2   O8    1.999051 S    
C35   C38   1.557605 S    
N8    O15   1.301573 A    
C6    C7    1.396066 A    
C29   N5    1.442986 S    
C12   C17   1.392893 A    
N10   H30   1.045638 S    
C25   C30   1.415357 A    
O3    C2    1.291000 A    
C26   H7    1.083336 S    
N9    O18   1.298983 A    
O8    C4    1.288882 A    
N5    O14   1.301780 A    
C39   N3    1.494291 S    
C1    C36   1.453093 S    
C33   N8    1.476850 S    
C42   H24   1.112284 S    
C31   C36   1.581211 S    
N16   O23   1.300837 A    
C3    C37   1.450701 S    
C14   C18   1.406752 A    
Zn1   O5    2.007798 S    
H13   C38   1.114586 S    
C25   N16   1.443068 S    
N13   H35   1.045125 S    
O1    Zn1   2.008294 S    
O2    Zn2   2.008530 S    
C42   N4    1.489368 S    
O6    C3    1.282060 A    
O4    Zn2   2.002613 S    
N14   O20   1.300680 A    
N12   H34   1.042017 S    
C5    O9    1.350037 S    
C9    C16   1.399166 A    
N11   H31   1.045589 S    
C18   O12   1.348549 S    
N2    C24   1.422734 S    
C31   H9    1.113169 S    
O2    C1    1.279283 A    
N15   O21   1.301058 A    
N6    H25   1.040423 S    
C19   C20   1.395936 A    
C16   H3    1.083769 S    
C32   C36   1.580034 S    
C32   H10   1.108185 S    
C8    C13   1.406367 A    
N10   H29   1.043931 S    
N1    C30   1.423450 S    
C19   C24   1.411571 A    
C40   N13   1.468376 S    
C32   C34   1.551069 S    
Zn2   O6    2.007561 S    
C35   C36   1.590069 S    
C22   H5    1.082465 S    
C6    O10   1.349873 S    
C11   C12   1.402870 A    
C40   H16   1.115191 S    
O1    C1    1.278332 A    
C41   N3    1.489100 S    
Zn1   N4    2.001351 S    
