data_mof_unit_2448.cif
_audit_creation_date              2012-12-10T18:14:42-0500
_audit_creation_method            fapswitch 2.2
_symmetry_space_group_name_H-M    P1
_symmetry_Int_Tables_number       1
_space_group_crystal_system       triclinic
_cell_length_a                    10.723382
_cell_length_b                    9.404489
_cell_length_c                    27.799493
_cell_angle_alpha                 89.958155
_cell_angle_beta                  89.982061
_cell_angle_gamma                 90.01333
_cell_volume                      2803.5203091

loop_
_atom_site_label
_atom_site_type_symbol
_atom_type_description
_atom_site_fract_x
_atom_site_fract_y
_atom_site_fract_z
_atom_type_partial_charge
C1    C     C_R   0.259629 0.500192 0.500089 0.765414
C2    C     C_R   0.499318 0.629195 0.278748 -0.101244
C3    C     C_R   0.499933 0.500395 0.253490 0.356960
C4    C     C_R   0.498626 0.497827 0.101679 -0.047370
C5    C     C_R   0.394343 0.548126 0.127282 -0.018741
C6    C     C_R   0.291344 0.599930 0.101998 -0.170795
C7    C     C_R   0.604344 0.451077 0.127203 -0.019433
C8    C     C_R   0.499974 0.500176 0.354464 -0.042785
C9    C     C_R   0.499146 0.499285 0.645532 -0.107195
C10   C     C_R   0.382518 0.517929 0.974497 -0.060885
C11   C     C_R   0.608736 0.466647 0.974388 0.073168
C12   C     C_R   0.499925 0.500050 0.407439 0.806037
C13   C     C_R   0.495849 0.493588 0.949165 0.008580
C14   C     C_R   0.268441 0.522187 0.948067 0.478267
C15   C     C_R   0.271827 0.519030 0.897496 -0.234517
C16   C     C_R   0.384484 0.510686 0.872500 -0.090196
C17   C     C_R   0.496492 0.494862 0.898149 -0.049359
C18   C     C_R   0.609206 0.478619 0.872622 -0.010810
C19   C     C_R   0.607812 0.481414 0.822151 0.593069
C20   C     C_R   0.387121 0.511791 0.821961 0.560617
C21   C     C_R   0.507968 0.368768 0.721211 0.548865
C22   C     C_R   0.510531 0.370478 0.670820 -0.312663
C23   C     C_R   0.740130 0.500212 0.500067 0.766734
C24   C     C_R   0.487057 0.627063 0.671256 -0.226401
C25   C     C_R   0.486608 0.626024 0.721390 -0.185235
C26   C     C_R   0.498029 0.497564 0.746452 0.272386
C27   C     C_R   0.387668 0.534606 0.025400 0.057674
C28   C     C_R   0.497506 0.495317 0.050597 0.063095
C29   C     C_R   0.606732 0.455482 0.025265 0.042232
C30   C     C_R   0.288923 0.595477 0.052030 -0.141675
C31   C     C_R   0.709002 0.403826 0.101880 -0.140624
C32   C     C_R   0.720425 0.452907 0.947750 -0.212394
C33   C     C_R   0.720526 0.459609 0.897862 -0.149551
C34   C     C_R   0.499815 0.499904 0.592577 0.830198
C35   C     C_R   0.710626 0.406478 0.051887 -0.212342
C36   C     C_3   0.071264 0.655830 0.500692 -0.376774
C37   C     C_3   0.071786 0.422412 0.545287 -0.377702
C38   C     C_3   0.928559 0.655844 0.500684 -0.377016
C39   C     C_3   0.927836 0.422426 0.545279 -0.374691
C40   C     C_3   0.071873 0.425312 0.454479 -0.376073
C41   C     C_3   0.121702 0.500903 0.500140 0.158747
C42   C     C_3   0.878055 0.500930 0.500128 0.157032
C43   C     C_3   0.927951 0.425330 0.454471 -0.375967
C44   C     C_3   0.611608 0.083837 0.525902 -0.187311
C45   C     C_3   0.611607 0.916153 0.525895 -0.187699
C46   C     C_3   0.389139 0.083765 0.526083 -0.188645
C47   C     C_3   0.389112 0.916115 0.526059 -0.188503
C48   C     C_3   0.500020 0.083705 0.451550 -0.186093
C49   C     C_3   0.500036 0.916471 0.451549 -0.186288
C50   C     C_R   0.396774 0.548368 0.177770 0.538365
C51   C     C_R   0.602792 0.452721 0.177700 0.532911
C52   C     C_R   0.500634 0.371499 0.278754 -0.101437
C53   C     C_R   0.500633 0.371225 0.328910 -0.228480
C54   C     C_R   0.499350 0.629246 0.328907 -0.228608
Cu1   Cu    Cu3+1 0.499860 0.642410 0.500020 0.894741
Cu2   Cu    Cu3+1 0.499860 0.357590 0.500020 0.894500
H1    H     H_    0.790860 0.365256 0.120625 0.190628
H2    H     H_    0.810271 0.440682 0.964576 0.145536
H3    H     H_    0.808608 0.448763 0.879116 0.183045
H4    H     H_    0.477813 0.725190 0.740877 0.156417
H5    H     H_    0.793786 0.365753 0.035021 0.152191
H6    H     H_    0.105436 0.715050 0.468578 0.162963
H7    H     H_    0.106096 0.310713 0.545860 0.160006
H8    H     H_    0.105369 0.712807 0.533240 0.159984
H9    H     H_    0.106641 0.475334 0.578469 0.157661
H10   H     H_    0.894408 0.712822 0.533230 0.160956
H11   H     H_    0.892935 0.475349 0.578458 0.159775
H12   H     H_    0.894490 0.715064 0.468566 0.162652
H13   H     H_    0.893467 0.310731 0.545850 0.160973
H14   H     H_    0.106790 0.480329 0.421663 0.158904
H15   H     H_    0.106197 0.313677 0.453160 0.162389
H16   H     H_    0.893144 0.480358 0.421652 0.158953
H17   H     H_    0.893565 0.313703 0.453146 0.162636
H18   H     H_    0.615648 0.123550 0.563548 0.141160
H19   H     H_    0.615717 0.876233 0.563532 0.142259
H20   H     H_    0.698245 0.121080 0.507930 0.138892
H21   H     H_    0.698187 0.879146 0.507884 0.138184
H22   H     H_    0.416646 0.122423 0.431647 0.139683
H23   H     H_    0.416684 0.877757 0.431641 0.139992
H24   H     H_    0.583198 0.122487 0.431510 0.139942
H25   H     H_    0.583224 0.877815 0.431516 0.139437
H26   H     H_    0.302332 0.121016 0.508270 0.139051
H27   H     H_    0.302376 0.879095 0.508174 0.138578
H28   H     H_    0.212341 0.645676 0.120715 0.189837
H29   H     H_    0.522002 0.271056 0.651672 0.160420
H30   H     H_    0.210897 0.646946 0.034994 0.187163
H31   H     H_    0.501071 0.270152 0.347600 0.143738
N1    N     N_R   0.499792 0.500417 0.201873 -0.468864
N2    N     N_R   0.497764 0.497780 0.798002 -0.449960
N3    N     N_3   0.500250 0.143650 0.501060 -0.112524
N4    N     N_3   0.500250 0.856350 0.501060 -0.112358
O1    O     O_R   0.317570 0.620260 0.500030 -0.596735
O2    O     O_R   0.317570 0.379740 0.500030 -0.596316
O3    O     O_R   0.499900 0.620250 0.430280 -0.592866
O4    O     O_R   0.499900 0.379750 0.430280 -0.592828
O5    O     O_R   0.682190 0.620260 0.500010 -0.596256
O6    O     O_R   0.682190 0.379740 0.500010 -0.595930
O7    O     O_R   0.499860 0.620280 0.569750 -0.590086
O8    O     O_R   0.499860 0.379720 0.569750 -0.590494
O9    O     O_2   0.296578 0.594784 0.202600 -0.538636
O10   O     O_2   0.280048 0.526138 0.796911 -0.551660
O11   O     O_2   0.703780 0.408298 0.202469 -0.539044
O12   O     O_2   0.715377 0.467782 0.797356 -0.524771
H32   H     H_    0.498918 0.730236 0.347599 0.143716
H33   H     H_    0.500761 0.271530 0.259448 0.140103
H34   H     H_    0.478002 0.727822 0.652686 0.158069
H35   H     H_    0.499167 0.729243 0.259441 0.140111
H36   H     H_    0.385479 0.123419 0.563744 0.138050
H37   H     H_    0.385286 0.876180 0.563700 0.137501
O13   O     O_3   0.523397 0.242806 0.746164 -0.564983
C55   C     C_3   0.411176 0.164963 0.744003 -0.317495
H38   H     H_    0.390672 0.129555 0.706660 0.146323
H39   H     H_    0.331545 0.227326 0.758717 0.186680
H40   H     H_    0.421336 0.068206 0.766512 0.197963
H41   H     H_    0.185299 0.518081 0.877524 0.196341
O14   O     O_3   0.155416 0.503057 0.971790 -0.578917
C56   C     C_3   0.064497 0.601062 0.955689 -0.370721
H42   H     H_    0.014665 0.558681 0.923772 0.181179
H43   H     H_    0.104287 0.708161 0.947901 0.163682
H44   H     H_    0.994255 0.614846 0.984617 0.193633

loop_
_geom_bond_atom_site_label_1
_geom_bond_atom_site_label_2
_ccdc_geom_bond_type
C10   C27   A    
C43   H17   S    
Cu2   O4    S    
C21   C26   A    
C43   H16   S    
C40   H15   S    
C55   H38   S    
C32   H2    S    
Cu1   Cu2   S    
C21   O13   S    
C55   H39   S    
O14   C56   S    
C26   N2    S    
C23   C42   S    
C40   H14   S    
C54   H32   S    
C28   C29   A    
C38   C42   S    
C56   H43   S    
C5    C6    A    
C9    C22   A    
C49   H25   S    
C15   C16   A    
C2    H35   S    
C23   O5    A    
C18   C19   A    
C22   H29   S    
C48   H22   S    
C44   H20   S    
O13   C55   S    
Cu1   N4    S    
C4    C28   A    
C46   H26   S    
C19   O12   S    
C40   C43   S    
C38   H10   S    
C16   C17   A    
C46   H36   S    
C12   O4    A    
C25   H4    S    
C47   H27   S    
C30   H30   S    
C16   C20   A    
Cu2   N3    S    
C33   H3    S    
C48   N3    S    
C21   C22   A    
C27   C30   A    
C12   O3    A    
C36   C41   S    
C47   N4    S    
Cu2   O6    S    
C49   N4    S    
Cu1   O3    S    
C36   H6    S    
C37   H7    S    
C17   C18   A    
C39   C42   S    
Cu2   O2    S    
C6    H28   S    
C7    C31   A    
C24   C25   A    
C35   H5    S    
C10   C14   A    
C56   H44   S    
C8    C54   A    
C4    C5    A    
C20   O10   S    
C4    C7    A    
C25   C26   A    
C47   H37   S    
C49   H23   S    
C37   H9    S    
C51   O11   S    
C8    C53   A    
Cu1   O1    S    
C19   N2    A    
C8    C12   S    
C34   O8    A    
C39   H13   S    
C53   H31   S    
C44   H18   S    
C1    C41   S    
C48   C49   S    
C6    C30   A    
C38   H12   S    
C52   H33   S    
C1    O1    A    
C2    C54   A    
C9    C34   S    
C31   C35   A    
C5    C50   A    
C24   H34   S    
C42   C43   S    
C44   N3    S    
C52   C53   A    
C46   C47   S    
C40   C41   S    
C23   O6    A    
C3    N1    S    
C39   H11   S    
C44   C45   S    
Cu1   O5    S    
C10   C13   A    
C51   N1    A    
C11   C32   A    
C3    C52   A    
C9    C24   A    
C46   N3    S    
C50   N1    A    
C20   N2    A    
C29   C35   A    
C50   O9    S    
C13   C17   A    
C45   H19   S    
C32   C33   A    
C31   H1    S    
C36   C38   S    
C2    C3    A    
C7    C51   A    
C37   C39   S    
C56   H42   S    
C11   C13   A    
C48   H24   S    
C14   O14   S    
Cu1   O7    S    
C34   O7    A    
C55   H40   S    
C15   H41   S    
C37   C41   S    
C45   N4    S    
C18   C33   A    
C11   C29   A    
C1    O2    A    
C27   C28   A    
C14   C15   A    
C45   H21   S    
Cu2   O8    S    
C36   H8    S    
