data_mof_unit_3754.cif
_audit_creation_date              2012-12-10T20:27:11-0500
_audit_creation_method            fapswitch 2.2
_symmetry_space_group_name_H-M    P1
_symmetry_Int_Tables_number       1
_space_group_crystal_system       triclinic
_cell_length_a                    10.751539
_cell_length_b                    10.670468
_cell_length_c                    9.88954
_cell_angle_alpha                 89.890816
_cell_angle_beta                  103.613556
_cell_angle_gamma                 89.852056
_cell_volume                      1102.68447945

loop_
_atom_site_label
_atom_site_type_symbol
_atom_type_description
_atom_site_fract_x
_atom_site_fract_y
_atom_site_fract_z
_atom_type_partial_charge
C1    C     C_R   0.503826 0.260315 0.501428 0.907404
C2    C     C_R   0.611137 0.508817 0.100092 -0.069812
C3    C     C_R   0.611199 0.508296 0.956524 -0.102971
C4    C     C_R   0.258950 0.503737 0.442041 0.962068
C5    C     C_R   0.387642 0.503382 0.899870 0.175760
C6    C     C_3   0.280756 0.411962 0.863063 -0.518396
C7    C     C_3   0.282866 0.404087 0.016977 -0.035544
C8    C     C_R   0.505905 0.739762 0.501116 0.928861
C9    C     C_R   0.741080 0.504646 0.557713 0.936775
C10   C     C_2   0.122048 0.518698 0.408795 -0.334767
C11   C     C_2   0.067289 0.556848 0.508870 -0.116258
C12   C     C_R   0.521733 0.129088 0.509366 -0.112320
C13   C     C_2   0.877616 0.523392 0.589405 -0.358293
C14   C     C_2   0.931089 0.554119 0.485465 -0.109901
C15   C     C_R   0.486793 0.063440 0.615788 0.088544
C16   C     C_R   0.581011 0.067006 0.416748 -0.199745
C17   C     C_R   0.584105 0.936883 0.416147 0.166839
C18   C     C_R   0.522345 0.871631 0.506437 -0.141138
C19   C     C_R   0.482710 0.936341 0.611026 0.048972
C20   C     C_3   0.361790 0.931219 0.661602 -0.000387
C21   C     C_3   0.369105 0.073246 0.670697 -0.471053
C22   C     C_R   0.387783 0.499736 0.041898 0.170091
H1    H     H_    0.875299 0.565792 0.379188 0.188626
H2    H     H_    0.066150 0.496630 0.304910 0.148687
H3    H     H_    0.620623 0.118915 0.342507 0.195035
H4    H     H_    0.376095 0.884934 0.764954 0.166690
H5    H     H_    0.289811 0.123578 0.598311 0.220093
H6    H     H_    0.391042 0.108124 0.779538 0.209904
H7    H     H_    0.701173 0.514217 0.176260 0.145235
H8    H     H_    0.701202 0.513013 0.925953 0.151166
H9    H     H_    0.191426 0.455339 0.801637 0.176364
H10   H     H_    0.309359 0.324608 0.817266 0.231530
H11   H     H_    0.193896 0.441058 0.041366 0.145170
H12   H     H_    0.122847 0.580893 0.612076 0.186632
H13   H     H_    0.934214 0.510962 0.695257 0.147408
I1    I     I_    0.336815 0.219424 0.096123 -0.329920
I2    I     I_    0.681223 0.851517 0.275573 -0.333732
I3    I     I_    0.197140 0.870473 0.507544 -0.343542
N1    N     N_R   0.499160 0.499140 0.142600 -0.094354
N2    N     N_R   0.499160 0.499180 0.856960 -0.100672
O1    O     O_R   0.500020 0.316790 0.614700 -0.616802
O2    O     O_R   0.500000 0.316760 0.385350 -0.588651
O3    O     O_R   0.317820 0.500020 0.571850 -0.616871
O4    O     O_R   0.317800 0.499980 0.342510 -0.606517
O5    O     O_R   0.500000 0.683240 0.614650 -0.617073
O6    O     O_R   0.499980 0.683210 0.385300 -0.585517
O7    O     O_R   0.682200 0.500020 0.657490 -0.625793
O8    O     O_R   0.682180 0.499980 0.428150 -0.624950
Zn1   Zn    Zn3+2 0.500010 0.500020 0.653140 0.961068
Zn2   Zn    Zn3+2 0.499990 0.499980 0.346860 0.996058

loop_
_geom_bond_atom_site_label_1
_geom_bond_atom_site_label_2
_ccdc_geom_bond_type
C14   H1    S    
C3    H8    S    
C6    H10   S    
C13   H13   S    
C6    C7    S    
C4    O3    A    
C7    C22   S    
C20   I3    S    
C7    I1    S    
O6    Zn2   S    
C19   C20   S    
C12   C15   A    
O5    Zn1   S    
O8    Zn2   S    
C2    C3    A    
C21   H5    S    
O7    Zn1   S    
C17   I2    S    
C13   C14   D    
C15   C19   A    
C7    H11   S    
C1    C12   S    
C20   H4    S    
O2    Zn2   S    
C2    H7    S    
C22   N1    A    
C1    O1    A    
C21   H6    S    
C3    N2    A    
C9    O7    A    
C5    C6    S    
C11   C14   S    
C8    O6    A    
C10   C11   D    
C4    C10   S    
N2    Zn1   S    
C1    O2    A    
C15   C21   S    
N1    Zn2   S    
C20   C21   S    
C9    O8    A    
C17   C18   A    
C18   C19   A    
C5    N2    A    
O4    Zn2   S    
C16   H3    S    
C9    C13   S    
C8    O5    A    
O3    Zn1   S    
C6    H9    S    
C4    O4    A    
C10   H2    S    
C2    N1    A    
O1    Zn1   S    
C11   H12   S    
C8    C18   S    
C5    C22   A    
C12   C16   A    
C16   C17   A    
