data_mof_unit_3113.cif
_audit_creation_date              2012-10-26T18:49:09-0400
_audit_creation_method            fapswitch 2.2
_symmetry_space_group_name_H-M    P1
_symmetry_Int_Tables_number       1
_space_group_crystal_system       triclinic
_cell_length_a                    10.755433
_cell_length_b                    10.935383
_cell_length_c                    9.716334
_cell_angle_alpha                 89.733907
_cell_angle_beta                  89.677025
_cell_angle_gamma                 90.510487
_cell_volume                      1142.70837143

loop_
_atom_site_label
_atom_site_type_symbol
_atom_type_description
_atom_site_fract_x
_atom_site_fract_y
_atom_site_fract_z
_atom_type_partial_charge
C1    C     C_R   0.499497 0.265522 0.500455 0.565926
C2    C     C_2   0.420820 0.436884 0.078990 0.021383
C3    C     C_R   0.260130 0.499470 0.500574 0.527359
C4    C     C_R   0.508119 0.734606 0.499249 0.586028
C5    C     C_R   0.740119 0.500611 0.499583 0.635199
C6    C     C_3   0.070855 0.496287 0.650609 -0.260715
C7    C     C_3   0.928790 0.500814 0.649532 -0.246245
C8    C     C_3   0.076057 0.617485 0.430365 -0.164884
C9    C     C_3   0.072970 0.385462 0.424125 -0.241279
C10   C     C_3   0.122506 0.499584 0.501394 -0.050827
C11   C     C_2   0.574803 0.888272 0.248190 0.627518
C12   C     C_3   0.878614 0.499793 0.498640 0.022769
C13   C     C_2   0.519578 0.620272 0.893904 0.718656
C14   C     C_2   0.878700 0.260481 0.476385 0.548592
C15   C     C_3   0.931992 0.616922 0.421936 0.394513
C16   C     C_3   0.928604 0.382803 0.423518 -0.085617
C17   C     C_2   0.545858 0.937572 0.386706 0.044018
C18   C     C_2   0.524460 0.867078 0.499733 -0.087657
C19   C     C_2   0.546314 0.071878 0.396212 -0.126248
C20   C     C_2   0.498291 0.133495 0.502240 -0.129589
C21   C     C_2   0.434237 0.424324 0.924731 0.003995
Cl1   Cl    Cl    0.889744 0.622102 0.242896 -0.535438
Cl2   Cl    Cl    0.872695 0.755098 0.496506 -0.503418
Cu1   Cu    Cu3+1 0.500030 0.500020 0.638630 1.062553
Cu2   Cu    Cu3+1 0.499970 0.499980 0.361370 1.042374
H1    H     H_    0.107392 0.575407 0.710292 0.175010
H2    H     H_    0.581591 0.524277 0.108137 0.247496
H3    H     H_    0.891732 0.422650 0.710832 0.198446
H4    H     H_    0.897900 0.584514 0.704094 0.201100
H5    H     H_    0.110086 0.698272 0.488910 0.154916
H6    H     H_    0.107636 0.386563 0.315919 0.147037
H7    H     H_    0.111048 0.301722 0.473511 0.152450
H8    H     H_    0.675401 0.772578 0.132588 0.374458
H9    H     H_    0.447180 0.773649 0.974680 0.362788
H10   H     H_    0.771199 0.165793 0.611221 0.357083
H11   H     H_    0.898454 0.386678 0.314356 0.162518
H12   H     H_    0.118458 0.625754 0.325948 0.179283
H13   H     H_    0.518450 0.907562 0.600928 0.108606
H14   H     H_    0.585908 0.122590 0.309603 0.186760
H15   H     H_    0.457360 0.089294 0.591684 0.104965
H16   H     H_    0.388164 0.346911 0.876979 0.119712
H17   H     H_    0.344424 0.389080 0.129659 0.138064
H18   H     H_    0.101163 0.411266 0.703793 0.152365
N1    N     N_2   0.498630 0.498660 0.846910 -0.232518
N2    N     N_2   0.498590 0.498630 0.153040 -0.324412
O1    O     O_R   0.500020 0.321960 0.617040 -0.498534
O2    O     O_R   0.662666 0.796098 0.232418 -0.569725
O3    O     O_2   0.621187 0.668689 0.875311 -0.488356
O4    O     O_R   0.422244 0.686439 0.952886 -0.683041
O5    O     O_2   0.908691 0.166886 0.416758 -0.466034
O6    O     O_R   0.797287 0.252988 0.588814 -0.702107
O7    O     O_R   0.499980 0.321920 0.382900 -0.508593
O8    O     O_R   0.317710 0.500000 0.617070 -0.516896
O9    O     O_R   0.317670 0.499960 0.382930 -0.513084
O10   O     O_R   0.500020 0.678080 0.617100 -0.478548
O11   O     O_R   0.499980 0.678040 0.382960 -0.452191
O12   O     O_R   0.682330 0.500040 0.617070 -0.466649
O13   O     O_R   0.682290 0.500000 0.382930 -0.457501
O14   O     O_2   0.527025 0.934258 0.146710 -0.533829

loop_
_geom_bond_atom_site_label_1
_geom_bond_atom_site_label_2
_ccdc_geom_bond_type
C6    C10   S    
C13   O3    D    
Cu1   Cu2   S    
Cu2   O11   S    
C6    C7    S    
C7    H4    S    
C21   N1    D    
C9    C10   S    
C11   O2    S    
C19   C20   D    
C12   C15   S    
C5    O12   A    
C4    C18   S    
H2    N2    S    
C2    C21   S    
C15   Cl2   S    
C17   C18   D    
C18   H13   S    
Cu2   O7    S    
C8    H5    S    
C4    O10   A    
C3    C10   S    
C6    H1    S    
C16   H11   S    
Cu1   O10   S    
C3    O8    A    
C14   O5    D    
C12   C16   S    
C19   H14   S    
C5    O13   A    
C2    H17   S    
C11   O14   D    
C17   C19   S    
C9    C16   S    
C8    C15   S    
C14   C16   S    
C6    H18   S    
C15   Cl1   S    
C2    N2    D    
H10   O6    S    
C7    C12   S    
Cu1   N1    S    
C3    O9    A    
C13   O4    S    
C1    O1    A    
C8    H12   S    
C9    H6    S    
H8    O2    S    
Cu2   N2    S    
Cu2   O9    S    
C5    C12   S    
C8    C10   S    
Cu2   O13   S    
C21   H16   S    
Cu1   O1    S    
C11   C17   S    
C1    C20   S    
C9    H7    S    
Cu1   O8    S    
C1    O7    A    
C20   H15   S    
C13   N1    S    
C4    O11   A    
C7    H3    S    
C14   O6    S    
Cu1   O12   S    
H9    O4    S    
