data_mof_unit_1074.cif
_audit_creation_date              2012-12-10T17:56:42-0500
_audit_creation_method            fapswitch 2.2
_symmetry_space_group_name_H-M    P1
_symmetry_Int_Tables_number       1
_space_group_crystal_system       triclinic
_cell_length_a                    10.83003
_cell_length_b                    9.529234
_cell_length_c                    10.780208
_cell_angle_alpha                 89.918946
_cell_angle_beta                  90.439586
_cell_angle_gamma                 89.964935
_cell_volume                      1112.50376872

loop_
_atom_site_label
_atom_site_type_symbol
_atom_type_description
_atom_site_fract_x
_atom_site_fract_y
_atom_site_fract_z
_atom_type_partial_charge
C1    C     C_R   0.262084 0.500027 0.500072 0.786470
C2    C     C_R   0.737896 0.499978 0.499965 0.761462
C3    C     C_R   0.935965 0.627757 0.497811 -0.203851
C4    C     C_R   0.063731 0.627783 0.497695 -0.189126
C5    C     C_R   0.423162 0.075437 0.421067 0.536185
C6    C     C_R   0.576851 0.075136 0.579032 0.533059
C7    C     C_R   0.426268 0.925194 0.419887 -0.154110
C8    C     C_R   0.573763 0.924804 0.580095 -0.156203
C9    C     C_R   0.504356 0.500131 0.262567 0.789099
C10   C     C_R   0.504541 0.499951 0.737476 0.793276
C11   C     C_R   0.699258 0.651185 0.130639 -0.174637
C12   C     C_R   0.699745 0.650188 0.871806 -0.181671
C13   C     C_R   0.789938 0.724463 0.066253 -0.128161
C14   C     C_R   0.790176 0.723971 0.937243 -0.145912
C15   C     C_R   0.605352 0.577293 0.935042 0.103761
C16   C     C_R   0.605146 0.577680 0.066258 0.092063
C17   C     C_R   0.513167 0.500117 0.128941 -0.107831
C18   C     C_R   0.513459 0.499618 0.871209 -0.089064
C19   C     C_R   0.427643 0.418949 0.063495 -0.185976
C20   C     C_R   0.427770 0.418738 0.935580 -0.197548
C21   C     C_R   0.063880 0.372826 0.502883 -0.199744
C22   C     C_R   0.936221 0.372775 0.501914 -0.188542
C23   C     C_R   0.871724 0.500175 0.499847 -0.006353
C24   C     C_R   0.128201 0.500241 0.500251 -0.011150
Cu1   Cu    Cu3+1 0.500000 0.640660 0.500000 0.933413
Cu2   Cu    Cu3+1 0.500000 0.359340 0.500000 1.027074
H1    H     H_    0.358462 0.357995 0.111824 0.175268
H2    H     H_    0.358630 0.357732 0.886361 0.148946
H3    H     H_    0.705580 0.650774 0.230722 0.147755
H4    H     H_    0.706538 0.648721 0.771868 0.138878
H5    H     H_    0.861370 0.780225 0.116748 0.130737
H6    H     H_    0.861776 0.779337 0.887604 0.126923
H7    H     H_    0.111886 0.273228 0.505844 0.154807
H8    H     H_    0.888362 0.273115 0.502835 0.156270
H9    H     H_    0.887817 0.727441 0.496093 0.143851
H10   H     H_    0.111706 0.727480 0.495644 0.144900
H11   H     H_    0.370316 0.866383 0.354922 0.154530
H12   H     H_    0.629688 0.865516 0.644880 0.149429
N1    N     N_R   0.500000 0.852070 0.500000 -0.197670
N2    N     N_R   0.500000 0.147940 0.500000 -0.240320
O1    O     O_R   0.319640 0.618740 0.499990 -0.588907
O2    O     O_R   0.680360 0.618740 0.500010 -0.606472
O3    O     O_R   0.319620 0.381170 0.499990 -0.553804
O4    O     O_R   0.680380 0.381170 0.500010 -0.549995
O5    O     O_R   0.500000 0.618810 0.319650 -0.589266
O6    O     O_R   0.500000 0.618810 0.680350 -0.588704
O7    O     O_R   0.499970 0.381240 0.319640 -0.529497
O8    O     O_R   0.500030 0.381240 0.680360 -0.530652
O9    O     O_3   0.350868 0.152574 0.338409 -0.538004
C25   C     C_3   0.233982 0.091048 0.317668 -0.390495
H13   H     H_    0.170359 0.173342 0.282159 0.195369
H14   H     H_    0.192929 0.048234 0.404300 0.140087
H15   H     H_    0.239870 0.008812 0.245062 0.166033
O10   O     O_3   0.649149 0.152288 0.661547 -0.530055
C26   C     C_3   0.763960 0.087877 0.687315 -0.373305
H16   H     H_    0.828063 0.168969 0.723743 0.197442
H17   H     H_    0.806989 0.042594 0.602765 0.133072
H18   H     H_    0.753901 0.007128 0.760944 0.166863

loop_
_geom_bond_atom_site_label_1
_geom_bond_atom_site_label_2
_ccdc_geom_bond_type
Cu1   O2    S    
C10   O6    A    
C15   C18   A    
C25   H14   S    
C26   H16   S    
C4    H10   S    
C9    O5    A    
C8    N1    A    
Cu2   O8    S    
C19   H1    S    
C11   C16   A    
C3    C23   A    
C19   C20   A    
C12   C15   A    
C3    H9    S    
C5    O9    S    
C21   C22   A    
C25   H13   S    
C7    H11   S    
Cu2   O4    S    
C13   C14   A    
Cu1   N1    S    
C11   C13   A    
Cu2   N2    S    
C1    O3    A    
C8    H12   S    
Cu2   O7    S    
C2    O2    A    
C4    C24   A    
C9    C17   S    
C17   C19   A    
C10   C18   S    
Cu2   O3    S    
C6    O10   S    
C18   C20   A    
C26   H17   S    
C10   O8    A    
C22   H8    S    
C6    N2    A    
C26   H18   S    
C9    O7    A    
C21   H7    S    
Cu1   O1    S    
C15   C16   A    
C25   H15   S    
Cu1   O5    S    
C14   H6    S    
C2    O4    A    
C11   H3    S    
C1    C24   S    
O9    C25   S    
C21   C24   A    
C1    O1    A    
C2    C23   S    
C5    C7    A    
C7    N1    A    
C22   C23   A    
C6    C8    A    
C20   H2    S    
C5    N2    A    
Cu1   Cu2   S    
O10   C26   S    
C12   H4    S    
Cu1   O6    S    
C13   H5    S    
C3    C4    A    
C12   C14   A    
C16   C17   A    
