data_mof_unit_3986.cif
_audit_creation_date              2012-12-11T16:27:33-0500
_audit_creation_method            fapswitch 2.2
_symmetry_space_group_name_H-M    P1
_symmetry_Int_Tables_number       1
_space_group_crystal_system       triclinic
_cell_length_a                    21.780075
_cell_length_b                    6.913486
_cell_length_c                    14.428043
_cell_angle_alpha                 90.002883
_cell_angle_beta                  103.397398
_cell_angle_gamma                 90.006461
_cell_volume                      2113.39839666

loop_
_atom_site_label
_atom_site_type_symbol
_atom_type_description
_atom_site_fract_x
_atom_site_fract_y
_atom_site_fract_z
_atom_type_partial_charge
O1    O     O_R   0.835850 0.638310 0.002120 -0.540432
O2    O     O_R   0.164150 0.361690 0.997880 -0.530361
O3    O     O_R   0.664150 0.138310 0.997880 -0.540306
O4    O     O_R   0.335850 0.861690 0.002120 -0.530141
O5    O     O_R   0.717530 0.306070 0.861970 -0.532641
O6    O     O_R   0.282470 0.693930 0.138030 -0.550156
O7    O     O_R   0.782470 0.806070 0.138030 -0.532999
O8    O     O_R   0.217530 0.193930 0.861970 -0.550202
C1    C     C_R   0.702141 0.476591 0.824237 0.695335
C2    C     C_R   0.298864 0.524386 0.175460 0.710834
C3    C     C_R   0.797827 0.976612 0.175774 0.694773
C4    C     C_R   0.201144 0.024368 0.824535 0.711235
O9    O     O_R   0.838690 0.308440 0.993250 -0.534462
O10   O     O_R   0.161310 0.691560 0.006750 -0.546213
O11   O     O_R   0.661310 0.808440 0.006750 -0.534622
O12   O     O_R   0.338690 0.191560 0.993250 -0.546285
O13   O     O_R   0.786170 0.140510 0.130090 -0.539981
O14   O     O_R   0.213830 0.859490 0.869910 -0.526494
O15   O     O_R   0.713830 0.640510 0.869910 -0.540081
O16   O     O_R   0.286170 0.359490 0.130090 -0.526728
C5    C     C_R   0.864426 0.477260 0.992048 0.662336
C6    C     C_R   0.135238 0.522081 0.006084 0.672799
C7    C     C_R   0.635589 0.977243 0.008032 0.662007
C8    C     C_R   0.364765 0.022111 0.993924 0.673254
O17   O     O_3   0.732630 0.472520 0.044740 -0.359080
O18   O     O_3   0.267370 0.527480 0.955260 -0.362294
O19   O     O_3   0.767370 0.972520 0.955260 -0.358971
O20   O     O_3   0.232630 0.027480 0.044740 -0.362483
V1    V     V_3+5 0.753220 0.196740 0.991700 1.487253
V2    V     V_3+5 0.246780 0.803260 0.008300 1.471415
V3    V     V_3+5 0.746780 0.696740 0.008300 1.486679
V4    V     V_3+5 0.253220 0.303260 0.991700 1.471100
H1    H     H_    0.582594 0.841612 0.330747 0.132475
H2    H     H_    0.412315 0.003468 0.664069 0.125522
H3    H     H_    0.917337 0.340292 0.669405 0.132705
H4    H     H_    0.087673 0.504962 0.335930 0.125628
C9    C     C_R   0.546765 0.030931 0.833671 -0.153120
C10   C     C_R   0.453713 0.985195 0.169097 -0.151846
C11   C     C_R   0.953252 0.532141 0.166289 -0.153267
C12   C     C_R   0.046342 0.483347 0.830989 -0.151778
C13   C     C_R   0.506464 0.033714 0.744199 -0.163333
C14   C     C_R   0.492239 0.936913 0.256313 -0.161298
C15   C     C_R   0.993550 0.535330 0.255752 -0.163409
C16   C     C_R   0.007810 0.434697 0.743833 -0.161461
C17   C     C_R   0.442465 0.010382 0.735061 -0.119855
C18   C     C_R   0.554274 0.886574 0.262189 -0.112920
C19   C     C_R   0.057537 0.511683 0.264928 -0.119445
C20   C     C_R   0.945702 0.385228 0.737943 -0.113252
C21   C     C_R   0.417149 0.995061 0.815559 0.000916
C22   C     C_R   0.580234 0.895133 0.181957 -0.013489
C23   C     C_R   0.082856 0.495680 0.184463 0.000669
C24   C     C_R   0.919708 0.394810 0.818111 -0.013301
C25   C     C_R   0.456951 0.007830 0.909641 0.004397
C26   C     C_R   0.542612 0.956313 0.091163 0.001628
C27   C     C_R   0.043061 0.508219 0.090363 0.004393
C28   C     C_R   0.957381 0.455965 0.908887 0.001419
C29   C     C_R   0.523667 0.011184 0.917570 0.082798
C30   C     C_R   0.476676 0.986688 0.084699 0.083713
C31   C     C_R   0.976346 0.511764 0.082421 0.082834
C32   C     C_R   0.023342 0.485878 0.915346 0.083642
C33   C     C_R   0.433683 0.009815 0.994992 -0.173999
C34   C     C_R   0.566637 0.983794 0.007101 -0.171451
C35   C     C_R   0.066327 0.509648 0.005020 -0.173886
C36   C     C_R   0.933368 0.483934 0.992930 -0.171659
H5    H     H_    0.596533 0.039915 0.835237 0.126091
H6    H     H_    0.405095 0.017555 0.168911 0.116900
H7    H     H_    0.903489 0.541324 0.164715 0.126121
H8    H     H_    0.094994 0.515173 0.831157 0.117079
H9    H     H_    0.525274 0.046736 0.681249 0.137385
H10   H     H_    0.473320 0.932947 0.319414 0.136223
H11   H     H_    0.974738 0.548847 0.318675 0.137401
H12   H     H_    0.026764 0.429945 0.680778 0.136346
C37   C     C_R   0.173329 0.021618 0.720385 -0.089836
C38   C     C_R   0.826292 0.983906 0.279534 -0.095716
C39   C     C_R   0.326650 0.521654 0.279611 -0.089890
C40   C     C_R   0.673649 0.483866 0.720485 -0.095762
C41   C     C_R   0.184935 0.087955 0.558883 0.295501
C42   C     C_R   0.813237 0.973647 0.443426 0.299914
C43   C     C_R   0.315015 0.587990 0.441101 0.295637
C44   C     C_R   0.686684 0.473981 0.556586 0.299848
C45   C     C_R   0.208469 0.091060 0.658044 -0.123652
C46   C     C_R   0.787965 0.990924 0.344695 -0.142400
C47   C     C_R   0.291510 0.591179 0.341928 -0.123548
C48   C     C_R   0.711952 0.491395 0.655302 -0.141838
C49   C     C_R   0.110362 0.967916 0.684166 -0.246513
C50   C     C_R   0.891842 0.979195 0.313240 -0.243356
C51   C     C_R   0.389594 0.467828 0.315852 -0.246401
C52   C     C_R   0.608096 0.478723 0.686798 -0.243498
C53   C     C_R   0.080874 0.991497 0.585837 0.048486
C54   C     C_R   0.920133 0.978187 0.412419 0.048189
C55   C     C_R   0.419067 0.491371 0.414187 0.048580
C56   C     C_R   0.579796 0.477881 0.587621 0.048233
C57   C     C_R   0.119482 0.048450 0.522859 0.034705
C58   C     C_R   0.879999 0.960927 0.477045 0.038245
C59   C     C_R   0.380455 0.548285 0.477161 0.034691
C60   C     C_R   0.619931 0.461013 0.522978 0.038126
C61   C     C_R   0.013967 0.968199 0.548778 0.072788
C62   C     C_R   0.987075 0.993208 0.449164 0.072912
C63   C     C_R   0.485971 0.468061 0.451248 0.072722
C64   C     C_R   0.512852 0.492790 0.550884 0.072962
C65   C     C_R   0.027297 0.045666 0.389930 -0.185569
C66   C     C_R   0.972556 0.929780 0.608557 -0.186967
C67   C     C_R   0.472619 0.544971 0.610142 -0.185489
C68   C     C_R   0.527391 0.429990 0.391443 -0.186977
C69   C     C_R   0.091248 0.074610 0.425883 -0.226492
C70   C     C_R   0.907517 0.929337 0.573878 -0.216320
C71   C     C_R   0.408677 0.574117 0.574175 -0.226565
C72   C     C_R   0.592427 0.429633 0.426127 -0.216086
H13   H     H_    0.117223 0.127331 0.375905 0.175042
H14   H     H_    0.879252 0.901975 0.624924 0.161084
H15   H     H_    0.382715 0.626698 0.624197 0.174518
H16   H     H_    0.620709 0.402589 0.375070 0.161788
H17   H     H_    0.919506 0.971115 0.260267 0.117981
H18   H     H_    0.085178 0.917212 0.735455 0.117182
H19   H     H_    0.580441 0.470294 0.739770 0.118008
H20   H     H_    0.414771 0.416992 0.264580 0.117115
H21   H     H_    0.738133 0.009969 0.317971 0.109611
H22   H     H_    0.254867 0.146908 0.687315 0.113271
H23   H     H_    0.761765 0.510937 0.681974 0.109894
H24   H     H_    0.245126 0.647106 0.312620 0.113328
H25   H     H_    0.010065 0.077965 0.315343 0.144606
H26   H     H_    0.988578 0.906479 0.684052 0.143105
H27   H     H_    0.489843 0.576957 0.684766 0.144583
H28   H     H_    0.511380 0.406991 0.315924 0.143297
C73   C     C_2   0.349563 0.953601 0.796237 0.317573
H29   H     H_    0.318985 0.053874 0.820201 0.027297
O21   O     O_2   0.327695 0.810085 0.751155 -0.547049
C74   C     C_2   0.645785 0.829346 0.197837 0.351519
H30   H     H_    0.680340 0.922120 0.178897 0.015836
O22   O     O_2   0.661958 0.673758 0.235785 -0.546949
C75   C     C_2   0.150401 0.453444 0.203864 0.317494
H31   H     H_    0.181109 0.552822 0.179624 0.027585
O23   O     O_2   0.172124 0.310372 0.249436 -0.547379
C76   C     C_2   0.853988 0.330595 0.802124 0.351790
H32   H     H_    0.819673 0.424345 0.821052 0.015191
O24   O     O_2   0.837418 0.175310 0.764119 -0.546926
N1    N     N_2   0.225909 0.129312 0.495934 -0.516039
H33   H     H_    0.213116 0.067757 0.429402 0.274129
C77   C     C_3   0.293786 0.121803 0.532094 -0.497868
H34   H     H_    0.317641 0.142717 0.472590 0.200676
H35   H     H_    0.307961 0.979300 0.565350 0.231597
H36   H     H_    0.310069 0.238910 0.584383 0.183329
N2    N     N_2   0.772618 0.969236 0.509146 -0.524860
H37   H     H_    0.788739 0.039226 0.573040 0.280597
C78   C     C_3   0.704633 0.976158 0.475211 -0.502004
H38   H     H_    0.681925 0.959214 0.536172 0.201431
H39   H     H_    0.688080 0.857087 0.424458 0.199304
H40   H     H_    0.689866 0.116293 0.439934 0.211207
N3    N     N_2   0.274026 0.629498 0.504012 -0.516137
H41   H     H_    0.286813 0.568157 0.570584 0.274005
C79   C     C_3   0.206155 0.621708 0.467844 -0.497976
H42   H     H_    0.182289 0.642760 0.527326 0.200601
H43   H     H_    0.192020 0.479059 0.434713 0.232058
H44   H     H_    0.189832 0.738610 0.415469 0.183255
N4    N     N_2   0.727295 0.469737 0.490859 -0.524934
H45   H     H_    0.711242 0.540203 0.427085 0.280748
C80   C     C_3   0.795288 0.475739 0.524797 -0.501820
H46   H     H_    0.817965 0.458434 0.463825 0.201399
H47   H     H_    0.811662 0.356475 0.575503 0.199772
H48   H     H_    0.810271 0.615709 0.560116 0.210869

loop_
_geom_bond_atom_site_label_1
_geom_bond_atom_site_label_2
_ccdc_geom_bond_type
O17   V3    S    
C16   C20   A    
O1    C5    A    
C80   H46   S    
C12   C32   A    
C27   C31   A    
O19   V1    S    
C24   C76   S    
O12   C8    A    
O3    C7    A    
C56   C60   A    
C44   C48   A    
C67   H27   S    
C74   H30   S    
C40   C48   A    
C61   C62   A    
O4    V2    S    
C29   C34   A    
O7    C3    A    
N1    C77   S    
C31   C36   A    
C8    C33   S    
C50   H17   S    
O9    V1    S    
C49   H18   S    
C41   N1    S    
C10   C14   A    
C51   C55   A    
N3    C79   S    
C78   H38   S    
O4    C8    A    
C77   H36   S    
N4    C80   S    
N2    H37   S    
O1    V3    S    
O13   V1    S    
H4    C19   S    
O2    V4    S    
C14   C18   A    
C79   H44   S    
O3    V1    S    
C5    C36   S    
C57   C69   A    
C6    C35   S    
C10   C30   A    
C25   C33   A    
C1    O15   A    
C7    C34   S    
C58   C70   A    
C52   C56   A    
C2    O16   A    
C27   C35   A    
O2    C6    A    
C79   H42   S    
C28   C36   A    
C66   C70   A    
O14   V2    S    
C1    C40   S    
C17   C21   A    
C44   C60   A    
C40   C52   A    
C12   C16   A    
C61   C66   A    
C43   N3    S    
C30   C33   A    
O11   C7    A    
C63   C68   A    
C60   C72   A    
O15   V3    S    
C80   H47   S    
C9    C13   A    
C4    C37   S    
O17   V1    S    
H1    C18   S    
C11   H7    S    
O10   V2    S    
H3    C20   S    
C37   C45   A    
C78   H39   S    
C54   C58   A    
O5    V1    S    
C65   C69   A    
O7    V3    S    
O19   V3    S    
O8    V4    S    
C10   H6    S    
O20   V4    S    
C50   C54   A    
C25   C29   A    
O18   V4    S    
C19   C23   A    
C26   C34   A    
C45   H22   S    
C64   C67   A    
C65   H25   S    
C72   H16   S    
C53   C61   A    
C47   H24   S    
C14   H10   S    
O5    C1    A    
C2    C39   S    
C42   C46   A    
C63   C64   A    
C41   C45   A    
O8    C4    A    
C11   C31   A    
C26   C30   A    
O9    C5    A    
H2    C17   S    
C22   C26   A    
C38   C50   A    
C37   C49   A    
C51   H20   S    
C59   C71   A    
C9    H5    S    
O6    V2    S    
O18   V2    S    
C80   H48   S    
C49   C53   A    
C32   C35   A    
C73   H29   S    
C22   C74   S    
C75   H31   S    
C68   C72   A    
C78   H40   S    
C56   C64   A    
C44   N4    S    
C13   H9    S    
O16   V4    S    
C39   C51   A    
N2    C78   S    
C69   H13   S    
C3    O13   A    
C15   H11   S    
C71   H15   S    
C75   O23   D    
C3    C38   S    
C74   O22   D    
O6    C2    A    
C76   O24   D    
C77   H34   S    
O11   V3    S    
C76   H32   S    
C68   H28   S    
O12   V4    S    
C62   C65   A    
C21   C73   S    
N1    H33   S    
C18   C22   A    
O10   C6    A    
C52   H19   S    
O20   V2    S    
C66   H26   S    
N3    H41   S    
C43   C47   A    
C77   H35   S    
C39   C47   A    
C42   C58   A    
C48   H23   S    
C21   C25   A    
C41   C57   A    
C16   H12   S    
C23   C27   A    
C79   H43   S    
C53   C57   A    
C9    C29   A    
C55   C59   A    
C28   C32   A    
C20   C24   A    
C11   C15   A    
C70   H14   S    
C12   H8    S    
C23   C75   S    
C4    O14   A    
N4    H45   S    
C73   O21   D    
C13   C17   A    
C67   C71   A    
C46   H21   S    
C55   C63   A    
C42   N2    S    
C43   C59   A    
C15   C19   A    
C54   C62   A    
C38   C46   A    
C24   C28   A    
