data_mof_unit_3893.cif
_audit_creation_date              2012-12-10T17:55:30-0500
_audit_creation_method            fapswitch 2.2
_symmetry_space_group_name_H-M    P1
_symmetry_Int_Tables_number       1
_space_group_crystal_system       triclinic
_cell_length_a                    10.904076
_cell_length_b                    9.64298
_cell_length_c                    10.985025
_cell_angle_alpha                 89.813438
_cell_angle_beta                  93.279004
_cell_angle_gamma                 89.913913
_cell_volume                      1153.15230481

loop_
_atom_site_label
_atom_site_type_symbol
_atom_type_description
_atom_site_fract_x
_atom_site_fract_y
_atom_site_fract_z
_atom_type_partial_charge
C1    C     C_R   0.262791 0.499012 0.505843 0.807514
C2    C     C_R   0.737295 0.498906 0.494674 0.819043
C3    C     C_R   0.498529 0.500249 0.266134 0.839134
C4    C     C_R   0.500921 0.499723 0.734031 0.853984
C5    C     C_2   0.479161 0.400861 0.937833 0.101042
C6    C     C_2   0.525251 0.403193 0.064450 0.148130
C7    C     C_2   0.521702 0.499171 0.865035 -0.284131
C8    C     C_2   0.478903 0.500524 0.135274 -0.295539
C9    C     C_R   0.064227 0.366025 0.513503 -0.083722
C10   C     C_R   0.936520 0.365952 0.488698 -0.082694
C11   C     C_R   0.871555 0.494120 0.490163 -0.111112
C12   C     C_R   0.128668 0.494269 0.511549 -0.112570
C13   C     C_R   0.936482 0.619081 0.497412 -0.136613
C14   C     C_R   0.063304 0.619165 0.505358 -0.156767
C15   C     C_R   0.437529 0.074159 0.408493 0.013689
C16   C     C_R   0.562868 0.073233 0.591131 0.013437
C17   C     C_R   0.434392 0.926066 0.411075 0.011998
C18   C     C_R   0.566038 0.925171 0.588533 0.019026
Cu1   Cu    Cu3+1 0.500000 0.640660 0.500000 1.014452
Cu2   Cu    Cu3+1 0.500000 0.359340 0.500000 1.031231
H1    H     H_    0.584065 0.577339 0.903536 0.150977
H2    H     H_    0.414240 0.576685 0.095997 0.168388
H3    H     H_    0.889393 0.717946 0.495414 0.208979
H4    H     H_    0.110057 0.718039 0.508259 0.213664
N1    N     N_R   0.500000 0.852070 0.500000 -0.251651
N2    N     N_R   0.500000 0.147940 0.500000 -0.236639
O1    O     O_R   0.319640 0.618740 0.499990 -0.571880
O2    O     O_R   0.680360 0.618740 0.500010 -0.574471
O3    O     O_R   0.319620 0.381170 0.499990 -0.550115
O4    O     O_R   0.680380 0.381170 0.500010 -0.549377
O5    O     O_R   0.500000 0.618750 0.321940 -0.568968
O6    O     O_R   0.500000 0.618750 0.678060 -0.567002
O7    O     O_R   0.499970 0.381180 0.321940 -0.572666
O8    O     O_R   0.500030 0.381180 0.678060 -0.573228
C19   C     C_3   0.374533 0.303770 0.903178 -0.630240
H5    H     H_    0.405010 0.194539 0.913530 0.285651
H6    H     H_    0.299323 0.320866 0.965512 0.209245
H7    H     H_    0.335212 0.321365 0.809463 0.251594
C20   C     C_3   0.633454 0.311720 0.102237 -0.674485
H8    H     H_    0.606397 0.201078 0.098154 0.276351
H9    H     H_    0.707460 0.328534 0.038471 0.201412
H10   H     H_    0.673425 0.336019 0.194446 0.254408
C21   C     C_2   0.126623 0.233071 0.549081 0.970847
O9    O     O_2   0.182071 0.223325 0.648587 -0.602004
O10   O     O_R   0.120009 0.118903 0.470809 -0.706623
H11   H     H_    0.165493 0.035044 0.506499 0.345165
C22   C     C_2   0.874773 0.232794 0.454226 0.958683
O11   O     O_2   0.819366 0.222533 0.354810 -0.607761
O12   O     O_R   0.882295 0.118830 0.533369 -0.705680
H12   H     H_    0.837665 0.034571 0.498192 0.340145
C23   C     C_2   0.377235 0.144997 0.300861 0.922911
O13   O     O_2   0.415985 0.125214 0.200190 -0.590237
O14   O     O_R   0.273931 0.228229 0.311698 -0.721423
H13   H     H_    0.241879 0.269074 0.230830 0.322387
C24   C     C_2   0.627390 0.143113 0.696262 0.910997
O15   O     O_2   0.713859 0.220154 0.681956 -0.558521
O16   O     O_R   0.593353 0.113299 0.813966 -0.745037
H14   H     H_    0.648673 0.159928 0.878631 0.334401
C25   C     C_2   0.357013 0.853668 0.316601 0.910746
O17   O     O_2   0.394794 0.836771 0.215005 -0.560421
O18   O     O_R   0.236746 0.817505 0.339762 -0.775925
H15   H     H_    0.191811 0.771817 0.267195 0.330769
C26   C     C_2   0.646921 0.852014 0.680196 0.915559
O19   O     O_2   0.751258 0.820724 0.656031 -0.615763
O20   O     O_R   0.608495 0.832270 0.798180 -0.710120
H16   H     H_    0.675808 0.792039 0.855274 0.327423

loop_
_geom_bond_atom_site_label_1
_geom_bond_atom_site_label_2
_ccdc_geom_bond_type
C8    H2    S    
C21   O9    D    
C26   O20   S    
C15   C17   A    
C6    C20   S    
C15   C23   S    
Cu1   O1    S    
C9    C10   A    
Cu1   Cu2   S    
C2    O4    A    
Cu1   O5    S    
O18   H15   S    
C24   O15   D    
C1    O3    A    
C16   C24   S    
C17   N1    A    
C25   O17   D    
C22   O12   S    
Cu2   O4    S    
O14   H13   S    
C3    O5    A    
Cu1   O2    S    
C21   O10   S    
O16   H14   S    
C4    O6    A    
C1    C12   S    
Cu2   N2    S    
C17   C25   S    
C4    C7    S    
C6    C8    D    
Cu2   O7    S    
C5    C19   S    
C16   C18   A    
C19   H6    S    
C12   C14   A    
C3    C8    S    
C20   H10   S    
Cu2   O3    S    
C24   O16   S    
C16   N2    A    
C5    C6    S    
Cu1   N1    S    
C18   N1    A    
C4    O8    A    
C18   C26   S    
C9    C21   S    
C1    O1    A    
C25   O18   S    
C10   C11   A    
C3    O7    A    
O12   H12   S    
C26   O19   D    
C20   H8    S    
C22   O11   D    
O10   H11   S    
C11   C13   A    
C19   H7    S    
C23   O13   D    
C13   H3    S    
C20   H9    S    
O20   H16   S    
Cu2   O8    S    
C14   H4    S    
C10   C22   S    
C5    C7    D    
C2    O2    A    
C15   N2    A    
C2    C11   S    
C13   C14   A    
C7    H1    S    
Cu1   O6    S    
C19   H5    S    
C9    C12   A    
C23   O14   S    
