data_mof_unit_330.cif
_audit_creation_date              2012-12-11T16:56:11-0500
_audit_creation_method            fapswitch 2.2
_symmetry_space_group_name_H-M    P1
_symmetry_Int_Tables_number       1
_space_group_crystal_system       triclinic
_cell_length_a                    6.951259
_cell_length_b                    14.536601
_cell_length_c                    16.197543
_cell_angle_alpha                 90.424009
_cell_angle_beta                  89.875485
_cell_angle_gamma                 89.919664
_cell_volume                      1636.6737896

loop_
_atom_site_label
_atom_site_type_symbol
_atom_type_description
_atom_site_fract_x
_atom_site_fract_y
_atom_site_fract_z
_atom_type_partial_charge
O1    O     O_R   0.505830 0.583360 0.413880 -0.537192
O2    O     O_R   0.175830 0.595460 0.585520 -0.548315
O3    O     O_R   0.005520 0.416640 0.586120 -0.544729
C1    C     C_R   0.344390 0.617498 0.614455 0.676590
O4    O     O_R   0.176120 0.594390 0.414490 -0.535408
O5    O     O_R   0.005810 0.415570 0.413870 -0.512219
C2    C     C_R   0.344997 0.616356 0.385969 0.751149
O6    O     O_R   0.505540 0.584430 0.586130 -0.541899
O7    O     O_3   0.339200 0.441330 0.500000 -0.357120
V1    V     V_3+5 0.064350 0.510880 0.500000 1.435326
O8    O     O_R   0.676100 0.404540 0.414480 -0.528778
C3    C     C_R   0.845450 0.384723 0.383953 0.754859
O9    O     O_R   0.675810 0.405610 0.585510 -0.543836
C4    C     C_R   0.844991 0.383686 0.613646 0.727765
V2    V     V_3+5 0.564340 0.489120 0.500000 1.444616
O10   O     O_3   0.839360 0.558670 0.500000 -0.381761
C5    C     C_2   0.720911 0.208691 0.785928 -0.129391
C6    C     C_2   0.885690 0.181757 0.822551 -0.309551
H1    H     H_    0.585337 0.179834 0.806753 0.137193
H2    H     H_    0.022941 0.209909 0.803829 0.127887
C7    C     C_2   0.708442 0.277190 0.717979 -0.136316
C8    C     C_2   0.861512 0.315417 0.680441 -0.308140
H3    H     H_    0.564718 0.296094 0.698055 0.134354
H4    H     H_    0.006376 0.297155 0.698480 0.129397
C9    C     C_R   0.708211 0.202579 0.226145 0.141118
C10   C     C_R   0.877141 0.188332 0.180638 -0.172842
C11   C     C_R   0.029406 0.250418 0.194105 -0.214489
H5    H     H_    0.157577 0.246280 0.156092 0.169278
C12   C     C_R   0.019732 0.317706 0.257340 0.242194
C13   C     C_R   0.856808 0.322049 0.311035 -0.184920
C14   C     C_R   0.699129 0.266858 0.289809 0.148642
C15   C     C_3   0.576403 0.205984 0.341761 -0.404695
C16   C     C_3   0.585551 0.135713 0.271748 -0.430609
H6    H     H_    0.429855 0.234732 0.351574 0.210088
H7    H     H_    0.650784 0.183057 0.398755 0.154749
H8    H     H_    0.444504 0.124694 0.241006 0.181114
H9    H     H_    0.664372 0.071805 0.288182 0.158949
C17   C     C_R   0.509023 0.747040 0.691182 0.099330
C18   C     C_R   0.352184 0.687415 0.681832 -0.107324
C19   C     C_R   0.200334 0.696841 0.739061 -0.174418
H10   H     H_    0.076991 0.652002 0.734848 0.131493
C20   C     C_R   0.212792 0.759236 0.806053 -0.175547
H11   H     H_    0.097241 0.761596 0.850791 0.131107
C21   C     C_R   0.378229 0.813609 0.818329 -0.109731
C22   C     C_R   0.521714 0.808482 0.757613 0.100585
C23   C     C_3   0.731815 0.791701 0.767081 -0.413861
C24   C     C_3   0.718099 0.725265 0.694472 -0.397435
H12   H     H_    0.765636 0.757284 0.826350 0.172509
H13   H     H_    0.818543 0.853974 0.753448 0.172306
H14   H     H_    0.744897 0.652418 0.711471 0.169056
H15   H     H_    0.796156 0.749331 0.638713 0.170339
C25   C     C_R   0.507540 0.681078 0.259978 0.150068
C26   C     C_R   0.353074 0.681329 0.315752 -0.110477
C27   C     C_R   0.201489 0.743282 0.300397 -0.178830
H16   H     H_    0.078907 0.745951 0.341449 0.129318
C28   C     C_R   0.212817 0.807024 0.235364 -0.173751
H17   H     H_    0.098012 0.856559 0.228153 0.125730
C29   C     C_R   0.376384 0.811027 0.183832 -0.115488
C30   C     C_R   0.519219 0.744430 0.195882 0.108115
C31   C     C_3   0.730224 0.756508 0.207481 -0.417527
C32   C     C_3   0.717643 0.687064 0.276925 -0.403985
H18   H     H_    0.766506 0.827065 0.229191 0.163406
H19   H     H_    0.814363 0.731229 0.153447 0.186001
H20   H     H_    0.747558 0.717071 0.338888 0.161389
H21   H     H_    0.793627 0.621425 0.262868 0.192986
O11   O     O_R   0.229930 0.912420 0.917160 -0.540228
O12   O     O_R   0.559420 0.902500 0.088780 -0.540745
O13   O     O_R   0.729660 0.081330 0.089380 -0.534774
C33   C     C_R   0.390321 0.880772 0.117542 0.695822
O14   O     O_R   0.559650 0.901420 0.917750 -0.539996
O15   O     O_R   0.729880 0.080250 0.917130 -0.537011
C34   C     C_R   0.390791 0.879171 0.889001 0.695789
O16   O     O_R   0.229700 0.913500 0.089410 -0.540598
O17   O     O_3   0.396250 0.055540 0.003280 -0.368076
V3    V     V_3+5 0.671130 0.986010 0.003260 1.406708
O18   O     O_R   0.059600 0.091310 0.917720 -0.544235
C35   C     C_R   0.890939 0.113189 0.889514 0.746741
O19   O     O_R   0.059370 0.092380 0.088750 -0.545026
C36   C     C_R   0.890016 0.115093 0.116852 0.716560
V4    V     V_3+5 0.171120 0.007820 0.003230 1.402005
O20   O     O_3   0.896130 0.938240 0.003240 -0.373010
Br1   Br    Br    0.233454 0.401251 0.264113 -0.588347

loop_
_geom_bond_atom_site_label_1
_geom_bond_atom_site_label_2
_ccdc_geom_bond_type
C9    C14   A    
C11   C12   A    
C1    O6    A    
C26   C27   A    
C21   C22   A    
O13   V3    S    
C23   H13   S    
C10   C11   A    
C31   H19   S    
C25   C32   S    
O5    C3    A    
C17   C18   A    
O19   V4    S    
V2    O10   S    
C16   H8    S    
C28   H17   S    
C31   H18   S    
C17   C22   A    
C27   H16   S    
O8    V2    S    
O11   C34   A    
C33   O16   A    
O1    V2    S    
O7    V1    S    
O13   C36   A    
C19   C20   A    
C30   C31   S    
O17   V4    S    
O9    C4    A    
C20   C21   A    
C24   H14   S    
C23   H12   S    
C27   C28   A    
O17   V3    S    
C15   H7    S    
O18   C35   A    
C18   C19   A    
O4    C2    A    
O19   C36   A    
V3    O20   S    
C24   H15   S    
C29   C30   A    
C22   C23   S    
C16   H9    S    
C31   C32   S    
O12   C33   A    
C15   H6    S    
C32   H20   S    
O2    C1    A    
C12   C13   A    
C25   C30   A    
C14   C15   S    
C1    C18   S    
C5    C6    D    
C17   C24   S    
O3    C4    A    
C19   H10   S    
O6    V2    S    
O9    V2    S    
C8    H4    S    
O12   V3    S    
C20   H11   S    
C2    C26   S    
O2    V1    S    
O15   C35   A    
C25   C26   A    
C23   C24   S    
C3    C13   S    
O1    C2    A    
O18   V4    S    
V4    O20   S    
O5    V1    S    
O8    C3    A    
C29   C33   S    
O11   V4    S    
C10   C36   S    
C15   C16   S    
C4    C8    S    
C7    H3    S    
C9    C10   A    
C12   Br1   S    
O3    V1    S    
V1    O10   S    
O15   V3    S    
C13   C14   A    
C6    C35   S    
C5    H1    S    
O16   V4    S    
C28   C29   A    
C21   C34   S    
C6    H2    S    
O7    V2    S    
C5    C7    S    
C32   H21   S    
O4    V1    S    
O14   V3    S    
O14   C34   A    
C7    C8    D    
C9    C16   S    
C11   H5    S    
