data_mof_unit_2672.cif
_audit_creation_date              2013-03-05T16:20:43-0500
_audit_creation_method            fapswitch 2.2
_symmetry_space_group_name_H-M    P1
_symmetry_Int_Tables_number       1
_space_group_crystal_system       triclinic
_cell_length_a                    15.742835
_cell_length_b                    15.76258
_cell_length_c                    15.017618
_cell_angle_alpha                 89.284738
_cell_angle_beta                  89.204081
_cell_angle_gamma                 90.191599
_cell_volume                      3725.91434625

loop_
_atom_site_label
_atom_site_type_symbol
_atom_site_description
_atom_site_fract_x
_atom_site_fract_y
_atom_site_fract_z
_atom_type_partial_charge
O1    O     O_R   0.500080 0.377210 0.574260 -0.600515
O2    O     O_R   0.499910 0.377070 0.425800 -0.581208
C1    C     C_R   0.499550 0.338029 0.500488 0.897202
O3    O     O_R   0.376870 0.500060 0.574220 -0.591023
O4    O     O_R   0.376690 0.499920 0.425760 -0.631560
C2    C     C_R   0.337607 0.500186 0.500571 0.882401
Zn1   Zn    Zn3+2 0.500120 0.500090 0.599130 1.062518
Zn2   Zn    Zn3+2 0.499880 0.499910 0.400870 1.065851
O5    O     O_R   0.500090 0.622930 0.574200 -0.620223
O6    O     O_R   0.499920 0.622790 0.425740 -0.588925
O7    O     O_R   0.623310 0.500080 0.574240 -0.599715
O8    O     O_R   0.623130 0.499940 0.425780 -0.572710
C3    C     C_R   0.500234 0.661904 0.499350 0.902657
C4    C     C_R   0.662423 0.500388 0.499394 0.900363
C5    C     C_3   0.970837 0.429623 0.515079 -0.193558
C6    C     C_3   0.030245 0.456551 0.436166 -0.240739
H1    H     H_    0.056474 0.413884 0.384402 0.175059
H2    H     H_    0.945495 0.364803 0.528362 0.173315
C7    C     C_1   0.248961 0.503092 0.501689 -0.091439
C8    C     C_1   0.751146 0.503527 0.498016 -0.090798
C9    C     C_3   0.024701 0.482470 0.579154 0.002026
C10   C     C_3   0.083203 0.508949 0.501325 0.050846
C11   C     C_3   0.969402 0.561755 0.562644 -0.264375
C12   C     C_3   0.916970 0.509099 0.497381 0.109973
C13   C     C_3   0.028778 0.587677 0.483764 -0.073653
C14   C     C_3   0.974951 0.535765 0.419240 -0.043826
C15   C     C_1   0.173889 0.506046 0.501884 0.092149
C16   C     C_1   0.826273 0.506520 0.497353 0.064433
H3    H     H_    0.943152 0.604564 0.614265 0.183167
C17   C     C_3   0.533198 0.049555 0.581695 -0.470946
C18   C     C_3   0.567267 0.053791 0.418073 -0.327941
C19   C     C_3   0.579450 0.952693 0.423347 -0.202361
H4    H     H_    0.600862 0.068036 0.590466 0.221807
H5    H     H_    0.627470 0.083049 0.439653 0.204585
C20   C     C_1   0.501999 0.750299 0.497303 -0.103412
C21   C     C_3   0.500760 0.083016 0.490919 0.066756
C22   C     C_3   0.522113 0.952560 0.586764 -0.119859
C23   C     C_3   0.504047 0.916772 0.489439 0.107322
C24   C     C_3   0.409705 0.947967 0.459661 0.092379
C25   C     C_3   0.408121 0.046828 0.477740 -0.185987
C26   C     C_1   0.503556 0.825299 0.493916 -0.002132
C27   C     C_1   0.499477 0.174476 0.497213 -0.008749
C28   C     C_1   0.499216 0.249473 0.500605 -0.085589
H6    H     H_    0.376537 0.053885 0.544023 0.144131
H7    H     H_    0.497325 0.079050 0.637895 0.181709
H8    H     H_    0.465327 0.944033 0.627109 0.179584
C29   C     C_3   0.475963 0.399907 0.058097 -0.077768
C30   C     C_3   0.588382 0.525059 0.049089 -0.287962
C31   C     C_3   0.592025 0.511064 0.945009 -0.283959
H9    H     H_    0.587899 0.594938 0.056403 0.223456
H10   H     H_    0.611722 0.573451 0.916181 0.172158
N1    N     N_1   0.498320 0.498630 0.731150 -0.037885
C32   C     C_3   0.499334 0.494726 0.090889 -0.033334
C33   C     C_3   0.461954 0.404053 0.948644 -0.186373
C34   C     C_3   0.499770 0.492684 0.909554 -0.128645
C35   C     C_3   0.441358 0.566691 0.946381 -0.246260
C36   C     C_3   0.431989 0.559301 0.051306 -0.265255
C37   C     C_1   0.498713 0.496394 0.808874 0.256115
C38   C     C_1   0.500890 0.499196 0.191221 0.232394
N2    N     N_1   0.501700 0.501360 0.268850 -0.052233
H11   H     H_    0.368882 0.531852 0.064341 0.169373
H12   H     H_    0.376513 0.558082 0.919563 0.181870
C39   C     C_2   0.666903 0.928978 0.461709 0.913622
O9    O     O_2   0.684593 0.854029 0.473373 -0.606648
O10   O     O_R   0.728517 0.990301 0.480382 -0.809936
H13   H     H_    0.782810 0.964775 0.504257 0.362464
C40   C     C_2   0.588714 0.911970 0.331269 0.948691
O11   O     O_2   0.554752 0.844373 0.314485 -0.635241
O12   O     O_R   0.648730 0.945460 0.270544 -0.744490
H14   H     H_    0.652977 0.911553 0.213725 0.368235
C41   C     C_2   0.353231 0.100759 0.416589 0.889937
O13   O     O_2   0.286654 0.130235 0.445437 -0.632452
O14   O     O_R   0.378230 0.118325 0.328725 -0.791472
H15   H     H_    0.335580 0.154526 0.295682 0.343750
C42   C     C_3   0.331630 0.901028 0.509182 -0.417428
C43   C     C_3   0.324285 0.889966 0.610973 -0.420093
C44   C     C_3   0.238765 0.850553 0.638143 -0.772989
H16   H     H_    0.185678 0.892070 0.616913 0.264367
H17   H     H_    0.231388 0.787122 0.607714 0.274761
H18   H     H_    0.235389 0.842754 0.711708 0.267800
H19   H     H_    0.373800 0.845415 0.634891 0.242554
H20   H     H_    0.328743 0.952230 0.644386 0.230735
H21   H     H_    0.272984 0.935385 0.490001 0.227991
H22   H     H_    0.326115 0.835733 0.482305 0.215486
C45   C     C_3   0.394509 0.926411 0.358285 -0.387727
C46   C     C_3   0.303244 0.930800 0.320368 -0.401549
C47   C     C_3   0.305183 0.927925 0.218722 -0.719589
H23   H     H_    0.339056 0.984397 0.190770 0.279180
H24   H     H_    0.337639 0.869469 0.195795 0.275938
H25   H     H_    0.239239 0.927870 0.193415 0.253979
H26   H     H_    0.265331 0.875353 0.344653 0.221603
H27   H     H_    0.268633 0.988424 0.340569 0.254082
H28   H     H_    0.435259 0.966114 0.315939 0.283088
H29   H     H_    0.412394 0.859379 0.348149 0.239297
C48   C     C_2   0.497901 0.324705 0.903412 0.997662
O15   O     O_2   0.471874 0.254655 0.927641 -0.614705
O16   O     O_R   0.555679 0.330033 0.832106 -0.763206
H30   H     H_    0.572287 0.272385 0.808396 0.355449
C49   C     C_2   0.552371 0.343133 0.087730 0.937107
O17   O     O_2   0.565588 0.333405 0.167458 -0.552473
O18   O     O_R   0.605451 0.300055 0.028595 -0.758718
H31   H     H_    0.650392 0.264935 0.059582 0.378047
C50   C     C_2   0.670719 0.506904 0.097807 1.006158
O19   O     O_2   0.672853 0.461561 0.164212 -0.554326
O20   O     O_R   0.745182 0.547209 0.067525 -0.768274
H32   H     H_    0.796482 0.531288 0.104126 0.359846
C51   C     C_2   0.662027 0.454725 0.906631 1.048547
O21   O     O_2   0.676628 0.457634 0.826394 -0.590798
O22   O     O_R   0.713968 0.404763 0.960453 -0.745931
H33   H     H_    0.758443 0.372542 0.925147 0.365540
C52   C     C_2   0.425674 0.645211 0.096816 0.933474
O23   O     O_2   0.363383 0.689547 0.083466 -0.601771
O24   O     O_R   0.489428 0.674292 0.152934 -0.782582
H34   H     H_    0.476433 0.732210 0.178286 0.373491
C53   C     C_3   0.396815 0.353569 0.109019 -0.363459
C54   C     C_3   0.326147 0.403292 0.159712 -0.331889
C55   C     C_3   0.271562 0.343627 0.217973 -0.824496
H35   H     H_    0.243300 0.292873 0.177003 0.271656
H36   H     H_    0.310419 0.314386 0.271300 0.264529
H37   H     H_    0.219332 0.379933 0.250034 0.259106
H38   H     H_    0.352081 0.451489 0.204393 0.211706
H39   H     H_    0.281725 0.435571 0.114516 0.282811
H40   H     H_    0.365688 0.309184 0.062810 0.229188
H41   H     H_    0.419878 0.308037 0.160280 0.227449
C56   C     C_2   0.368462 0.400041 0.917201 0.863292
O25   O     O_2   0.309155 0.422031 0.964322 -0.647536
O26   O     O_R   0.351423 0.376259 0.829475 -0.781401
H42   H     H_    0.288643 0.377582 0.815442 0.361462
C57   C     C_2   0.947726 0.565676 0.328915 0.951844
O27   O     O_2   0.001484 0.583369 0.272148 -0.597580
O28   O     O_R   0.861438 0.573533 0.310112 -0.768738
H43   H     H_    0.851340 0.595156 0.247319 0.359615
C58   C     C_2   0.466394 0.654720 0.910369 0.931532
O29   O     O_2   0.427149 0.685501 0.848125 -0.619341
O30   O     O_R   0.532230 0.701202 0.948223 -0.803149
H44   H     H_    0.540853 0.758709 0.918497 0.350431
C59   C     C_2   0.060113 0.676435 0.466547 0.950815
O31   O     O_2   0.008917 0.733483 0.454995 -0.593534
O32   O     O_R   0.147243 0.693581 0.463632 -0.817523
H45   H     H_    0.160202 0.755699 0.451203 0.335885
C60   C     C_2   0.050780 0.452427 0.669754 0.933292
O33   O     O_2   0.996284 0.432792 0.725045 -0.590972
O34   O     O_R   0.136760 0.447194 0.690813 -0.796604
H46   H     H_    0.145905 0.426436 0.754100 0.353104
C61   C     C_3   0.592021 0.909416 0.644651 -0.378947
C62   C     C_3   0.575763 0.921621 0.744939 -0.401941
C63   C     C_3   0.645941 0.881231 0.800141 -0.784739
H47   H     H_    0.648909 0.811905 0.788049 0.267514
H48   H     H_    0.708369 0.910518 0.782765 0.268469
H49   H     H_    0.632628 0.891400 0.872013 0.258146
H50   H     H_    0.572848 0.990419 0.759975 0.244281
H51   H     H_    0.514071 0.891953 0.764854 0.239258
H52   H     H_    0.594446 0.840202 0.632526 0.237429
H53   H     H_    0.655657 0.936291 0.629030 0.241718
C64   C     C_2   0.557870 0.099416 0.327519 1.049459
O35   O     O_2   0.577947 0.174396 0.321535 -0.570104
O36   O     O_R   0.528897 0.059130 0.251320 -0.784210
H54   H     H_    0.526683 0.098473 0.197457 0.367015

loop_
_geom_bond_atom_site_label_1
_geom_bond_atom_site_label_2
_geom_bond_distance
_ccdc_geom_bond_type
C5    H2    1.110336 S    
C47   H23   1.110948 S    
C39   O10   1.400678 S    
O36   H54   1.014158 S    
C25   C41   1.523220 S    
C64   O36   1.396961 S    
O14   H15   1.013617 S    
C17   H7    1.116119 S    
C21   C27   1.446112 S    
C48   O15   1.225678 D    
C34   C35   1.587896 S    
O16   H30   1.013862 S    
C32   C38   1.509797 S    
O30   H44   1.013301 S    
C31   C51   1.528713 S    
C36   C52   1.527372 S    
C44   H16   1.110956 S    
C54   C55   1.530245 S    
C29   C53   1.619992 S    
C2    C7    1.396311 S    
C59   O32   1.397143 S    
C1    C28   1.395833 S    
O18   H31   1.014347 S    
C54   H39   1.102529 S    
C11   H3    1.110446 S    
C63   H48   1.110810 S    
C12   C14   1.530459 S    
Zn1   N1    1.982280 S    
C3    C20   1.393464 S    
C46   H26   1.111575 S    
C55   H36   1.110981 S    
C61   C62   1.538714 S    
O4    C2    1.273475 A    
O7    C4    1.274045 A    
C42   H22   1.113777 S    
C5    C6    1.553470 S    
C29   C49   1.567777 S    
C35   C36   1.583383 S    
O34   H46   1.013622 S    
O5    C3    1.274209 A    
C63   H47   1.111007 S    
O24   H34   1.013911 S    
C45   H28   1.087963 S    
C52   O23   1.223431 D    
C6    H1    1.110470 S    
C31   H10   1.110951 S    
C10   C13   1.532599 S    
C51   O21   1.223827 D    
C19   C23   1.632047 S    
C7    C15   1.182886 T    
C29   C32   1.622167 S    
C61   H52   1.109007 S    
C30   H9    1.108338 S    
C38   N2    1.166976 T    
C9    C10   1.530983 S    
C51   O22   1.396043 S    
O3    Zn1   1.981133 S    
C35   C58   1.531287 S    
C44   H17   1.110888 S    
C9    C11   1.544904 S    
C6    C14   1.544942 S    
C30   C32   1.597331 S    
C33   C56   1.553284 S    
C53   H40   1.109247 S    
C54   H38   1.101053 S    
C40   O11   1.221200 D    
C4    C8    1.397317 S    
C21   C25   1.580106 S    
C63   H49   1.110351 S    
C43   C44   1.529002 S    
C23   C26   1.442571 S    
C52   O24   1.399208 S    
C55   H37   1.111052 S    
C43   H20   1.110290 S    
C24   C25   1.585334 S    
C41   O14   1.395848 S    
C32   C36   1.588417 S    
C46   C47   1.527596 S    
C8    C16   1.183406 T    
C13   C14   1.537719 S    
C31   C34   1.580912 S    
C30   C50   1.523472 S    
C62   H50   1.111419 S    
C17   C22   1.539051 S    
O1    C1    1.275216 A    
C13   C59   1.500117 S    
C42   C43   1.539114 S    
C22   C23   1.602000 S    
C58   O29   1.223766 D    
C45   H29   1.106185 S    
Zn1   O7    1.969947 S    
C49   O17   1.225951 D    
C5    C9    1.541704 S    
Zn2   O8    1.981133 S    
C33   C48   1.536636 S    
C18   H5    1.106938 S    
C50   O20   1.399150 S    
C45   C46   1.554262 S    
C14   C57   1.499171 S    
N1    C37   1.167423 T    
C29   C33   1.661984 S    
C62   H51   1.112110 S    
C61   H53   1.107367 S    
O3    C2    1.274488 A    
C5    C12   1.537600 S    
C49   O18   1.395076 S    
O8    C4    1.274358 A    
C24   C42   1.601878 S    
C10   C15   1.428674 S    
C19   C40   1.537073 S    
C56   O25   1.217606 D    
C35   H12   1.111125 S    
C34   C37   1.512702 S    
C27   C28   1.183901 T    
C24   C45   1.585234 S    
O28   H43   1.013509 S    
C64   O35   1.224277 D    
C58   O30   1.398526 S    
C62   C63   1.526477 S    
O20   H32   1.013700 S    
C44   H18   1.110573 S    
C40   O12   1.401325 S    
Zn1   O5    1.967547 S    
C33   C34   1.617117 S    
C30   C31   1.581532 S    
C6    C10   1.540452 S    
C53   H41   1.111418 S    
C17   H4    1.113425 S    
O1    Zn1   1.977159 S    
C18   C19   1.606799 S    
O2    Zn2   1.967547 S    
C12   C16   1.428275 S    
C19   C39   1.545047 S    
O6    C3    1.272515 A    
C43   H19   1.111279 S    
O4    Zn2   1.969949 S    
C18   C64   1.539584 S    
O32   H45   1.014006 S    
C48   O16   1.396896 S    
C36   H11   1.096426 S    
C59   O31   1.221932 D    
C55   H35   1.110879 S    
C17   C21   1.549379 S    
C60   O34   1.396762 S    
O2    C1    1.272551 A    
C57   O27   1.221978 D    
C9    C60   1.498253 S    
C41   O13   1.223826 D    
C46   H27   1.104332 S    
C60   O33   1.222001 D    
Zn2   N2    1.982280 S    
C42   H21   1.111540 S    
C53   C54   1.558450 S    
C23   C24   1.632628 S    
C11   C13   1.548727 S    
O12   H14   1.014033 S    
C20   C26   1.182818 T    
C11   C12   1.539169 S    
C39   O9    1.225683 D    
C25   H6    1.113474 S    
Zn2   O6    1.977160 S    
O10   H13   1.014010 S    
C47   H25   1.110480 S    
C50   O19   1.220557 D    
C56   O26   1.403418 S    
C47   H24   1.111216 S    
C18   C21   1.577725 S    
C22   C61   1.564064 S    
C22   H8    1.080038 S    
O22   H33   1.013942 S    
O26   H42   1.013634 S    
C57   O28   1.396871 S    
