data_mof_unit_2392.cif
_audit_creation_date              2012-10-26T18:34:01-0400
_audit_creation_method            fapswitch 2.2
_symmetry_space_group_name_H-M    P1
_symmetry_Int_Tables_number       1
_space_group_crystal_system       triclinic
_cell_length_a                    11.052703
_cell_length_b                    10.814411
_cell_length_c                    9.573878
_cell_angle_alpha                 90.91001
_cell_angle_beta                  103.324207
_cell_angle_gamma                 91.224426
_cell_volume                      1113.03800352

loop_
_atom_site_label
_atom_site_type_symbol
_atom_type_description
_atom_site_fract_x
_atom_site_fract_y
_atom_site_fract_z
_atom_type_partial_charge
C1    C     C_R   0.501126 0.262297 0.499218 0.590838
C2    C     C_2   0.872958 0.501072 0.591853 -0.116705
C3    C     C_2   0.067585 0.501181 0.515223 -0.166780
C4    C     C_2   0.932559 0.501564 0.484944 -0.153156
C5    C     C_R   0.551426 0.062229 0.397133 0.244298
C6    C     C_R   0.444959 0.937571 0.598427 0.248218
C7    C     C_R   0.552542 0.933581 0.403121 -0.168989
C8    C     C_R   0.448466 0.065793 0.597210 -0.165941
C9    C     C_R   0.498933 0.871400 0.501762 -0.009165
C10   C     C_R   0.500742 0.128211 0.497247 -0.003220
C11   C     C_2   0.297395 0.377821 0.079932 0.248253
C12   C     C_R   0.499780 0.737584 0.500950 0.569005
C13   C     C_2   0.699986 0.624992 0.918146 0.265024
C14   C     C_3   0.558977 0.095145 0.162767 0.014483
C15   C     C_3   0.617789 0.177132 0.067534 -0.340366
C16   C     C_3   0.267342 0.853370 0.640980 0.002933
C17   C     C_3   0.214180 0.777782 0.746534 -0.353795
C18   C     C_R   0.262639 0.500172 0.441352 0.552809
C19   C     C_R   0.737392 0.500444 0.558687 0.566799
C20   C     C_R   0.405097 0.442462 0.045283 0.111520
C21   C     C_R   0.594190 0.558473 0.954350 0.126462
C22   C     C_R   0.405937 0.443603 0.897784 -0.045957
C23   C     C_R   0.593870 0.556804 0.102021 -0.031460
C24   C     C_2   0.127144 0.500840 0.408281 -0.123934
Cu1   Cu    Cu3+1 0.500000 0.500020 0.640660 0.996143
Cu2   Cu    Cu3+1 0.500000 0.499980 0.359340 1.002153
H1    H     H_    0.881549 0.501811 0.373273 0.150979
H2    H     H_    0.794062 0.601156 0.971256 0.046358
H3    H     H_    0.457151 0.111306 0.137801 0.176628
H4    H     H_    0.574914 0.997452 0.135548 0.131699
H5    H     H_    0.717865 0.156317 0.082507 0.155138
H6    H     H_    0.570318 0.160287 0.953071 0.114866
H7    H     H_    0.609427 0.275892 0.095727 0.175927
H8    H     H_    0.252455 0.798803 0.538351 0.122639
H9    H     H_    0.215868 0.941227 0.621620 0.124595
H10   H     H_    0.224538 0.830619 0.849211 0.154794
H11   H     H_    0.113925 0.756631 0.701055 0.099950
H12   H     H_    0.118581 0.500822 0.626881 0.142613
H13   H     H_    0.264068 0.689514 0.767888 0.174982
H14   H     H_    0.924158 0.500956 0.703387 0.091165
H15   H     H_    0.075951 0.501026 0.296755 0.098011
H16   H     H_    0.331590 0.397345 0.819645 0.104939
H17   H     H_    0.668186 0.603288 0.179977 0.105105
H18   H     H_    0.598886 0.881919 0.333754 0.134849
H19   H     H_    0.408738 0.116380 0.673770 0.138564
H20   H     H_    0.204444 0.397348 0.018833 0.055897
N1    N     N_R   0.500030 0.500030 0.852080 -0.235581
N2    N     N_R   0.499970 0.499970 0.147920 -0.235474
O1    O     O_R   0.499990 0.319660 0.618740 -0.534346
O2    O     O_2   0.684198 0.712916 0.838561 -0.463449
O3    O     O_3   0.614204 0.124419 0.308316 -0.537492
O4    O     O_3   0.394998 0.878139 0.699798 -0.522334
O5    O     O_R   0.500010 0.680340 0.381260 -0.535928
O6    O     O_R   0.499990 0.319630 0.381170 -0.399748
O7    O     O_R   0.500010 0.680370 0.618830 -0.394064
O8    O     O_R   0.320690 0.500020 0.575130 -0.527334
O9    O     O_R   0.679310 0.499980 0.424870 -0.513467
O10   O     O_R   0.320680 0.499990 0.337560 -0.474762
O11   O     O_R   0.679320 0.500010 0.662440 -0.486052
O12   O     O_2   0.310466 0.295815 0.167424 -0.499136

loop_
_geom_bond_atom_site_label_1
_geom_bond_atom_site_label_2
_ccdc_geom_bond_type
C2    C4    D    
C1    O6    A    
C13   H2    S    
C15   H5    S    
C16   H8    S    
C17   H10   S    
Cu2   N2    S    
Cu1   O11   S    
Cu1   N1    S    
C14   O3    S    
Cu1   O8    S    
C18   O8    A    
C6    O4    S    
C6    C9    A    
C22   N1    A    
C2    C19   S    
C13   C21   S    
C5    C10   A    
C17   H11   S    
C7    H18   S    
C19   O9    A    
C24   H15   S    
Cu2   O10   S    
C3    C24   D    
C22   H16   S    
C12   O5    A    
C14   H4    S    
C18   C24   S    
Cu2   O6    S    
C8    C10   A    
C9    C12   S    
C20   C22   A    
C5    C7    A    
C21   C23   A    
C16   H9    S    
Cu2   O9    S    
Cu1   O1    S    
C11   C20   S    
C12   O7    A    
C11   O12   D    
C1    C10   S    
C14   H3    S    
C13   O2    D    
Cu2   O5    S    
C2    H14   S    
C15   H6    S    
C4    H1    S    
C23   H17   S    
C16   O4    S    
C17   H13   S    
C7    C9    A    
C8    H19   S    
C5    O3    S    
C11   H20   S    
C6    C8    A    
C23   N2    A    
C20   N2    A    
C19   O11   A    
Cu1   Cu2   S    
C14   C15   S    
C1    O1    A    
C18   O10   A    
C3    C4    S    
Cu1   O7    S    
C3    H12   S    
C15   H7    S    
C16   C17   S    
C21   N1    A    
