data_mof_unit_3668.cif
_audit_creation_date              2012-12-10T21:11:34-0500
_audit_creation_method            fapswitch 2.2
_symmetry_space_group_name_H-M    P1
_symmetry_Int_Tables_number       1
_space_group_crystal_system       triclinic
_cell_length_a                    17.534228
_cell_length_b                    16.690988
_cell_length_c                    10.633379
_cell_angle_alpha                 89.999984
_cell_angle_beta                  90.124017
_cell_angle_gamma                 90.000013
_cell_volume                      3111.99557281

loop_
_atom_site_label
_atom_site_type_symbol
_atom_type_description
_atom_site_fract_x
_atom_site_fract_y
_atom_site_fract_z
_atom_type_partial_charge
C1    C     C_R   0.352998 0.500000 0.501079 0.865618
C2    C     C_R   0.646991 0.500000 0.501789 0.868854
C3    C     C_R   0.885937 0.500000 0.550608 0.165964
C4    C     C_R   0.113972 0.500000 0.546581 0.165875
C5    C     C_1   0.966165 0.500000 0.557165 -0.069849
C6    C     C_1   0.033859 0.500000 0.555827 -0.069786
C7    C     C_R   0.440641 0.832331 0.439491 0.081517
C8    C     C_R   0.559515 0.167770 0.560630 0.081273
C9    C     C_R   0.559516 0.832230 0.560629 0.081273
C10   C     C_R   0.440640 0.167669 0.439490 0.081517
C11   C     C_R   0.442524 0.747493 0.441777 -0.023416
C12   C     C_R   0.557523 0.252601 0.558260 -0.022091
C13   C     C_R   0.557523 0.747399 0.558260 -0.022091
C14   C     C_R   0.442524 0.252507 0.441777 -0.023416
C15   C     C_R   0.500099 0.875266 0.500095 0.011285
C16   C     C_R   0.500099 0.124733 0.500095 0.011285
C17   C     C_1   0.500139 0.963465 0.500141 -0.073043
C18   C     C_1   0.500139 0.036535 0.500141 -0.073043
C19   C     C_R   0.487824 0.500000 0.260052 0.898509
C20   C     C_R   0.512305 0.500000 0.739874 0.897871
C21   C     C_R   0.457843 0.647376 0.109912 -0.120977
C22   C     C_R   0.542655 0.352677 0.889882 -0.120564
C23   C     C_R   0.542654 0.647323 0.889882 -0.120565
C24   C     C_R   0.457843 0.352624 0.109912 -0.120977
C25   C     C_R   0.477793 0.719834 0.053639 -0.150656
C26   C     C_R   0.522751 0.280192 0.946105 -0.150883
C27   C     C_R   0.522750 0.719807 0.946105 -0.150882
C28   C     C_R   0.477793 0.280166 0.053640 -0.150655
C29   C     C_R   0.517350 0.573527 0.940672 0.090721
C30   C     C_R   0.483114 0.426459 0.059193 0.090523
C31   C     C_R   0.483114 0.573541 0.059192 0.090523
C32   C     C_R   0.517350 0.426473 0.940672 0.090720
C33   C     C_R   0.524195 0.500000 0.875773 -0.268905
C34   C     C_R   0.476184 0.500000 0.124085 -0.270446
C35   C     C_R   0.847309 0.572794 0.542018 -0.163272
C36   C     C_R   0.152537 0.427206 0.537520 -0.163814
C37   C     C_R   0.152537 0.572793 0.537521 -0.163814
C38   C     C_R   0.847309 0.427205 0.542017 -0.163272
C39   C     C_R   0.768956 0.572919 0.524355 -0.205520
C40   C     C_R   0.230874 0.427081 0.520193 -0.202380
C41   C     C_R   0.230874 0.572919 0.520194 -0.202380
C42   C     C_R   0.768956 0.427081 0.524354 -0.205520
C43   C     C_R   0.729453 0.500000 0.514956 -0.036040
C44   C     C_R   0.270439 0.500000 0.511873 -0.034438
H1    H     H_    0.459668 0.224047 0.094938 0.138858
H2    H     H_    0.540888 0.775905 0.904751 0.138900
H3    H     H_    0.540889 0.224095 0.904751 0.138900
H4    H     H_    0.459667 0.775953 0.094938 0.138858
H5    H     H_    0.421788 0.649424 0.192200 0.134141
H6    H     H_    0.578668 0.350700 0.807537 0.134264
H7    H     H_    0.578668 0.649300 0.807536 0.134264
H8    H     H_    0.421788 0.350576 0.192200 0.134141
H9    H     H_    0.877832 0.629172 0.547290 0.132911
H10   H     H_    0.122029 0.370832 0.542881 0.132901
H11   H     H_    0.122029 0.629168 0.542883 0.132901
H12   H     H_    0.877832 0.370828 0.547288 0.132911
H13   H     H_    0.739477 0.629830 0.518199 0.151045
H14   H     H_    0.260345 0.370171 0.514060 0.152220
H15   H     H_    0.260346 0.629829 0.514062 0.152220
H16   H     H_    0.739477 0.370170 0.518197 0.151045
H17   H     H_    0.398330 0.712501 0.397390 0.143014
H18   H     H_    0.601676 0.287665 0.602611 0.142481
H19   H     H_    0.601676 0.712335 0.602610 0.142481
H20   H     H_    0.398331 0.287499 0.397390 0.143014
N1    N     N_R   0.500000 0.707230 0.500000 -0.125776
N2    N     N_R   0.500000 0.292770 0.500000 -0.125776
O1    O     O_R   0.389110 0.566570 0.499990 -0.630353
O2    O     O_R   0.610890 0.433430 0.500010 -0.629891
O3    O     O_R   0.610890 0.566570 0.500010 -0.629892
O4    O     O_R   0.389110 0.433430 0.499990 -0.630352
O5    O     O_R   0.499990 0.566540 0.316770 -0.609778
O6    O     O_R   0.500010 0.433460 0.683230 -0.610459
O7    O     O_R   0.500010 0.566540 0.683230 -0.610459
O8    O     O_R   0.499990 0.433460 0.316770 -0.609779
Zn1   Zn    Zn3+2 0.500000 0.588860 0.500000 0.937709
Zn2   Zn    Zn3+2 0.500000 0.411140 0.500000 0.937710
C45   C     C_3   0.376913 0.878517 0.374057 -0.396200
C46   C     C_3   0.314554 0.827746 0.312410 -0.918620
H21   H     H_    0.339004 0.789239 0.237481 0.251615
H22   H     H_    0.285249 0.790248 0.383827 0.257401
H23   H     H_    0.271511 0.867833 0.268568 0.259969
H24   H     H_    0.349135 0.918374 0.444071 0.213443
H25   H     H_    0.402528 0.917065 0.300097 0.208856
C47   C     C_3   0.623319 0.121705 0.626076 -0.395525
C48   C     C_3   0.685708 0.172594 0.687422 -0.919388
H26   H     H_    0.714912 0.210044 0.615834 0.256955
H27   H     H_    0.661315 0.211161 0.762323 0.251701
H28   H     H_    0.728826 0.132588 0.731244 0.259981
H29   H     H_    0.597783 0.083226 0.700199 0.208692
H30   H     H_    0.651068 0.081781 0.556124 0.213615
C49   C     C_3   0.623319 0.878295 0.626074 -0.395526
C50   C     C_3   0.685709 0.827406 0.687419 -0.919387
H31   H     H_    0.661318 0.788838 0.762320 0.251702
H32   H     H_    0.714913 0.789956 0.615829 0.256955
H33   H     H_    0.728828 0.867411 0.731239 0.259981
H34   H     H_    0.651068 0.918219 0.556122 0.213615
H35   H     H_    0.597784 0.916773 0.700199 0.208693
C51   C     C_3   0.376913 0.121483 0.374057 -0.396199
C52   C     C_3   0.314553 0.172254 0.312410 -0.918619
H36   H     H_    0.285249 0.209752 0.383829 0.257400
H37   H     H_    0.339003 0.210761 0.237482 0.251614
H38   H     H_    0.271511 0.132167 0.268569 0.259968
H39   H     H_    0.402528 0.082935 0.300095 0.208856
H40   H     H_    0.349135 0.081625 0.444070 0.213443

loop_
_geom_bond_atom_site_label_1
_geom_bond_atom_site_label_2
_ccdc_geom_bond_type
C24   H8    S    
C30   C32   A    
C4    C36   A    
C35   H9    S    
C19   O5    A    
O6    Zn2   S    
C9    C49   S    
C21   H5    S    
C13   N1    A    
C45   C46   S    
C7    C11   A    
C21   C31   A    
O8    Zn2   S    
C23   C29   A    
C38   C42   A    
C2    O2    A    
C5    C6    T    
C46   H22   S    
C45   H25   S    
C51   H39   S    
C39   H13   S    
C29   C33   A    
C10   C51   S    
C9    C13   A    
C49   H34   S    
C3    C38   A    
C23   C27   A    
C2    O3    A    
C42   C43   A    
C7    C45   S    
C7    C15   A    
C14   H20   S    
C8    C16   A    
O7    Zn1   S    
C47   H30   S    
C48   H27   S    
C28   H1    S    
C40   H14   S    
C30   C34   A    
C36   C40   A    
C47   C48   S    
C41   H15   S    
C4    C6    S    
C10   C14   A    
C42   H16   S    
C49   C50   S    
C46   H21   S    
C39   C43   A    
C11   H17   S    
C48   H26   S    
C12   N2    A    
C50   H33   S    
C35   C39   A    
C12   H18   S    
C1    C44   S    
C23   H7    S    
C52   H36   S    
C13   H19   S    
C3    C35   A    
C2    C43   S    
C8    C12   A    
N2    Zn2   S    
C50   H32   S    
C17   C18   T    
C14   N2    A    
C31   C34   A    
C49   H35   S    
C25   H4    S    
C22   C32   A    
C26   H3    S    
C20   C33   S    
C27   H2    S    
C52   H37   S    
O4    Zn2   S    
C25   C27   A    
C41   C44   A    
O1    Zn1   S    
C47   H29   S    
C48   H28   S    
C15   C17   S    
C21   C25   A    
C8    C47   S    
C19   O8    A    
C24   C28   A    
C3    C5    S    
C19   C34   S    
O2    Zn2   S    
C26   C28   A    
C1    O4    A    
N1    Zn1   S    
C22   H6    S    
C32   C33   A    
C9    C15   A    
C29   C31   A    
C10   C16   A    
O5    Zn1   S    
C46   H23   S    
C45   H24   S    
C51   H40   S    
C50   H31   S    
C1    O1    A    
C20   O7    A    
O3    Zn1   S    
C37   C41   A    
C24   C30   A    
C36   H10   S    
C37   H11   S    
C40   C44   A    
C52   H38   S    
C38   H12   S    
C4    C37   A    
C16   C18   S    
C51   C52   S    
C22   C26   A    
C20   O6    A    
C11   N1    A    
