data_mof_unit_298.cif
_audit_creation_date              2012-12-10T20:26:31-0500
_audit_creation_method            fapswitch 2.2
_symmetry_space_group_name_H-M    P1
_symmetry_Int_Tables_number       1
_space_group_crystal_system       triclinic
_cell_length_a                    10.641357
_cell_length_b                    10.656675
_cell_length_c                    9.928462
_cell_angle_alpha                 86.27414
_cell_angle_beta                  88.279539
_cell_angle_gamma                 90.73072
_cell_volume                      1122.89408079

loop_
_atom_site_label
_atom_site_type_symbol
_atom_type_description
_atom_site_fract_x
_atom_site_fract_y
_atom_site_fract_z
_atom_type_partial_charge
C1    C     C_R   0.501651 0.259777 0.503916 0.926696
C2    C     C_R   0.603013 0.539867 0.064391 0.449013
C3    C     C_R   0.604145 0.534387 0.921715 -0.137382
C4    C     C_R   0.263711 0.513243 0.501201 0.963069
C5    C     C_R   0.390228 0.483661 0.933719 -0.011752
C6    C     C_3   0.300097 0.373945 0.937946 0.677110
C7    C     C_3   0.304083 0.367903 0.092756 0.400684
C8    C     C_R   0.498635 0.739435 0.495399 0.903262
C9    C     C_R   0.737432 0.497776 0.498037 0.848256
C10   C     C_2   0.932809 0.581825 0.413642 -0.155536
C11   C     C_2   0.870573 0.491795 0.490950 -0.051392
C12   C     C_R   0.509216 0.126412 0.510222 -0.289404
C13   C     C_2   0.069303 0.584150 0.399596 0.192238
C14   C     C_2   0.134165 0.546399 0.507738 -0.281639
C15   C     C_R   0.401977 0.058092 0.556764 0.079769
C16   C     C_R   0.603448 0.068015 0.432693 0.439823
C17   C     C_R   0.593955 0.939409 0.419387 -0.201484
C18   C     C_R   0.493259 0.871287 0.482187 -0.231435
C19   C     C_R   0.391962 0.931612 0.538261 0.056676
C20   C     C_3   0.321225 0.898726 0.667533 0.084503
C21   C     C_3   0.343459 0.035491 0.696501 0.483412
C22   C     C_R   0.391283 0.479508 0.076159 0.046981
H1    H     H_    0.881586 0.654613 0.357290 0.136412
H2    H     H_    0.439983 0.265079 0.891879 0.321651
H3    H     H_    0.132672 0.323578 0.148463 0.357864
H4    H     H_    0.453354 0.244937 0.119842 0.165547
H5    H     H_    0.309364 0.176307 0.132684 0.184790
H6    H     H_    0.906277 0.379596 0.657523 0.202916
H7    H     H_    0.894426 0.303412 0.514489 0.206335
H8    H     H_    0.062885 0.647867 0.201219 0.212137
H9    H     H_    0.176314 0.712824 0.289056 0.177369
H10   H     H_    0.714539 0.215430 0.408570 0.324433
H11   H     H_    0.156024 0.843548 0.732644 0.339157
H12   H     H_    0.688371 0.562155 0.863093 0.188625
H13   H     H_    0.193244 0.072565 0.800505 0.348280
H14   H     H_    0.088712 0.537884 0.607526 0.159211
H15   H     H_    0.669689 0.891591 0.369240 0.170105
H16   H     H_    0.366813 0.828599 0.737546 0.105634
H17   H     H_    0.515453 0.999691 0.783463 0.147194
H18   H     H_    0.393770 0.008504 0.894102 0.168172
H19   H     H_    0.673708 0.640915 0.194637 0.355828
H20   H     H_    0.178209 0.384465 0.795248 0.380848
N1    N     N_R   0.499170 0.499140 0.142800 -0.175787
N2    N     N_R   0.499170 0.499180 0.857150 -0.158933
N3    N     N_3   0.433533 0.049380 0.803808 -0.434773
N4    N     N_3   0.361271 0.255276 0.156868 -0.407844
N5    N     N_3   0.930565 0.384182 0.554465 -0.438434
N6    N     N_3   0.130378 0.627850 0.273650 -0.347106
O1    O     O_R   0.500020 0.316790 0.614690 -0.576598
O2    O     O_3   0.181614 0.408323 0.889920 -0.728740
O3    O     O_3   0.347994 0.268001 0.878490 -0.755853
O4    O     O_3   0.189800 0.396826 0.156680 -0.674254
O5    O     O_3   0.707872 0.130673 0.374202 -0.745794
O6    O     O_3   0.195324 0.869997 0.643261 -0.709813
O7    O     O_3   0.233574 0.104983 0.713505 -0.655729
O8    O     O_R   0.500000 0.316760 0.385350 -0.590265
O9    O     O_R   0.319080 0.500020 0.614640 -0.612325
O10   O     O_R   0.319070 0.499980 0.385300 -0.545267
O11   O     O_R   0.500000 0.683240 0.614650 -0.624256
O12   O     O_R   0.499980 0.683210 0.385310 -0.644847
O13   O     O_R   0.680930 0.500020 0.614700 -0.629513
O14   O     O_R   0.680920 0.499980 0.385360 -0.606038
O15   O     O_3   0.706173 0.591519 0.120469 -0.752053
Zn1   Zn    Zn3+2 0.500010 0.500020 0.653130 0.974210
Zn2   Zn    Zn3+2 0.499990 0.499980 0.346870 0.996039

loop_
_geom_bond_atom_site_label_1
_geom_bond_atom_site_label_2
_ccdc_geom_bond_type
C4    O9    A    
C7    O4    S    
C13   N6    S    
H6    N5    S    
C6    C7    S    
C6    O3    S    
O13   Zn1   S    
C7    C22   S    
C20   H16   S    
O10   Zn2   S    
C11   N5    S    
C19   C20   S    
O14   Zn2   S    
C12   C15   A    
H17   N3    S    
C2    N1    A    
N1    Zn2   S    
C20   C21   S    
H2    O3    S    
C2    C3    A    
C4    C14   S    
H3    O4    S    
O1    Zn1   S    
C17   H15   S    
C13   C14   D    
C8    O12   A    
C15   C19   A    
C9    C11   S    
O11   Zn1   S    
C5    C6    S    
C1    C12   S    
H7    N5    S    
C9    O13   A    
H5    N4    S    
H8    N6    S    
C1    O8    A    
H20   O2    S    
O12   Zn2   S    
C17   C18   A    
C21   N3    S    
H9    N6    S    
C8    O11   A    
C14   H14   S    
H18   N3    S    
C10   H1    S    
C8    C18   S    
C3    N2    A    
C10   C11   D    
H19   O15   S    
H13   O7    S    
C9    O14   A    
N2    Zn1   S    
C7    N4    S    
C12   C16   A    
H10   O5    S    
C15   C21   S    
C2    O15   S    
O9    Zn1   S    
C20   O6    S    
C18   C19   A    
C4    O10   A    
H11   O6    S    
C21   O7    S    
H4    N4    S    
C16   O5    S    
C3    H12   S    
C1    O1    A    
C5    N2    A    
C22   N1    A    
C6    O2    S    
C5    C22   A    
O8    Zn2   S    
C16   C17   A    
C10   C13   S    
