data_mof_unit_3357.cif
_audit_creation_date              2012-12-11T15:44:55-0500
_audit_creation_method            fapswitch 2.2
_symmetry_space_group_name_H-M    P1
_symmetry_Int_Tables_number       1
_space_group_crystal_system       triclinic
_cell_length_a                    6.929706
_cell_length_b                    16.800303
_cell_length_c                    17.104066
_cell_angle_alpha                 100.318457
_cell_angle_beta                  89.549202
_cell_angle_gamma                 90.525533
_cell_volume                      1958.949467

loop_
_atom_site_label
_atom_site_type_symbol
_atom_type_description
_atom_site_fract_x
_atom_site_fract_y
_atom_site_fract_z
_atom_type_partial_charge
O1    O     O_R   0.494370 0.415690 0.413450 -0.541702
O2    O     O_R   0.819420 0.429360 0.578420 -0.542043
O3    O     O_R   0.994280 0.584310 0.586550 -0.540419
C1    C     C_R   0.651601 0.414100 0.605578 0.694504
O4    O     O_R   0.823790 0.406230 0.413570 -0.546509
O5    O     O_R   0.998670 0.561000 0.420530 -0.534359
C2    C     C_R   0.654709 0.383100 0.385106 0.694665
O6    O     O_R   0.489970 0.439000 0.579470 -0.540816
O7    O     O_3   0.662300 0.550810 0.502470 -0.353550
V1    V     V_3+5 0.935380 0.490570 0.499540 1.431906
O8    O     O_R   0.328650 0.570640 0.421580 -0.532417
C3    C     C_R   0.161733 0.587338 0.395616 0.706346
O9    O     O_R   0.324290 0.593770 0.586430 -0.542560
C4    C     C_R   0.155020 0.616856 0.614938 0.692397
V2    V     V_3+5 0.435930 0.509430 0.500460 1.445369
O10   O     O_3   0.159140 0.449190 0.497530 -0.372600
C5    C     C_R   0.301526 0.738399 0.701314 -0.187263
H1    H     H_    0.431530 0.729361 0.665177 0.133512
C6    C     C_R   0.292587 0.804033 0.764730 -0.033862
C7    C     C_R   0.123797 0.817105 0.813274 -0.092287
C8    C     C_R   0.965762 0.764235 0.793785 -0.137327
H2    H     H_    0.834519 0.772050 0.829012 0.133438
C9    C     C_R   0.975125 0.699864 0.729309 -0.149623
H3    H     H_    0.850598 0.660361 0.716568 0.117158
C10   C     C_R   0.143839 0.685727 0.682838 -0.056137
C11   C     C_R   0.165222 0.641759 0.335339 -0.111417
C12   C     C_R   0.096151 0.863714 0.168437 -0.063257
C13   C     C_R   0.904789 0.813645 0.270142 -0.182977
C14   C     C_R   0.930392 0.866733 0.216900 -0.159600
C15   C     C_R   0.239829 0.807354 0.176041 -0.230259
C16   C     C_R   0.214174 0.752673 0.229242 0.152041
C17   C     C_R   0.044551 0.755020 0.276803 0.109185
C18   C     C_R   0.019705 0.699266 0.329898 -0.115257
C19   C     C_R   0.330570 0.640454 0.286582 -0.146487
C20   C     C_R   0.354846 0.694907 0.234587 -0.189713
H4    H     H_    0.444301 0.597216 0.289285 0.132359
H5    H     H_    0.773132 0.818362 0.305097 0.137750
H6    H     H_    0.485084 0.692014 0.198702 0.119123
H7    H     H_    0.817291 0.909872 0.212733 0.124952
H8    H     H_    0.367473 0.803928 0.138551 0.118958
C21   C     C_R   0.654957 0.363316 0.668638 -0.081214
C22   C     C_R   0.608855 0.135891 0.830681 -0.096199
C23   C     C_R   0.419510 0.179567 0.724947 0.182631
C24   C     C_R   0.451244 0.126174 0.778158 -0.176411
C25   C     C_R   0.740220 0.199261 0.827742 -0.257788
C26   C     C_R   0.710300 0.253904 0.775100 0.115585
C27   C     C_R   0.548756 0.244684 0.723445 0.140114
C28   C     C_R   0.521948 0.300145 0.670821 -0.215160
C29   C     C_R   0.811865 0.372049 0.721456 -0.155935
C30   C     C_R   0.838754 0.318482 0.774068 -0.188385
H9    H     H_    0.403273 0.292550 0.629250 0.153032
H10   H     H_    0.917233 0.420016 0.720962 0.119270
H11   H     H_    0.962412 0.326902 0.813173 0.116748
H12   H     H_    0.348684 0.077431 0.780022 0.129147
H13   H     H_    0.860574 0.208104 0.868586 0.124665
C31   C     C_R   0.800840 0.262419 0.298222 -0.125264
H14   H     H_    0.930724 0.271831 0.333695 0.142458
C32   C     C_R   0.793483 0.197195 0.234534 0.200438
C33   C     C_R   0.624756 0.183203 0.186408 -0.098696
C34   C     C_R   0.466839 0.235152 0.206538 -0.171283
H15   H     H_    0.336245 0.226816 0.171625 0.132474
C35   C     C_R   0.475583 0.299386 0.271143 -0.145773
H16   H     H_    0.351267 0.338233 0.284260 0.125295
C36   C     C_R   0.643456 0.314209 0.317253 -0.109588
O11   O     O_R   0.774880 0.061150 0.920630 -0.531848
O12   O     O_R   0.440980 0.093710 0.086500 -0.542982
O13   O     O_R   0.266190 0.938890 0.079390 -0.537483
C37   C     C_R   0.610534 0.115810 0.116301 0.680515
O14   O     O_R   0.445420 0.070740 0.921670 -0.544143
O15   O     O_R   0.270660 0.915760 0.913380 -0.536331
C38   C     C_R   0.613164 0.085975 0.894470 0.753852
O16   O     O_R   0.770400 0.084270 0.086640 -0.548183
O17   O     O_3   0.602590 0.949210 0.997500 -0.363231
V3    V     V_3+5 0.329470 0.009420 0.000470 1.418390
O18   O     O_R   0.940650 0.906250 0.913470 -0.528939
C39   C     C_R   0.110254 0.884331 0.883608 0.696470
O19   O     O_R   0.936210 0.929220 0.078300 -0.546548
C40   C     C_R   0.102564 0.914237 0.105487 0.695429
V4    V     V_3+5 0.828930 0.990510 0.999490 1.426597
O20   O     O_3   0.105680 0.050790 0.002500 -0.376598
N1    N     N_3   0.254688 0.168406 0.673433 -0.666071
H17   H     H_    0.182430 0.114409 0.677653 0.238366
H18   H     H_    0.158319 0.215134 0.693971 0.228720
N2    N     N_3   0.958590 0.145554 0.222422 -0.673780
H19   H     H_    0.024636 0.150683 0.168434 0.242591
H20   H     H_    0.914581 0.085779 0.221971 0.229785
C41   C     C_1   0.457321 0.858139 0.775631 0.289450
N3    N     N_1   0.589507 0.901356 0.783893 -0.358237
C42   C     C_1   0.850272 0.703444 0.380694 0.285998
N4    N     N_1   0.714867 0.707004 0.421194 -0.333177

loop_
_geom_bond_atom_site_label_1
_geom_bond_atom_site_label_2
_ccdc_geom_bond_type
O12   C37   A    
C41   N3    T    
O11   V4    S    
C12   C14   A    
O17   V3    S    
C6    C7    A    
C1    O6    A    
C12   C40   S    
N1    H17   S    
O19   C40   A    
C13   C14   A    
N2    H20   S    
O16   V4    S    
C6    C41   S    
O5    C3    A    
C15   C16   A    
C1    C21   S    
V2    O10   S    
O12   V3    S    
C31   H14   S    
C7    C39   S    
C34   C35   A    
C19   C20   A    
O14   C38   A    
C35   C36   A    
O8    V2    S    
C11   C19   A    
C28   H9    S    
C27   C28   A    
O15   V3    S    
C9    H3    S    
C31   C36   A    
O1    V2    S    
O7    V1    S    
C33   C34   A    
V3    O20   S    
O9    C4    A    
C12   C15   A    
O13   C40   A    
C22   C24   A    
C21   C29   A    
N1    H18   S    
O19   V4    S    
C30   H11   S    
C13   C17   A    
C20   H6    S    
N2    H19   S    
O4    C2    A    
C32   C33   A    
C25   C26   A    
C3    C11   S    
C34   H15   S    
C22   C25   A    
O2    C1    A    
O18   C39   A    
C35   H16   S    
C18   C42   S    
C33   C37   S    
C11   C18   A    
C16   C17   A    
C37   O16   A    
C29   H10   S    
C14   H7    S    
C5    H1    S    
O17   V4    S    
C15   H8    S    
O14   V3    S    
O13   V3    S    
O3    C4    A    
O6    V2    S    
O9    V2    S    
C23   C24   A    
O15   C39   A    
C23   N1    S    
C16   C20   A    
O2    V1    S    
C26   C27   A    
O1    C2    A    
O5    V1    S    
O8    C3    A    
C26   C30   A    
C5    C10   A    
C17   C18   A    
C8    C9    A    
O7    V2    S    
O4    V1    S    
O3    V1    S    
O11   C38   A    
O18   V4    S    
C13   H5    S    
C22   C38   S    
C5    C6    A    
C21   C28   A    
C31   C32   A    
C19   H4    S    
C9    C10   A    
C4    C10   S    
C32   N2    S    
C2    C36   S    
V4    O20   S    
C24   H12   S    
C7    C8    A    
C25   H13   S    
C29   C30   A    
V1    O10   S    
C42   N4    T    
C8    H2    S    
C23   C27   A    
