data_mof_unit_4816.cif
_audit_creation_date              2012-12-11T14:34:11-0500
_audit_creation_method            fapswitch 2.2
_symmetry_space_group_name_H-M    P1
_symmetry_Int_Tables_number       1
_space_group_crystal_system       triclinic
_cell_length_a                    13.941524
_cell_length_b                    14.072278
_cell_length_c                    27.381688
_cell_angle_alpha                 89.761487
_cell_angle_beta                  90.370144
_cell_angle_gamma                 119.774246
_cell_volume                      4662.72332397

loop_
_atom_site_label
_atom_site_type_symbol
_atom_type_description
_atom_site_fract_x
_atom_site_fract_y
_atom_site_fract_z
_atom_type_partial_charge
C1    C     C_R   0.234985 0.786181 0.569050 0.538625
C2    C     C_1   0.688239 0.856247 0.863474 -0.027443
C3    C     C_1   0.124971 0.861082 0.856212 -0.015963
C4    C     C_1   0.136221 0.271311 0.857405 -0.020041
C5    C     C_1   0.622893 0.812350 0.660455 0.011030
C6    C     C_1   0.184059 0.806727 0.658833 0.009766
C7    C     C_1   0.188333 0.375800 0.659033 0.007159
C8    C     C_1   0.597972 0.794437 0.617751 0.030708
C9    C     C_1   0.204041 0.800201 0.616800 0.035137
C10   C     C_1   0.197746 0.402311 0.616818 0.034893
C11   C     C_R   0.069847 0.157592 0.096695 0.558086
C12   C     C_R   0.213331 0.447991 0.569027 0.542194
C13   C     C_R   0.776525 0.883448 0.087681 0.556471
C14   C     C_R   0.116582 0.893487 0.088141 0.572021
C15   C     C_R   0.076176 0.171978 0.942629 0.546801
C16   C     C_R   0.778784 0.886750 0.951196 0.555376
C17   C     C_R   0.094128 0.923954 0.942712 0.541171
C18   C     C_R   0.584684 0.873468 0.355572 -0.098055
C19   C     C_R   0.102920 0.724554 0.361970 -0.110567
C20   C     C_R   0.277403 0.389171 0.360294 -0.107918
C21   C     C_R   0.600093 0.881171 0.305287 0.005054
C22   C     C_R   0.087365 0.735626 0.312508 -0.008275
C23   C     C_R   0.551764 0.764647 0.569369 0.538934
C24   C     C_R   0.259276 0.347128 0.313312 -0.003615
C25   C     C_R   0.636383 0.902381 0.203560 0.101245
C26   C     C_R   0.068082 0.748899 0.210246 0.062754
C27   C     C_R   0.226890 0.283431 0.214765 0.066151
C28   C     C_R   0.232306 0.787885 0.431993 0.541003
C29   C     C_R   0.212105 0.445242 0.431821 0.544378
C30   C     C_R   0.552303 0.765503 0.430965 0.543260
C31   C     C_R   0.590511 0.960097 0.227379 0.283099
C32   C     C_R   0.994605 0.651797 0.236037 0.285884
C33   C     C_R   0.334565 0.334426 0.235562 0.286772
C34   C     C_3   0.622124 0.724148 0.794194 -0.196811
C35   C     C_R   0.574536 0.949653 0.278092 -0.112704
C36   C     C_R   0.006512 0.646545 0.286686 -0.107133
C37   C     C_R   0.349189 0.366618 0.284548 -0.106456
C38   C     C_R   0.673219 0.922616 0.154082 0.124377
C39   C     C_R   0.062439 0.759797 0.158612 0.120378
C40   C     C_R   0.208197 0.263252 0.164018 0.147895
C41   C     C_R   0.713727 0.857716 0.133440 -0.052672
C42   C     C_R   0.135289 0.861124 0.136669 -0.047031
C43   C     C_R   0.098425 0.195251 0.147127 -0.039530
C44   C     C_R   0.641202 0.736422 0.359831 -0.103096
C45   C     C_3   0.261600 0.919502 0.789340 -0.199691
C46   C     C_R   0.252130 0.912186 0.364727 -0.104915
C47   C     C_R   0.080808 0.316322 0.370831 -0.102918
C48   C     C_R   0.654242 0.740136 0.309233 -0.001328
C49   C     C_R   0.239757 0.925100 0.314992 -0.000234
C50   C     C_R   0.059932 0.270413 0.323998 0.001441
C51   C     C_R   0.634913 0.814885 0.281822 0.024838
C52   C     C_R   0.158251 0.834197 0.288288 0.019661
C53   C     C_R   0.150935 0.289303 0.294453 0.019405
C54   C     C_R   0.680864 0.667457 0.285465 0.058882
C55   C     C_R   0.311906 0.024090 0.291138 0.054167
C56   C     C_3   0.079551 0.353684 0.790004 -0.192487
C57   C     C_R   0.951364 0.211898 0.305204 0.078000
C58   C     C_R   0.690136 0.671719 0.234218 0.264740
C59   C     C_R   0.307090 0.029125 0.239900 0.251966
C60   C     C_R   0.934783 0.176790 0.256154 0.268878
C61   C     C_R   0.680227 0.753031 0.208058 0.023827
C62   C     C_R   0.226725 0.937588 0.213749 0.028539
C63   C     C_R   0.025771 0.196473 0.227050 0.036417
C64   C     C_3   0.560095 0.863035 0.737490 0.246916
C65   C     C_3   0.131789 0.705958 0.739905 0.245077
C66   C     C_3   0.290109 0.424810 0.739743 0.244754
C67   C     C_3   0.614806 0.714913 0.737515 0.122096
C68   C     C_R   0.650403 0.823505 0.231136 -0.048185
C69   C     C_R   0.150113 0.840423 0.237447 -0.057746
C70   C     C_R   0.134456 0.254650 0.245625 -0.057836
C71   C     C_R   0.704261 0.767033 0.158899 -0.104748
C72   C     C_R   0.220901 0.944109 0.163664 -0.104960
C73   C     C_R   0.009466 0.161619 0.178720 -0.126421
C74   C     C_R   0.601772 0.798637 0.382684 0.001414
C75   C     C_R   0.190387 0.810334 0.387079 -0.005028
C76   C     C_R   0.189030 0.378750 0.388057 -0.002610
C77   C     C_3   0.760523 0.911501 0.726988 -0.188264
C78   C     C_3   0.275750 0.909052 0.733784 0.117221
C79   C     C_3   0.075390 0.846060 0.717171 -0.198312
C80   C     C_3   0.142627 0.230041 0.719626 -0.198312
C81   C     C_3   0.774345 0.922604 0.783421 0.129554
C82   C     C_3   0.059794 0.859253 0.772181 0.123522
C83   C     C_3   0.126051 0.203755 0.774876 0.127630
C84   C     C_1   0.723270 0.869176 0.904833 0.020419
C85   C     C_1   0.111242 0.887188 0.896385 0.036202
C86   C     C_1   0.112587 0.229345 0.897189 0.038628
C87   C     C_3   0.639624 0.826066 0.714084 0.084711
C88   C     C_3   0.166636 0.815673 0.711084 0.085995
C89   C     C_3   0.087355 0.372822 0.733746 0.121436
C90   C     C_3   0.178080 0.351612 0.711633 0.086171
C91   C     C_3   0.578062 0.875928 0.794269 -0.180944
C92   C     C_3   0.116500 0.722236 0.795453 -0.180232
C93   C     C_3   0.275501 0.393504 0.795266 -0.181605
C94   C     C_3   0.665002 0.844229 0.810357 -0.019101
C95   C     C_3   0.140731 0.840633 0.804792 -0.011702
C96   C     C_3   0.154070 0.306159 0.805909 -0.011889
Cr1   Cr    Cr6+3 0.164410 0.584450 0.499910 1.066177
Cr2   Cr    Cr6+3 0.415550 0.579960 0.499910 1.069999
Cr3   Cr    Cr6+3 0.420040 0.835590 0.499910 1.073006
Cr4   Cr    Cr6+3 0.155170 0.075460 0.019960 1.081293
Cr5   Cr    Cr6+3 0.924540 0.079710 0.019960 1.076260
Cr6   Cr    Cr6+3 0.920290 0.844830 0.019960 1.074630
H1    H     H_    0.605700 0.961418 0.805737 0.116113
H2    H     H_    0.552197 0.920646 0.372960 0.158831
H3    H     H_    0.053097 0.645967 0.379638 0.149446
H4    H     H_    0.361548 0.437284 0.373724 0.151549
H5    H     H_    0.542003 0.995680 0.296503 0.127839
H6    H     H_    0.952749 0.571396 0.306105 0.135290
H7    H     H_    0.431733 0.408517 0.300157 0.138697
H8    H     H_    0.727372 0.712546 0.141348 0.227212
H9    H     H_    0.279765 0.019051 0.145537 0.225856
H10   H     H_    0.926341 0.111569 0.164449 0.186792
H11   H     H_    0.653639 0.679598 0.381784 0.180294
H12   H     H_    0.031151 0.663339 0.807528 0.121973
H13   H     H_    0.316900 0.977689 0.385601 0.181431
H14   H     H_    0.014490 0.309196 0.393510 0.176698
H15   H     H_    0.818389 0.887167 0.711049 0.199525
H16   H     H_    0.097073 0.922445 0.696548 0.184541
H17   H     H_    0.065624 0.176631 0.698712 0.187514
H18   H     H_    0.783898 0.992423 0.710594 0.130663
H19   H     H_    0.995885 0.782941 0.700986 0.140430
H20   H     H_    0.205516 0.211000 0.705258 0.133582
H21   H     H_    0.796626 0.007675 0.793352 0.169553
H22   H     H_    0.974722 0.795766 0.782140 0.164525
H23   H     H_    0.330869 0.361360 0.806399 0.117963
H24   H     H_    0.185215 0.177000 0.786552 0.159477
H25   H     H_    0.529765 0.651741 0.727038 0.210115
H26   H     H_    0.341993 0.888105 0.728638 0.211630
H27   H     H_    0.110864 0.459374 0.726557 0.205942
H28   H     H_    0.538535 0.670719 0.809813 0.134838
H29   H     H_    0.318206 0.899259 0.809994 0.118241
H30   H     H_    0.106876 0.432915 0.809005 0.131481
H31   H     H_    0.433569 0.788875 0.693653 0.334171
H32   H     H_    0.212754 0.652579 0.701924 0.340113
H33   H     H_    0.341065 0.557787 0.701259 0.338417
H34   H     H_    0.498931 0.823472 0.813676 0.174853
H35   H     H_    0.534992 0.062704 0.224013 0.338974
H36   H     H_    0.868267 0.502870 0.235667 0.342869
H37   H     H_    0.491637 0.382239 0.229228 0.336448
H38   H     H_    0.689377 0.533210 0.227520 0.360747
H39   H     H_    0.444000 0.169587 0.233727 0.364889
H40   H     H_    0.786373 0.154699 0.250640 0.364314
H41   H     H_    0.841577 0.831286 0.789698 0.345228
H42   H     H_    0.142565 0.016332 0.766707 0.341963
H43   H     H_    0.966055 0.138020 0.768741 0.345416
H44   H     H_    0.661117 0.606187 0.730389 0.359226
H45   H     H_    0.172623 0.705375 0.818388 0.172033
H46   H     H_    0.383686 0.061074 0.720393 0.359116
H47   H     H_    0.933603 0.330403 0.721806 0.360358
H48   H     H_    0.299538 0.467191 0.818210 0.171140
H49   H     H_    0.675183 0.692412 0.809130 0.141123
H50   H     H_    0.286825 0.005469 0.799118 0.147090
H51   H     H_    0.992500 0.298630 0.801274 0.148483
I1    I     I_    0.675529 0.050491 0.109699 -0.178633
I2    I     I_    0.956952 0.627383 0.110427 -0.160198
I3    I     I_    0.337750 0.361318 0.112729 -0.154401
I4    I     I_    0.711176 0.553642 0.326174 -0.418167
I5    I     I_    0.426206 0.166949 0.331986 -0.392763
I6    I     I_    0.811006 0.171451 0.350598 -0.382049
I7    I     I_    0.588346 0.017971 0.706973 -0.413345
I8    I     I_    0.978015 0.571368 0.711636 -0.419541
I9    I     I_    0.423914 0.404818 0.710712 -0.415602
O1    O     O_R   0.137150 0.468200 0.553200 -0.487273
O2    O     O_R   0.140110 0.470540 0.446010 -0.510941
O3    O     O_R   0.529460 0.669570 0.446010 -0.513090
O4    O     O_R   0.330430 0.859890 0.446010 -0.512897
O5    O     O_R   0.176710 0.690910 0.450560 -0.502559
O6    O     O_R   0.309090 0.485800 0.450560 -0.501367
O7    O     O_R   0.514200 0.823290 0.450560 -0.497831
O8    O     O_3   0.333333 0.666667 0.499990 -0.296527
O9    O     O_R   0.176750 0.985260 0.074180 -0.518926
O10   O     O_R   0.014740 0.191490 0.074180 -0.462748
O11   O     O_R   0.808510 0.823250 0.074180 -0.508786
O12   O     O_R   0.531800 0.668950 0.553200 -0.485892
O13   O     O_R   0.146100 0.172630 0.068980 -0.450612
O14   O     O_R   0.827370 0.973470 0.068980 -0.496566
O15   O     O_R   0.026530 0.853900 0.068980 -0.465205
O16   O     O_3   0.000000 0.000000 0.020040 -0.301207
O17   O     O_R   0.148270 0.170520 0.969620 -0.491182
O18   O     O_R   0.829480 0.977750 0.969620 -0.509957
O19   O     O_R   0.022250 0.851730 0.969620 -0.481054
O20   O     O_3   0.449509 0.783315 0.728560 -0.670400
O21   O     O_3   0.214303 0.676817 0.736011 -0.657790
O22   O     O_3   0.320282 0.535825 0.735741 -0.672597
O23   O     O_R   0.331050 0.862850 0.553200 -0.484069
O24   O     O_3   0.560315 0.025184 0.201293 -0.640679
O25   O     O_3   0.911266 0.562695 0.212095 -0.622517
O26   O     O_3   0.423881 0.347654 0.208720 -0.623028
O27   O     O_3   0.713457 0.601103 0.208610 -0.651997
O28   O     O_3   0.377806 0.122460 0.214002 -0.659668
O29   O     O_3   0.831224 0.126901 0.234941 -0.690968
O30   O     O_3   0.860822 0.906284 0.799354 -0.605286
O31   O     O_3   0.071232 0.962003 0.781131 -0.614158
O32   O     O_3   0.018390 0.118758 0.784402 -0.613253
O33   O     O_3   0.689147 0.683014 0.719818 -0.709685
O34   O     O_R   0.179100 0.982980 0.967000 -0.502065
O35   O     O_3   0.306699 0.009063 0.710076 -0.708137
O36   O     O_3   0.984574 0.304317 0.711343 -0.706614
O37   O     O_R   0.017020 0.196120 0.967000 -0.481015
O38   O     O_R   0.803880 0.820900 0.967000 -0.503854
O39   O     O_R   0.173970 0.688730 0.549930 -0.495145
O40   O     O_R   0.311270 0.485240 0.549930 -0.491963
O41   O     O_R   0.514760 0.826030 0.549930 -0.488521

loop_
_geom_bond_atom_site_label_1
_geom_bond_atom_site_label_2
_ccdc_geom_bond_type
C25   C31   A    
C13   O14   A    
C71   H8    S    
C26   C32   A    
C55   C59   A    
C36   H6    S    
C18   C21   A    
C65   C92   S    
C2    C84   T    
C21   C51   A    
H32   O21   S    
C77   H18   S    
C1    O39   A    
C6    C9    T    
C13   C41   S    
C89   H27   S    
C66   C90   S    
C29   C76   S    
C80   H20   S    
C27   C33   A    
Cr6   O11   S    
C13   O11   A    
C89   O36   S    
C79   H19   S    
C46   C49   A    
C20   C76   A    
C46   H13   S    
C81   H21   S    
C60   C63   A    
C17   C85   S    
C32   C36   A    
C29   O6    A    
C12   O1    A    
C47   C76   A    
C15   O17   A    
C65   O21   S    
C30   C74   S    
H46   O35   S    
C4    C86   T    
Cr4   O16   S    
C16   O18   A    
C79   H16   S    
C16   C84   S    
C8    C23   S    
C6    C88   S    
C66   I9    S    
Cr5   O10   S    
C7    C10   T    
C79   C88   S    
C82   O31   S    
Cr5   O16   S    
C28   O5    A    
C4    C96   S    
C43   C73   A    
C55   I5    S    
C91   H34   S    
C20   C24   A    
Cr1   O1    S    
H41   O30   S    
C11   C43   S    
C45   C78   S    
C52   C69   A    
C78   O35   S    
C12   O40   A    
C39   C42   A    
C64   C87   S    
C37   H7    S    
C16   O38   A    
C28   O4    A    
H47   O36   S    
C41   C71   A    
Cr3   O4    S    
C64   O20   S    
C61   C71   A    
C58   C61   A    
C57   I6    S    
C80   H17   S    
C78   H26   S    
C11   O10   A    
C18   C74   A    
C92   H45   S    
H38   O27   S    
Cr6   O19   S    
C29   O2    A    
C64   I7    S    
C93   H48   S    
C25   C68   A    
H33   O22   S    
C58   O27   S    
C80   C83   S    
C67   O33   S    
C53   C70   A    
C82   H22   S    
C46   C75   A    
C47   C50   A    
C20   H4    S    
Cr4   O34   S    
C47   H14   S    
C26   C69   A    
C48   C51   A    
C50   C53   A    
Cr2   O3    S    
C2    C94   S    
C19   C22   A    
C1    C9    S    
C38   C41   A    
C91   H1    S    
C23   O12   A    
C56   H51   S    
C57   C60   A    
H42   O31   S    
C63   C73   A    
C24   C53   A    
C49   C55   A    
C7    C90   S    
C92   C95   S    
C33   C37   A    
Cr1   O8    S    
C62   C69   A    
C39   I2    S    
C67   C87   S    
C5    C87   S    
C48   C54   A    
C30   O7    A    
Cr5   O14   S    
Cr6   O38   S    
C25   C38   A    
C79   C82   S    
C15   O37   A    
C63   C70   A    
C77   C81   S    
C27   C40   A    
Cr1   O2    S    
C40   C43   A    
Cr4   O13   S    
C42   C72   A    
C24   C37   A    
C62   C72   A    
C18   H2    S    
C44   C74   A    
C77   C87   S    
H43   O32   S    
C56   H30   S    
C27   C70   A    
C10   C12   S    
C15   C86   S    
C21   C35   A    
C19   H3    S    
C56   C89   S    
C44   H11   S    
C45   H29   S    
C93   C96   S    
C66   C93   S    
C67   H25   S    
Cr6   O16   S    
C31   C35   A    
C3    C85   T    
C38   I1    S    
C83   H24   S    
H37   O26   S    
C45   C95   S    
Cr3   O23   S    
C81   O30   S    
C73   H10   S    
C22   C52   A    
H35   O24   S    
C54   C58   A    
C78   C88   S    
C56   C96   S    
C66   O22   S    
C59   C62   A    
C82   C95   S    
C32   O25   S    
Cr3   O41   S    
C50   C57   A    
C11   O13   A    
Cr2   O40   S    
H39   O28   S    
C34   C94   S    
C30   O3    A    
Cr1   O39   S    
C14   O9    A    
C17   O34   A    
C34   C67   S    
C5    C8    T    
C34   H49   S    
Cr5   O37   S    
Cr3   O7    S    
C1    O23   A    
C54   I4    S    
C22   C36   A    
C77   H15   S    
C14   C42   S    
C45   H50   S    
Cr3   O8    S    
C49   C52   A    
C83   O32   S    
C19   C75   A    
H36   O25   S    
H44   O33   S    
Cr5   O18   S    
Cr1   O5    S    
C91   C94   S    
C81   C94   S    
Cr4   O17   S    
C61   C68   A    
C83   C96   S    
C65   C88   S    
C60   O29   S    
Cr2   O12   S    
H40   O29   S    
C31   O24   S    
C33   O26   S    
C51   C68   A    
C80   C90   S    
C26   C39   A    
C93   H23   S    
C72   H9    S    
C14   O15   A    
C35   H5    S    
Cr2   O8    S    
C17   O19   A    
H31   O20   S    
C34   H28   S    
C65   I8    S    
Cr6   O15   S    
C23   O41   A    
C40   I3    S    
C59   O28   S    
C3    C95   S    
C64   C91   S    
C89   C90   S    
C28   C75   S    
C92   H12   S    
Cr2   O6    S    
C44   C48   A    
Cr4   O9    S    
