data_mof_unit_2758.cif
_audit_creation_date              2012-12-11T15:06:34-0500
_audit_creation_method            fapswitch 2.2
_symmetry_space_group_name_H-M    P1
_symmetry_Int_Tables_number       1
_space_group_crystal_system       triclinic
_cell_length_a                    7.292003
_cell_length_b                    15.477419
_cell_length_c                    22.12011
_cell_angle_alpha                 89.999977
_cell_angle_beta                  89.999938
_cell_angle_gamma                 91.656362
_cell_volume                      2495.46314005

loop_
_atom_site_label
_atom_site_type_symbol
_atom_type_description
_atom_site_fract_x
_atom_site_fract_y
_atom_site_fract_z
_atom_type_partial_charge
O1    O     O_R   0.390810 0.844810 0.447340 -0.531010
O2    O     O_R   0.109190 0.155190 0.947340 -0.531010
O3    O     O_R   0.890810 0.655190 0.552660 -0.515424
O4    O     O_R   0.609190 0.344810 0.052660 -0.515424
O5    O     O_R   0.720550 0.655820 0.440420 -0.534681
O6    O     O_R   0.779450 0.344180 0.940420 -0.534681
O7    O     O_R   0.220550 0.844180 0.559580 -0.533380
O8    O     O_R   0.279450 0.155820 0.059580 -0.533381
C1    C     C_R   0.549624 0.626053 0.427455 0.801451
C2    C     C_R   0.950376 0.373947 0.927455 0.801451
C3    C     C_R   0.053571 0.871397 0.574156 0.813917
C4    C     C_R   0.446429 0.128603 0.074156 0.813917
O9    O     O_R   0.720530 0.844130 0.440420 -0.551141
O10   O     O_R   0.779470 0.155870 0.940420 -0.551141
O11   O     O_R   0.220530 0.655870 0.559580 -0.565614
O12   O     O_R   0.279470 0.344130 0.059580 -0.565614
O13   O     O_R   0.890830 0.844810 0.552660 -0.540953
O14   O     O_R   0.609170 0.155190 0.052660 -0.540952
O15   O     O_R   0.390830 0.655190 0.447340 -0.557699
O16   O     O_R   0.109170 0.344810 0.947340 -0.557699
C5    C     C_R   0.554583 0.873314 0.427290 0.770196
C6    C     C_R   0.945417 0.126686 0.927290 0.770196
C7    C     C_R   0.049905 0.628466 0.574167 0.732251
C8    C     C_R   0.450095 0.371534 0.074167 0.732251
O17   O     O_3   0.557310 0.749980 0.536820 -0.390486
O18   O     O_3   0.942690 0.250020 0.036820 -0.390486
O19   O     O_3   0.057310 0.750020 0.463180 -0.397286
O20   O     O_3   0.442690 0.249980 0.963180 -0.397286
V1    V     V_3+5 0.832160 0.749980 0.493170 1.420398
V2    V     V_3+5 0.667840 0.250020 0.993170 1.420399
V3    V     V_3+5 0.332160 0.750020 0.506830 1.392581
V4    V     V_3+5 0.167840 0.249980 0.006830 1.392580
C9    C     C_R   0.043034 0.603143 0.870093 0.425680
C10   C     C_R   0.456966 0.396857 0.370093 0.425679
C11   C     C_R   0.424696 0.903284 0.139350 0.405952
C12   C     C_R   0.075304 0.096715 0.639350 0.405951
C13   C     C_R   0.973403 0.449300 0.886403 -0.289692
C14   C     C_R   0.526597 0.550700 0.386403 -0.289692
C15   C     C_R   0.453359 0.056789 0.117535 -0.272770
C16   C     C_R   0.046641 0.943211 0.617535 -0.272770
C17   C     C_R   0.936233 0.480423 0.594104 0.383675
C18   C     C_R   0.563767 0.519576 0.094104 0.383676
C19   C     C_R   0.565246 0.031499 0.414787 0.393742
C20   C     C_R   0.934754 0.968501 0.914787 0.393743
C21   C     C_R   0.876693 0.416039 0.633744 -0.226947
C22   C     C_R   0.623307 0.583961 0.133744 -0.226947
C23   C     C_R   0.568365 0.104850 0.377045 -0.284217
C24   C     C_R   0.931635 0.895150 0.877045 -0.284218
C25   C     C_R   0.909639 0.423700 0.695369 -0.113078
C26   C     C_R   0.590361 0.576300 0.195369 -0.113079
C27   C     C_R   0.551357 0.097328 0.314473 -0.133458
C28   C     C_R   0.948643 0.902672 0.814473 -0.133458
C29   C     C_R   0.007270 0.495133 0.719667 0.098195
C30   C     C_R   0.492730 0.504867 0.219667 0.098195
C31   C     C_R   0.540301 0.016175 0.285458 0.110301
C32   C     C_R   0.959700 0.983824 0.785458 0.110301
C33   C     C_R   0.060654 0.563470 0.679833 -0.068393
C34   C     C_R   0.439346 0.436530 0.179834 -0.068392
C35   C     C_R   0.548167 0.941761 0.323413 -0.085094
C36   C     C_R   0.951834 0.058239 0.823413 -0.085094
C37   C     C_R   0.028233 0.504955 0.783546 -0.142409
C38   C     C_R   0.471767 0.495045 0.283546 -0.142409
C39   C     C_R   0.516200 0.005030 0.220854 -0.128886
C40   C     C_R   0.983800 0.994970 0.720854 -0.128886
C41   C     C_R   0.067915 0.588288 0.807298 -0.184671
C42   C     C_R   0.432086 0.411712 0.307298 -0.184670
C43   C     C_R   0.493195 0.919458 0.198247 -0.190894
C44   C     C_R   0.006805 0.080542 0.698247 -0.190893
C45   C     C_R   0.130951 0.654864 0.767692 0.541147
C46   C     C_R   0.369049 0.345135 0.267692 0.541147
C47   C     C_R   0.546576 0.850351 0.234492 0.577130
C48   C     C_R   0.953425 0.149649 0.734492 0.577131
C49   C     C_R   0.127342 0.641463 0.704763 -0.250862
C50   C     C_R   0.372658 0.358537 0.204763 -0.250863
C51   C     C_R   0.560507 0.860463 0.296765 -0.285522
C52   C     C_R   0.939493 0.139536 0.796765 -0.285522
C53   C     C_R   0.008028 0.434373 0.824707 0.329722
C54   C     C_R   0.491972 0.565627 0.324707 0.329722
C55   C     C_R   0.515003 0.073235 0.177136 0.350917
C56   C     C_R   0.984998 0.926765 0.677136 0.350918
C57   C     C_R   0.989752 0.534837 0.909197 0.271790
C58   C     C_R   0.510249 0.465163 0.409197 0.271791
C59   C     C_R   0.403356 0.972425 0.098921 0.265821
C60   C     C_R   0.096643 0.027575 0.598921 0.265821
C61   C     C_R   0.028653 0.554941 0.616429 -0.160278
C62   C     C_R   0.471347 0.445059 0.116429 -0.160279
C63   C     C_R   0.554303 0.949817 0.387364 -0.127013
C64   C     C_R   0.945697 0.050183 0.887364 -0.127013
H1    H     H_    0.840433 0.378150 0.724559 0.210565
H2    H     H_    0.659567 0.621850 0.224559 0.210566
H3    H     H_    0.548422 0.157141 0.290626 0.247737
H4    H     H_    0.951578 0.842859 0.790626 0.247737
H5    H     H_    0.792728 0.362676 0.616772 0.143960
H6    H     H_    0.707272 0.637324 0.116772 0.143960
H7    H     H_    0.583960 0.169087 0.395133 0.183158
H8    H     H_    0.916040 0.830913 0.895133 0.183158
H9    H     H_    0.165791 0.694816 0.675421 0.143610
H10   H     H_    0.334208 0.305184 0.175421 0.143610
H11   H     H_    0.591879 0.804437 0.323620 0.162071
H12   H     H_    0.908121 0.195563 0.823620 0.162071
O21   O     O_3   0.934439 0.556770 0.967212 -0.528138
C65   C     C_3   0.035833 0.515517 0.012726 -0.119258
H13   H     H_    0.166163 0.489030 0.996792 0.100521
H14   H     H_    0.952273 0.462170 0.033202 0.180131
H15   H     H_    0.067723 0.563001 0.049069 0.122659
O22   O     O_3   0.565561 0.443230 0.467212 -0.528138
C66   C     C_3   0.464167 0.484483 0.512726 -0.119258
H16   H     H_    0.333836 0.510969 0.496792 0.100521
H17   H     H_    0.547727 0.537830 0.533202 0.180130
H18   H     H_    0.432277 0.436999 0.549069 0.122659
O23   O     O_3   0.317459 0.957072 0.043733 -0.541426
C67   C     C_3   0.437689 0.973489 0.994587 -0.211040
H19   H     H_    0.584475 0.981337 0.007442 0.149539
H20   H     H_    0.395016 0.032289 0.970270 0.168405
H21   H     H_    0.425494 0.918890 0.962224 0.123915
O24   O     O_3   0.182540 0.042928 0.543732 -0.541426
C68   C     C_3   0.062310 0.026511 0.494587 -0.211040
H22   H     H_    0.915525 0.018663 0.507443 0.149539
H23   H     H_    0.104984 0.967711 0.470269 0.168405
H24   H     H_    0.074505 0.081110 0.462224 0.123915
O25   O     O_3   0.185011 0.734745 0.791006 -0.532433
C69   C     C_3   0.362401 0.759453 0.770938 -0.274122
H25   H     H_    0.355374 0.790146 0.725674 0.142930
H26   H     H_    0.457849 0.704469 0.770626 0.120543
H27   H     H_    0.420097 0.808752 0.802590 0.163907
O26   O     O_3   0.314989 0.265255 0.291006 -0.532434
C70   C     C_3   0.137600 0.240546 0.270938 -0.274122
H28   H     H_    0.144627 0.209853 0.225675 0.142930
H29   H     H_    0.042151 0.295531 0.270626 0.120544
H30   H     H_    0.079903 0.191248 0.302591 0.163907
O27   O     O_3   0.611350 0.776764 0.207685 -0.532380
C71   C     C_3   0.805302 0.778974 0.213010 -0.303609
H31   H     H_    0.847275 0.759357 0.259219 0.146443
H32   H     H_    0.868070 0.843592 0.201862 0.142482
H33   H     H_    0.863515 0.732208 0.180948 0.152751
O28   O     O_3   0.888650 0.223236 0.707685 -0.532380
C72   C     C_3   0.694698 0.221025 0.713009 -0.303609
H34   H     H_    0.652725 0.240642 0.759219 0.146443
H35   H     H_    0.631931 0.156407 0.701861 0.142482
H36   H     H_    0.636485 0.267792 0.680948 0.152750
O29   O     O_3   0.043356 0.686864 0.891922 -0.527550
C73   C     C_3   0.209360 0.705496 0.922598 -0.193256
H37   H     H_    0.331489 0.682357 0.897952 0.128950
H38   H     H_    0.202663 0.679852 0.969291 0.132679
H39   H     H_    0.229000 0.776566 0.925692 0.142907
O30   O     O_3   0.456644 0.313136 0.391922 -0.527550
C74   C     C_3   0.290640 0.294504 0.422598 -0.193257
H40   H     H_    0.168512 0.317643 0.397952 0.128950
H41   H     H_    0.297337 0.320148 0.469291 0.132679
H42   H     H_    0.271000 0.223434 0.425692 0.142907
O31   O     O_3   0.343557 0.822850 0.127179 -0.530424
C75   C     C_3   0.438020 0.780364 0.080785 -0.148676
H43   H     H_    0.589106 0.784548 0.086705 0.134052
H44   H     H_    0.398106 0.804000 0.035623 0.133810
H45   H     H_    0.396514 0.711036 0.082345 0.135659
O32   O     O_3   0.156443 0.177149 0.627179 -0.530424
C76   C     C_3   0.061979 0.219636 0.580784 -0.148678
H46   H     H_    0.910893 0.215451 0.586704 0.134053
H47   H     H_    0.101895 0.196000 0.535623 0.133811
H48   H     H_    0.103485 0.288964 0.582345 0.135660
O33   O     O_3   0.032327 0.350118 0.806032 -0.558567
C77   C     C_3   0.221560 0.338015 0.796790 -0.181047
H49   H     H_    0.243095 0.268706 0.787321 0.156668
H50   H     H_    0.303625 0.355436 0.837720 0.123296
H51   H     H_    0.273244 0.375324 0.757035 0.142007
O34   O     O_3   0.467673 0.649882 0.306032 -0.558567
C78   C     C_3   0.278440 0.661985 0.296790 -0.181045
H52   H     H_    0.256906 0.731293 0.287321 0.156668
H53   H     H_    0.196374 0.644564 0.337720 0.123296
H54   H     H_    0.226757 0.624676 0.257035 0.142007
O35   O     O_3   0.576044 0.156371 0.190276 -0.562252
C79   C     C_3   0.769427 0.159631 0.187315 -0.260950
H55   H     H_    0.821948 0.134241 0.143738 0.163520
H56   H     H_    0.830177 0.123464 0.225443 0.126634
H57   H     H_    0.816464 0.228203 0.190840 0.155334
O36   O     O_3   0.923958 0.843629 0.690276 -0.562252
C80   C     C_3   0.730574 0.840369 0.687315 -0.260951
H58   H     H_    0.678053 0.865758 0.643738 0.163520
H59   H     H_    0.669824 0.876536 0.725443 0.126633
H60   H     H_    0.683538 0.771796 0.690841 0.155335
O37   O     O_3   0.866572 0.479848 0.536026 -0.537211
C81   C     C_3   0.978120 0.433155 0.496450 0.137113
H61   H     H_    0.905217 0.371708 0.483959 0.150232
H62   H     H_    0.111504 0.415521 0.516346 0.037019
C82   C     C_3   0.010316 0.487064 0.439355 -0.658613
H63   H     H_    0.054441 0.554102 0.451317 0.223045
H64   H     H_    0.117600 0.459203 0.410757 0.133048
H65   H     H_    0.883195 0.489529 0.412255 0.227278
O38   O     O_3   0.633428 0.520152 0.036026 -0.537211
C83   C     C_3   0.521880 0.566845 0.996450 0.137112
H66   H     H_    0.594783 0.628292 0.983959 0.150232
H67   H     H_    0.388496 0.584479 0.016346 0.037019
C84   C     C_3   0.489684 0.512936 0.939355 -0.658615
H68   H     H_    0.445560 0.445898 0.951317 0.223045
H69   H     H_    0.382400 0.540797 0.910756 0.133048
H70   H     H_    0.616805 0.510471 0.912255 0.227279
O39   O     O_3   0.576614 0.033489 0.478029 -0.559277
C85   C     C_3   0.582158 0.116956 0.503652 0.133749
H71   H     H_    0.454561 0.151164 0.492890 0.159954
H72   H     H_    0.705376 0.154723 0.487955 0.085330
C86   C     C_3   0.595063 0.109240 0.572035 -0.645246
H73   H     H_    0.728567 0.082687 0.585111 0.170614
H74   H     H_    0.581003 0.174097 0.592464 0.178834
H75   H     H_    0.486127 0.065359 0.590232 0.265408
O40   O     O_3   0.923385 0.966511 0.978029 -0.559277
C87   C     C_3   0.917842 0.883043 0.003653 0.133748
H76   H     H_    0.045440 0.848836 0.992891 0.159954
H77   H     H_    0.794624 0.845277 0.987955 0.085331
C88   C     C_3   0.904937 0.890760 0.072035 -0.645246
H78   H     H_    0.771432 0.917313 0.085111 0.170614
H79   H     H_    0.918997 0.825903 0.092464 0.178835
H80   H     H_    0.013872 0.934641 0.090232 0.265407

loop_
_geom_bond_atom_site_label_1
_geom_bond_atom_site_label_2
_ccdc_geom_bond_type
O17   V3    S    
O35   C79   S    
C5    C63   S    
O1    C5    A    
O21   C65   S    
C31   C35   A    
O19   V1    S    
C66   H17   S    
C86   H73   S    
C16   C60   A    
O3    C7    A    
C74   H40   S    
C18   O38   S    
C48   C52   A    
C21   H5    S    
C10   C42   A    
C67   H20   S    
O33   C77   S    
C36   C64   A    
C46   C50   A    
C9    C41   A    
C78   H53   S    
C39   C55   A    
O37   C81   S    
O7    C3    A    
C72   H35   S    
C12   O32   S    
C76   H46   S    
O26   C70   S    
C2    C13   S    
C40   C44   A    
O9    V1    S    
O32   C76   S    
C74   H41   S    
C12   C60   A    
C77   H49   S    
C68   H23   S    
C30   C34   A    
O4    C8    A    
C87   H77   S    
C82   H64   S    
O22   C66   S    
C33   C49   A    
O1    V3    S    
C88   H80   S    
O13   V1    S    
O24   C68   S    
C65   H15   S    
O2    V4    S    
C18   C22   A    
C55   O35   S    
O3    V1    S    
C81   H61   S    
C1    C14   S    
C83   C84   S    
C27   H3    S    
C40   C56   A    
C29   C37   A    
C1    O15   A    
C57   O21   S    
O23   C67   S    
C37   C53   A    
C71   H31   S    
C80   H59   S    
C31   C39   A    
O12   C8    A    
O2    C6    A    
C83   H67   S    
O31   C75   S    
C16   C56   A    
C45   C49   A    
C85   H71   S    
C18   C62   A    
C45   O25   S    
C19   C23   A    
C77   H50   S    
C79   H57   S    
C44   C48   A    
C46   O26   S    
O11   C7    A    
O15   V3    S    
C76   H47   S    
C14   C58   A    
C86   H74   S    
C73   H39   S    
C13   C57   A    
C3    C16   S    
C11   O31   S    
O10   V2    S    
C34   C62   A    
C67   H19   S    
C26   H2    S    
C78   H54   S    
O5    V1    S    
C53   O33   S    
C72   H36   S    
C39   C43   A    
C54   O34   S    
O7    V3    S    
C38   C42   A    
C28   C32   A    
C65   H13   S    
O8    V4    S    
C74   H42   S    
C56   O36   S    
C50   H10   S    
C32   C40   A    
C68   H24   S    
C2    O16   A    
C78   H52   S    
C11   C59   A    
C87   H76   S    
C82   H65   S    
C23   C27   A    
C14   C54   A    
C27   C31   A    
C84   H69   S    
O40   C87   S    
C13   C53   A    
C36   C52   A    
C32   C36   A    
C81   C82   S    
C15   C55   A    
C49   H9    S    
C70   H29   S    
C83   H66   S    
O5    C1    A    
C88   H79   S    
C77   H51   S    
C22   H6    S    
C75   H45   S    
C21   C25   A    
O8    C4    A    
C80   H60   S    
C85   C86   S    
C51   H11   S    
C88   H78   S    
O9    C5    A    
C19   O39   S    
C26   C30   A    
C65   H14   S    
C17   O37   S    
O25   C69   S    
O14   V2    S    
C71   H32   S    
O36   C80   S    
O6    V2    S    
C75   H44   S    
C80   H58   S    
C76   H48   S    
C6    C64   S    
O34   C78   S    
C86   H75   S    
C59   O23   S    
C28   H4    S    
C52   H12   S    
C66   H16   S    
C69   H26   S    
O27   C71   S    
C35   C51   A    
C73   H38   S    
C79   H55   S    
C34   C50   A    
O30   C74   S    
O16   V4    S    
O38   C83   S    
C3    O13   A    
C29   C33   A    
C24   H8    S    
C81   H62   S    
C38   C54   A    
C25   H1    S    
O28   C72   S    
O6    C2    A    
C12   C44   A    
O11   V3    S    
C70   H28   S    
O18   V4    S    
O12   V4    S    
C17   C61   A    
C72   H34   S    
C22   C26   A    
C68   H22   S    
C66   H18   S    
C9    O29   S    
O10   C6    A    
C69   H27   S    
O20   V2    S    
C70   H30   S    
C19   C63   A    
C17   C21   A    
O29   C73   S    
C84   H70   S    
C47   C51   A    
C10   O30   S    
C87   C88   S    
C82   H63   S    
C42   C46   A    
C8    C62   S    
C4    C15   S    
C71   H33   S    
C41   C45   A    
C20   O40   S    
C79   H56   S    
C33   C61   A    
C43   C47   A    
C58   O22   S    
O39   C85   S    
C35   C63   A    
C25   C29   A    
C48   O28   S    
C11   C43   A    
C15   C59   A    
C37   C41   A    
C24   C28   A    
C75   H43   S    
C47   O27   S    
C60   O24   S    
C84   H68   S    
C7    C61   S    
C4    O14   A    
C23   H7    S    
C73   H37   S    
C30   C38   A    
C85   H72   S    
C10   C58   A    
C69   H25   S    
C20   C64   A    
C9    C57   A    
C67   H21   S    
O4    V2    S    
C20   C24   A    
