data_mof_unit_986.cif
_audit_creation_date              2012-12-11T15:18:40-0500
_audit_creation_method            fapswitch 2.2
_symmetry_space_group_name_H-M    P1
_symmetry_Int_Tables_number       1
_space_group_crystal_system       triclinic
_cell_length_a                    6.944529
_cell_length_b                    19.9224
_cell_length_c                    23.789933
_cell_angle_alpha                 93.592623
_cell_angle_beta                  91.303063
_cell_angle_gamma                 88.556486
_cell_volume                      3283.12785361

loop_
_atom_site_label
_atom_site_type_symbol
_atom_type_description
_atom_site_fract_x
_atom_site_fract_y
_atom_site_fract_z
_atom_type_partial_charge
O1    O     O_R   0.620100 0.812200 0.810870 -0.541484
O2    O     O_R   0.379900 0.187800 0.189130 -0.541483
O3    O     O_R   0.296960 0.671650 0.794750 -0.539190
O4    O     O_R   0.703040 0.328350 0.205250 -0.539191
O5    O     O_R   0.120160 0.687800 0.689130 -0.540787
O6    O     O_R   0.879840 0.312200 0.310870 -0.540787
C1    C     C_R   0.468770 0.647052 0.804606 0.694512
C2    C     C_R   0.531230 0.352948 0.195394 0.694512
O7    O     O_R   0.290810 0.810670 0.817290 -0.539728
O8    O     O_R   0.709190 0.189330 0.182710 -0.539728
O9    O     O_R   0.113980 0.827820 0.711840 -0.534455
O10   O     O_R   0.886020 0.172180 0.288160 -0.534455
C3    C     C_R   0.459505 0.832031 0.834134 0.710528
C4    C     C_R   0.540495 0.167969 0.165866 0.710528
O11   O     O_R   0.626290 0.672180 0.788160 -0.536394
O12   O     O_R   0.373710 0.327820 0.211840 -0.536394
O13   O     O_3   0.451520 0.755460 0.715370 -0.369636
O14   O     O_3   0.548480 0.244540 0.284630 -0.369636
V1    V     V_3+5 0.179200 0.748980 0.756420 1.421094
V2    V     V_3+5 0.820800 0.251020 0.243580 1.421094
O15   O     O_R   0.783880 0.828350 0.705250 -0.538864
O16   O     O_R   0.216120 0.171650 0.294750 -0.538864
C5    C     C_R   0.949761 0.852642 0.694811 0.699187
C6    C     C_R   0.050239 0.147358 0.305189 0.699187
O17   O     O_R   0.790030 0.689320 0.682700 -0.544046
O18   O     O_R   0.209970 0.310680 0.317300 -0.544046
C7    C     C_R   0.958978 0.668203 0.665653 0.704873
C8    C     C_R   0.041022 0.331797 0.334346 0.704873
V3    V     V_3+5 0.678400 0.751010 0.743570 1.416139
V4    V     V_3+5 0.321600 0.248990 0.256430 1.416139
O19   O     O_3   0.955950 0.744540 0.784620 -0.367382
O20   O     O_3   0.044050 0.255460 0.215380 -0.367382
C9    C     C_R   0.181315 0.425834 0.396407 -0.222327
C10   C     C_R   0.818685 0.574166 0.603593 -0.222327
C11   C     C_R   0.030868 0.380823 0.383969 -0.082128
C12   C     C_R   0.969132 0.619177 0.616031 -0.082128
C13   C     C_R   0.868453 0.383739 0.418542 -0.223578
C14   C     C_R   0.131547 0.616261 0.581458 -0.223578
C15   C     C_R   0.856298 0.430444 0.465188 0.089792
C16   C     C_R   0.143702 0.569556 0.534812 0.089792
C17   C     C_R   0.006346 0.476062 0.476817 0.052838
C18   C     C_R   0.993653 0.523938 0.523183 0.052838
C19   C     C_R   0.168913 0.473958 0.442109 0.090836
C20   C     C_R   0.831086 0.526042 0.557891 0.090836
C21   C     C_R   0.696603 0.432402 0.500445 -0.192354
C22   C     C_R   0.303397 0.567598 0.499555 -0.192354
C23   C     C_R   0.684295 0.479670 0.546411 -0.184399
C24   C     C_R   0.315705 0.520330 0.453589 -0.184399
H1    H     H_    0.306261 0.424342 0.369798 0.121120
H2    H     H_    0.693739 0.575658 0.630202 0.121120
H3    H     H_    0.752214 0.349101 0.409486 0.126042
H4    H     H_    0.247786 0.650899 0.590514 0.126042
H5    H     H_    0.580328 0.397616 0.492260 0.133434
H6    H     H_    0.419672 0.602384 0.507740 0.133434
H7    H     H_    0.559012 0.480241 0.572788 0.134689
H8    H     H_    0.440988 0.519759 0.427212 0.134689
C25   C     C_R   0.947801 0.914091 0.663177 -0.047345
C26   C     C_R   0.052199 0.085909 0.336823 -0.047345
C27   C     C_R   0.863913 0.032270 0.659597 -0.159204
C28   C     C_R   0.136087 0.967730 0.340402 -0.159204
C29   C     C_R   0.881878 0.974590 0.689566 -0.159165
C30   C     C_R   0.118122 0.025410 0.310434 -0.159165
C31   C     C_R   0.995167 0.911566 0.605827 -0.215735
C32   C     C_R   0.004833 0.088434 0.394173 -0.215734
C33   C     C_R   0.974270 0.969650 0.573761 0.087014
C34   C     C_R   0.025730 0.030350 0.426239 0.087014
C35   C     C_R   0.907823 0.030311 0.602202 0.137014
C36   C     C_R   0.092177 0.969689 0.397798 0.137014
C37   C     C_R   0.013828 0.969670 0.514640 0.058113
C38   C     C_R   0.986172 0.030330 0.485359 0.058113
C39   C     C_R   0.920584 0.088928 0.516221 -0.187106
C40   C     C_R   0.079416 0.911072 0.483779 -0.187106
C41   C     C_R   0.882865 0.088733 0.573259 -0.199939
C42   C     C_R   0.117134 0.911266 0.426741 -0.199939
H9    H     H_    0.832051 0.135073 0.594978 0.123822
H10   H     H_    0.167949 0.864927 0.405022 0.123822
H11   H     H_    0.957623 0.136676 0.412538 0.094229
H12   H     H_    0.042377 0.863324 0.587462 0.094229
H13   H     H_    0.157249 0.022996 0.266499 0.120000
H14   H     H_    0.842751 0.977004 0.733501 0.120000
H15   H     H_    0.812371 0.078530 0.681245 0.117216
H16   H     H_    0.187629 0.921470 0.318755 0.117216
H17   H     H_    0.896002 0.136262 0.497484 0.123144
H18   H     H_    0.103998 0.863738 0.502516 0.123144
C43   C     C_R   0.489895 0.585655 0.835850 -0.044092
C44   C     C_R   0.510105 0.414345 0.164150 -0.044092
C45   C     C_R   0.604495 0.470282 0.838112 -0.161910
C46   C     C_R   0.395505 0.529718 0.161888 -0.161910
C47   C     C_R   0.565196 0.527149 0.808401 -0.165939
C48   C     C_R   0.434803 0.472851 0.191599 -0.165939
C49   C     C_R   0.454724 0.587082 0.893880 -0.215749
C50   C     C_R   0.545276 0.412918 0.106120 -0.215749
C51   C     C_R   0.498654 0.530116 0.925688 0.085827
C52   C     C_R   0.501346 0.469884 0.074312 0.085827
C53   C     C_R   0.573903 0.471379 0.896263 0.139122
C54   C     C_R   0.426096 0.528621 0.103737 0.139122
C55   C     C_R   0.474339 0.529625 0.985493 0.057681
C56   C     C_R   0.525660 0.470375 0.014507 0.057681
C57   C     C_R   0.598634 0.413554 0.982713 -0.187448
C58   C     C_R   0.401366 0.586446 0.017287 -0.187448
C59   C     C_R   0.621510 0.414203 0.924973 -0.200659
C60   C     C_R   0.378490 0.585797 0.075027 -0.200659
H19   H     H_    0.679032 0.369329 0.902523 0.124209
H20   H     H_    0.320968 0.630671 0.097477 0.124209
H21   H     H_    0.600089 0.366026 0.087078 0.095397
H22   H     H_    0.399911 0.633974 0.912922 0.095397
H23   H     H_    0.404604 0.474234 0.236157 0.105429
H24   H     H_    0.595396 0.525766 0.763842 0.105429
H25   H     H_    0.662905 0.425562 0.815685 0.114143
H26   H     H_    0.337095 0.574438 0.184315 0.114143
H27   H     H_    0.640683 0.367328 0.001187 0.122970
H28   H     H_    0.359317 0.632672 0.998813 0.122970
C61   C     C_R   0.368947 0.076631 0.109013 -0.179595
C62   C     C_R   0.631052 0.923369 0.890987 -0.179595
C63   C     C_R   0.529260 0.118331 0.116683 -0.122292
C64   C     C_R   0.470740 0.881668 0.883317 -0.122291
C65   C     C_R   0.677644 0.112171 0.077373 -0.152262
C66   C     C_R   0.322356 0.887829 0.922627 -0.152263
C67   C     C_R   0.665730 0.065715 0.030556 0.087421
C68   C     C_R   0.334270 0.934285 0.969444 0.087421
C69   C     C_R   0.505383 0.023619 0.023390 -0.031070
C70   C     C_R   0.494617 0.976381 0.976610 -0.031070
C71   C     C_R   0.356046 0.028771 0.063012 0.072406
C72   C     C_R   0.643954 0.971229 0.936988 0.072406
C73   C     C_R   0.812114 0.060880 0.990797 -0.256790
C74   C     C_R   0.187885 0.939119 0.009203 -0.256790
C75   C     C_R   0.802900 0.013970 0.943973 0.325278
C76   C     C_R   0.197100 0.986030 0.056027 0.325278
H29   H     H_    0.255194 0.081012 0.139552 0.169415
H30   H     H_    0.744806 0.918988 0.860448 0.169415
H31   H     H_    0.801472 0.144205 0.082790 0.127330
H32   H     H_    0.198528 0.855795 0.917210 0.127331
H33   H     H_    0.934689 0.093460 0.996362 0.123432
H34   H     H_    0.065311 0.906540 0.003638 0.123432
O21   O     O_3   0.947412 0.009114 0.904809 -0.654358
H35   H     H_    0.048328 0.041899 0.916222 0.291714
O22   O     O_3   0.052588 0.990886 0.095191 -0.654358
H36   H     H_    0.951672 0.958101 0.083778 0.291714

loop_
_geom_bond_atom_site_label_1
_geom_bond_atom_site_label_2
_ccdc_geom_bond_type
C26   C30   A    
C34   C36   A    
C46   C54   A    
C54   C60   A    
C17   C19   A    
C17   C18   A    
O4    C2    A    
V1    O19   S    
C2    C44   S    
C31   C33   A    
C55   C56   A    
C43   C49   A    
O21   H35   S    
C15   C17   A    
C34   C38   A    
C16   C22   A    
O9    V1    S    
C61   H29   S    
C11   C13   A    
C75   O21   S    
C48   H23   S    
O3    C1    A    
C65   C67   A    
C13   H3    S    
C68   C74   A    
C14   H4    S    
C52   C56   A    
C29   H14   S    
C36   C42   A    
C4    C63   S    
O13   V3    S    
C28   C30   A    
C32   H11   S    
C25   C29   A    
O7    C3    A    
C27   C35   A    
O5    C7    A    
C28   H16   S    
O7    V1    S    
O6    C8    A    
C8    C11   S    
O8    V2    S    
C33   C35   A    
C45   C53   A    
O3    V1    S    
C38   C39   A    
C35   C41   A    
V4    O20   S    
C19   C24   A    
C10   C12   A    
C20   C23   A    
C15   C21   A    
C62   C72   A    
C16   C18   A    
C21   H5    S    
C2    O12   A    
O17   V3    S    
C62   H30   S    
C49   H22   S    
C22   H6    S    
C18   C20   A    
O2    C4    A    
C50   C52   A    
C68   C70   A    
C45   H25   S    
O11   V3    S    
C39   H17   S    
C21   C23   A    
C26   C32   A    
C22   C24   A    
C27   C29   A    
C10   H2    S    
C9    C19   A    
C30   H13   S    
C10   C20   A    
C40   C42   A    
C44   C48   A    
C39   C41   A    
C43   C47   A    
C1    O11   A    
C63   C65   A    
O15   V3    S    
C32   C34   A    
C37   C40   A    
C52   C54   A    
C76   O22   S    
C49   C51   A    
C61   C71   A    
V3    O19   S    
C57   H27   S    
O10   V2    S    
C5    C25   S    
O1    V3    S    
C60   H20   S    
C74   H34   S    
C69   C70   A    
C40   H18   S    
C67   C69   A    
C42   H10   S    
C72   C75   A    
O14   V4    S    
C67   C73   A    
C6    C26   S    
C57   C59   A    
C46   C48   A    
O18   V4    S    
O15   C5    A    
O8    C4    A    
O16   C6    A    
O1    C3    A    
C41   H9    S    
O12   V4    S    
C70   C72   A    
C51   C55   A    
C55   C58   A    
C23   H7    S    
C58   C60   A    
V2    O20   S    
C73   H33   S    
C24   H8    S    
C74   C76   A    
O16   V4    S    
C27   H15   S    
C25   C31   A    
C62   C64   A    
C58   H28   S    
O5    V1    S    
C7    C12   S    
O17   C7    A    
O6    V2    S    
O22   H36   S    
O10   C6    A    
O18   C8    A    
C59   H19   S    
O2    V4    S    
C12   C14   A    
C46   H26   S    
C13   C15   A    
C44   C50   A    
C14   C16   A    
C9    C11   A    
C71   C76   A    
C1    C43   S    
C33   C37   A    
C47   H24   S    
O9    C5    A    
O13   V1    S    
C64   C66   A    
O14   V2    S    
C37   C38   A    
C65   H31   S    
C66   C68   A    
C69   C71   A    
C3    C64   S    
C66   H32   S    
O4    V2    S    
C50   H21   S    
C28   C36   A    
C51   C53   A    
C56   C57   A    
C73   C75   A    
C45   C47   A    
C9    H1    S    
C53   C59   A    
C61   C63   A    
C31   H12   S    
