data_mof_unit_2348.cif
_audit_creation_date              2012-12-10T18:21:19-0500
_audit_creation_method            fapswitch 2.2
_symmetry_space_group_name_H-M    P1
_symmetry_Int_Tables_number       1
_space_group_crystal_system       triclinic
_cell_length_a                    9.433813
_cell_length_b                    10.616634
_cell_length_c                    17.197991
_cell_angle_alpha                 89.892618
_cell_angle_beta                  86.619225
_cell_angle_gamma                 89.739858
_cell_volume                      1719.45301878

loop_
_atom_site_label
_atom_site_type_symbol
_atom_type_description
_atom_site_fract_x
_atom_site_fract_y
_atom_site_fract_z
_atom_type_partial_charge
C1    C     C_R   0.499649 0.740549 0.499972 0.781335
C2    C     C_3   0.572951 0.957790 0.435749 -0.167967
C3    C     C_3   0.951397 0.388161 0.485758 -0.145476
C4    C     C_3   0.048632 0.611789 0.514273 -0.136398
C5    C     C_3   0.044110 0.425130 0.552058 0.132610
C6    C     C_3   0.955995 0.574871 0.447969 0.133114
C7    C     C_3   0.058233 0.464014 0.432968 -0.033672
C8    C     C_3   0.941810 0.535970 0.567034 -0.032949
C9    C     C_R   0.482393 0.494931 0.649703 0.805835
C10   C     C_R   0.517570 0.502837 0.349872 0.822029
C11   C     C_R   0.476996 0.473106 0.733362 -0.078382
C12   C     C_R   0.500351 0.259461 0.500039 0.780643
C13   C     C_R   0.523165 0.511985 0.264689 -0.091111
C14   C     C_R   0.582065 0.397035 0.764200 -0.273763
C15   C     C_R   0.396377 0.528675 0.226707 -0.308365
C16   C     C_R   0.583589 0.377724 0.844341 0.458648
C17   C     C_R   0.397397 0.533817 0.144856 0.523134
C18   C     C_R   0.477982 0.434096 0.893516 -0.047018
C19   C     C_R   0.529689 0.528015 0.102721 0.182166
C20   C     C_R   0.370840 0.507576 0.862650 -0.236085
C21   C     C_R   0.656352 0.516049 0.140541 -0.159291
C22   C     C_R   0.369244 0.525820 0.782511 -0.162612
C23   C     C_3   0.364955 0.960144 0.500521 -0.141132
C24   C     C_R   0.653115 0.506737 0.221162 -0.168794
C25   C     C_2   0.488154 0.426679 0.977983 -0.062260
C26   C     C_2   0.535415 0.527979 0.017316 -0.049127
C27   C     C_2   0.590381 0.643671 0.976668 0.340562
C28   C     C_2   0.449997 0.303016 0.014586 0.432302
C29   C     C_3   0.147746 0.505846 0.139406 0.046717
C30   C     C_3   0.147146 0.361967 0.150230 -0.370512
C31   C     C_3   0.004367 0.316487 0.185631 -0.888646
C32   C     C_3   0.814603 0.364636 0.875077 0.041553
C33   C     C_3   0.919363 0.285371 0.919002 -0.280471
C34   C     C_3   0.635047 0.039903 0.499503 -0.140595
C35   C     C_3   0.063845 0.348944 0.919665 -0.913527
C36   C     C_2   0.097678 0.337010 0.611747 0.374845
C37   C     C_2   0.903363 0.663989 0.388596 0.365329
C38   C     C_3   0.439206 0.042646 0.436278 -0.153497
C39   C     C_3   0.560798 0.957403 0.563746 -0.162202
C40   C     C_3   0.501165 0.122474 0.500033 0.020707
C41   C     C_3   0.498839 0.877562 0.499990 0.019567
C42   C     C_3   0.427055 0.042260 0.564276 -0.175866
Cu1   Cu    Cu3+1 0.356850 0.500010 0.499980 0.944683
Cu2   Cu    Cu3+1 0.643150 0.499990 0.500020 0.938034
H1    H     H_    0.662805 0.352226 0.726094 0.164933
H2    H     H_    0.757297 0.511229 0.107185 0.140061
H3    H     H_    0.389563 0.080756 0.384167 0.139086
H4    H     H_    0.610443 0.919331 0.615864 0.133306
H5    H     H_    0.254256 0.924979 0.500925 0.130197
H6    H     H_    0.745740 0.075085 0.499099 0.129692
H7    H     H_    0.367584 0.080039 0.616849 0.134613
H8    H     H_    0.632453 0.920057 0.383174 0.139737
H9    H     H_    0.604950 0.647526 0.913683 0.076897
H10   H     H_    0.394156 0.234149 0.981421 0.077232
H11   H     H_    0.061953 0.529741 0.100255 0.176788
H12   H     H_    0.298171 0.537367 0.261638 0.163054
H13   H     H_    0.118570 0.557208 0.194160 0.181605
H14   H     H_    0.168531 0.315938 0.092808 0.233410
H15   H     H_    0.231035 0.332160 0.189043 0.235919
H16   H     H_    0.980215 0.361649 0.243144 0.257246
H17   H     H_    0.008107 0.212829 0.194008 0.267763
H18   H     H_    0.918678 0.338862 0.146198 0.258652
H19   H     H_    0.801148 0.457486 0.904967 0.123602
H20   H     H_    0.859045 0.379637 0.814321 0.181782
H21   H     H_    0.876754 0.271071 0.980052 0.229379
H22   H     H_    0.932591 0.191672 0.890657 0.237401
H23   H     H_    0.906466 0.294044 0.474199 0.125513
H24   H     H_    0.107970 0.364418 0.859113 0.292533
H25   H     H_    0.138302 0.287673 0.950224 0.245760
H26   H     H_    0.054196 0.440692 0.950524 0.252897
H27   H     H_    0.159278 0.254682 0.593557 0.066643
H28   H     H_    0.837857 0.743937 0.406858 0.075368
H29   H     H_    0.093592 0.705907 0.525801 0.123435
H30   H     H_    0.111383 0.434305 0.376605 0.133045
H31   H     H_    0.888611 0.565601 0.623391 0.138326
H32   H     H_    0.751895 0.494876 0.249297 0.196467
H33   H     H_    0.287005 0.583828 0.759194 0.163857
H34   H     H_    0.290658 0.552685 0.900892 0.182153
N1    N     N_3   0.141720 0.500030 0.499940 -0.188489
N2    N     N_3   0.858280 0.499970 0.500060 -0.190800
O1    O     O_R   0.379130 0.683150 0.499960 -0.582721
O2    O     O_2   0.484225 0.274337 0.079667 -0.561857
O3    O     O_3   0.276376 0.550061 0.102446 -0.627173
O4    O     O_3   0.684327 0.299815 0.874858 -0.609260
O5    O     O_2   0.071207 0.356638 0.680967 -0.588640
O6    O     O_2   0.935781 0.648370 0.319573 -0.596381
O7    O     O_R   0.620870 0.316850 0.500040 -0.584124
O8    O     O_R   0.620910 0.683140 0.500000 -0.604085
O9    O     O_R   0.379090 0.316860 0.500000 -0.603368
O10   O     O_R   0.365090 0.500030 0.613580 -0.565500
O11   O     O_R   0.634910 0.499970 0.386420 -0.575876
O12   O     O_R   0.606870 0.500020 0.613610 -0.589975
O13   O     O_R   0.393130 0.499980 0.386390 -0.587744
O14   O     O_2   0.621089 0.736606 0.013778 -0.516453

loop_
_geom_bond_atom_site_label_1
_geom_bond_atom_site_label_2
_ccdc_geom_bond_type
C31   H17   S    
C4    C8    S    
C33   H21   S    
C39   C41   S    
C25   C28   S    
C26   C27   S    
Cu1   O9    S    
C23   C42   S    
C34   C40   S    
C19   C21   A    
C29   O3    S    
C3    C7    S    
C30   C31   S    
C33   C35   S    
C11   C14   A    
C23   H5    S    
C2    C41   S    
C1    O1    A    
C5    C36   S    
C16   O4    S    
C19   C26   S    
C39   C42   S    
Cu1   O13   S    
C35   H26   S    
C7    H30   S    
Cu2   O7    S    
Cu2   O12   S    
C36   H27   S    
C42   H7    S    
C2    C34   S    
C1    O8    A    
C40   C42   S    
C31   H18   S    
C18   C25   S    
C3    N2    S    
C9    O12   A    
C33   H22   S    
C14   H1    S    
C32   O4    S    
C34   H6    S    
Cu1   O10   S    
C28   O2    D    
C34   C39   S    
C12   O9    A    
Cu2   N2    S    
C32   H20   S    
C4    N1    S    
C4    C6    S    
C28   H10   S    
C24   H32   S    
C37   O6    D    
C29   H11   S    
C10   O13   A    
C25   C26   D    
C8    H31   S    
C13   C24   A    
C17   O3    S    
C31   H16   S    
C12   C40   S    
Cu1   Cu2   S    
C29   C30   S    
C2    C38   S    
C6    N2    S    
C30   H15   S    
C38   H3    S    
C6    C37   S    
C9    C11   S    
C4    H29   S    
Cu2   O11   S    
C2    H8    S    
C1    C41   S    
C20   C22   A    
C10   O11   A    
C13   C15   A    
Cu1   O1    S    
C14   C16   A    
C21   C24   A    
C5    N1    S    
C7    N1    S    
C21   H2    S    
C15   C17   A    
C12   O7    A    
C3    H23   S    
C22   H33   S    
C29   H13   S    
C3    C5    S    
C10   C13   S    
C9    O10   A    
C5    C8    S    
C27   H9    S    
C6    C7    S    
C36   O5    D    
C32   H19   S    
C23   C38   S    
C11   C22   A    
C23   C41   S    
C20   H34   S    
C15   H12   S    
C32   C33   S    
C38   C40   S    
C35   H24   S    
C30   H14   S    
C17   C19   A    
C18   C20   A    
C35   H25   S    
C16   C18   A    
C37   H28   S    
C8    N2    S    
C27   O14   D    
Cu2   O8    S    
Cu1   N1    S    
C39   H4    S    
