data_mof_unit_915.cif
_audit_creation_date              2012-12-10T20:27:55-0500
_audit_creation_method            fapswitch 2.2
_symmetry_space_group_name_H-M    P1
_symmetry_Int_Tables_number       1
_space_group_crystal_system       triclinic
_cell_length_a                    12.759066
_cell_length_b                    10.644668
_cell_length_c                    9.91837
_cell_angle_alpha                 89.642605
_cell_angle_beta                  98.802981
_cell_angle_gamma                 89.80824
_cell_volume                      1331.16708496

loop_
_atom_site_label
_atom_site_type_symbol
_atom_type_description
_atom_site_fract_x
_atom_site_fract_y
_atom_site_fract_z
_atom_type_partial_charge
C1    C     C_R   0.508217 0.260401 0.502067 0.890429
C2    C     C_R   0.024983 0.565228 0.528323 0.068808
C3    C     C_R   0.976430 0.451446 0.476785 0.032215
C4    C     C_R   0.871983 0.426124 0.494516 0.313153
C5    C     C_R   0.861417 0.630868 0.603510 0.094514
C6    C     C_R   0.967584 0.650955 0.595720 -0.221332
C7    C     C_R   0.516990 0.063367 0.627228 0.092824
C8    C     C_R   0.532445 0.129276 0.509852 -0.264419
C9    C     C_R   0.568588 0.063785 0.401262 0.437857
C10   C     C_R   0.559492 0.933855 0.398477 -0.225449
C11   C     C_R   0.521321 0.871407 0.505626 -0.204106
C12   C     C_R   0.298334 0.499674 0.471405 0.877752
C13   C     C_R   0.511430 0.935553 0.624500 0.097277
C14   C     C_3   0.425721 0.930334 0.711395 -0.468748
C15   C     C_3   0.431468 0.072907 0.715482 -0.028974
C16   C     C_R   0.413407 0.539448 0.053610 0.167883
C17   C     C_R   0.586110 0.459951 0.090311 -0.092742
C18   C     C_R   0.586204 0.457185 0.947138 0.179890
C19   C     C_R   0.414517 0.543652 0.911465 0.132103
C20   C     C_3   0.304643 0.492750 0.881225 -0.472801
C21   C     C_3   0.304985 0.481811 0.034052 -0.072475
C22   C     C_R   0.502740 0.740046 0.500323 0.889012
C23   C     C_R   0.701560 0.504781 0.528581 0.966679
C24   C     C_R   0.814045 0.519115 0.548984 -0.100193
C25   C     C_R   0.185475 0.497857 0.450854 -0.033563
C26   C     C_R   0.031318 0.368617 0.402884 -0.189166
C27   C     C_R   0.135967 0.390886 0.392240 -0.280669
C28   C     C_R   0.129867 0.590645 0.510857 0.165272
H1    H     H_    0.452652 0.882307 0.810664 0.216509
H2    H     H_    0.358034 0.119964 0.663707 0.161985
H3    H     H_    0.654544 0.426653 0.159453 0.180075
H4    H     H_    0.247426 0.564303 0.832232 0.184059
H5    H     H_    0.301255 0.401590 0.826350 0.225384
H6    H     H_    0.244785 0.542691 0.071659 0.175015
H7    H     H_    0.995212 0.285130 0.354856 0.165042
H8    H     H_    0.003158 0.736840 0.638593 0.175929
H9    H     H_    0.180025 0.320985 0.344750 0.146860
H10   H     H_    0.579179 0.882999 0.311332 0.191749
H11   H     H_    0.349517 0.895514 0.655258 0.178797
N1    N     N_R   0.499290 0.499140 0.142710 -0.121504
N2    N     N_R   0.499290 0.499180 0.857070 -0.109766
O1    O     O_R   0.500010 0.316790 0.614690 -0.622708
O2    O     O_R   0.500000 0.316760 0.385350 -0.599487
O3    O     O_R   0.346360 0.499990 0.595720 -0.608452
O4    O     O_R   0.346350 0.499960 0.366370 -0.628202
O5    O     O_R   0.500000 0.683240 0.614650 -0.612616
O6    O     O_R   0.499990 0.683210 0.385310 -0.622703
O7    O     O_R   0.653650 0.500040 0.633630 -0.640385
O8    O     O_R   0.653640 0.500010 0.404280 -0.606913
Zn1   Zn    Zn3+2 0.500010 0.500020 0.653130 0.929124
Zn2   Zn    Zn3+2 0.499990 0.499980 0.346870 0.953197
O9    O     O_3   0.822240 0.314330 0.454137 -0.806312
H12   H     H_    0.873683 0.244929 0.478395 0.328817
C29   C     C_3   0.471389 0.123724 0.858086 -0.811227
H13   H     H_    0.550449 0.084017 0.900082 0.258214
H14   H     H_    0.477224 0.227420 0.853998 0.255968
H15   H     H_    0.414293 0.098679 0.927728 0.235641
C30   C     C_3   0.681303 0.401195 0.897971 -0.808047
H16   H     H_    0.732429 0.477274 0.868092 0.252980
H17   H     H_    0.730258 0.345555 0.979689 0.207056
H18   H     H_    0.656464 0.335602 0.812885 0.270758
C31   C     C_3   0.302898 0.344328 0.081485 -0.800037
H19   H     H_    0.366207 0.288439 0.044395 0.243919
H20   H     H_    0.314839 0.337546 0.193908 0.267452
H21   H     H_    0.224782 0.302499 0.041622 0.224570
C32   C     C_3   0.802122 0.734175 0.664121 -0.897213
H22   H     H_    0.806977 0.822515 0.605235 0.242561
H23   H     H_    0.717271 0.714111 0.663926 0.254814
H24   H     H_    0.838991 0.749904 0.771498 0.243903
C33   C     C_3   0.181553 0.715725 0.552971 -0.959159
H25   H     H_    0.260248 0.726945 0.520208 0.236489
H26   H     H_    0.131518 0.793830 0.503781 0.239493
H27   H     H_    0.191486 0.725935 0.665437 0.235514
O10   O     O_3   0.606833 0.122020 0.294302 -0.753738
H28   H     H_    0.644280 0.199175 0.329515 0.375559

loop_
_geom_bond_atom_site_label_1
_geom_bond_atom_site_label_2
_ccdc_geom_bond_type
C32   H23   S    
C16   C21   S    
C1    C8    S    
C19   C20   S    
C7    C8    A    
C25   C28   A    
C26   C27   A    
C4    O9    S    
C5    C6    A    
C4    C24   A    
C23   O8    A    
C32   H24   S    
O4    Zn2   S    
C30   H17   S    
C31   H20   S    
C14   H11   S    
C18   C30   S    
C8    C9    A    
O8    Zn2   S    
C23   C24   S    
C33   H25   S    
C9    C10   A    
C30   H18   S    
O7    Zn1   S    
C22   O6    A    
C13   C14   S    
C2    C6    A    
C1    O2    A    
C29   H14   S    
O10   H28   S    
C15   C29   S    
C18   N2    A    
C12   O4    A    
O6    Zn2   S    
C21   H6    S    
C30   H16   S    
C17   N1    A    
C31   H19   S    
C1    O1    A    
C33   H27   S    
C17   C18   A    
C21   C31   S    
C16   N1    A    
C20   H5    S    
C22   O5    A    
O1    Zn1   S    
C17   H3    S    
C9    O10   S    
C14   H1    S    
C3    C4    A    
N2    Zn1   S    
O9    H12   S    
C15   H2    S    
C20   H4    S    
O3    Zn1   S    
C29   H13   S    
C23   O7    A    
C31   H21   S    
C3    C26   A    
C28   C33   S    
C5    C32   S    
C33   H26   S    
C25   C27   A    
N1    Zn2   S    
O5    Zn1   S    
C11   C22   S    
C12   C25   S    
C10   H10   S    
C2    C3    A    
C12   O3    A    
C11   C13   A    
O2    Zn2   S    
C5    C24   A    
C27   H9    S    
C16   C19   A    
C7    C15   S    
C6    H8    S    
C32   H22   S    
C10   C11   A    
C26   H7    S    
C7    C13   A    
C20   C21   S    
C14   C15   S    
C2    C28   A    
C19   N2    A    
C29   H15   S    
