data_mof_unit_1968.cif
_audit_creation_date              2012-12-10T20:26:29-0500
_audit_creation_method            fapswitch 2.2
_symmetry_space_group_name_H-M    P1
_symmetry_Int_Tables_number       1
_space_group_crystal_system       triclinic
_cell_length_a                    10.639502
_cell_length_b                    10.689435
_cell_length_c                    9.857413
_cell_angle_alpha                 90.230776
_cell_angle_beta                  89.636663
_cell_angle_gamma                 90.419598
_cell_volume                      1121.02470403

loop_
_atom_site_label
_atom_site_type_symbol
_atom_type_description
_atom_site_fract_x
_atom_site_fract_y
_atom_site_fract_z
_atom_type_partial_charge
C1    C     C_R   0.496499 0.260195 0.499804 0.882996
C2    C     C_R   0.557413 0.593172 0.072032 -0.151379
C3    C     C_R   0.557542 0.593092 0.928003 -0.134316
C4    C     C_R   0.262309 0.491513 0.500567 0.962723
C5    C     C_R   0.453812 0.399502 0.928344 0.245022
C6    C     C_3   0.323285 0.349049 0.921890 -0.539022
C7    C     C_3   0.321919 0.350276 0.075900 -0.537482
C8    C     C_R   0.497350 0.739993 0.500255 0.872443
C9    C     C_R   0.737868 0.497373 0.499203 0.973392
C10   C     C_2   0.930577 0.428559 0.396805 0.543053
C11   C     C_2   0.871120 0.494055 0.494423 -0.430749
C12   C     C_R   0.480752 0.128792 0.500054 -0.114181
C13   C     C_2   0.067136 0.443991 0.389554 -0.301046
C14   C     C_2   0.131986 0.459456 0.503781 -0.396436
C15   C     C_R   0.486575 0.064153 0.621730 -0.012816
C16   C     C_3   0.922303 0.308463 0.193209 0.067899
C17   C     C_3   0.914053 0.407542 0.081461 -0.339484
C18   C     C_3   0.954525 0.354601 0.944082 -0.965559
C19   C     C_3   0.757038 0.098493 0.606175 0.137787
C20   C     C_3   0.898441 0.103471 0.632512 -0.344743
C21   C     C_3   0.974110 0.068701 0.506030 -0.961108
C22   C     C_R   0.454407 0.063995 0.379471 -0.220894
C23   C     C_R   0.454658 0.934520 0.379892 -0.229263
C24   C     C_R   0.480229 0.871273 0.501179 -0.073096
C25   C     C_R   0.483572 0.936963 0.623218 0.052089
C26   C     C_3   0.566492 0.927867 0.745403 -0.568745
C27   C     C_3   0.570532 0.070796 0.743925 0.354637
C28   C     C_R   0.453352 0.399632 0.070943 0.235888
H1    H     H_    0.601801 0.669511 0.126356 0.148503
H2    H     H_    0.441397 0.112293 0.284260 0.165121
H3    H     H_    0.442188 0.885038 0.284736 0.168022
H4    H     H_    0.514361 0.890075 0.834499 0.174769
H5    H     H_    0.657342 0.880672 0.724822 0.198490
H6    H     H_    0.520198 0.111733 0.832559 0.100825
H7    H     H_    0.871472 0.223379 0.157738 0.174814
H8    H     H_    0.020302 0.277411 0.210879 0.123658
H9    H     H_    0.815511 0.440623 0.073820 0.245031
H10   H     H_    0.974709 0.489115 0.107023 0.199102
H11   H     H_    0.050843 0.316017 0.950058 0.268091
H12   H     H_    0.602329 0.669121 0.873746 0.148019
H13   H     H_    0.953634 0.429793 0.866680 0.264418
H14   H     H_    0.888670 0.279194 0.911863 0.286386
H15   H     H_    0.734999 0.171274 0.530133 0.160592
H16   H     H_    0.732947 0.005461 0.562674 0.132605
H17   H     H_    0.925537 0.199563 0.665232 0.231433
H18   H     H_    0.921773 0.037472 0.715341 0.222971
H19   H     H_    0.952311 0.971085 0.474506 0.258364
H20   H     H_    0.076118 0.076143 0.528168 0.269044
H21   H     H_    0.952094 0.132975 0.421568 0.283455
H22   H     H_    0.256559 0.416379 0.876496 0.224751
H23   H     H_    0.319942 0.253222 0.877810 0.193858
H24   H     H_    0.254923 0.419149 0.118796 0.215841
H25   H     H_    0.316192 0.255237 0.120878 0.194486
H26   H     H_    0.919488 0.554241 0.566495 0.107177
H27   H     H_    0.112615 0.452513 0.291534 0.163292
H28   H     H_    0.089008 0.444968 0.602935 0.154864
N1    N     N_R   0.499170 0.499140 0.142800 -0.105701
N2    N     N_R   0.499170 0.499180 0.857150 -0.103586
O1    O     O_R   0.500020 0.316790 0.614690 -0.607882
O2    O     O_3   0.692743 0.125695 0.729226 -0.628659
O3    O     O_R   0.500000 0.316760 0.385350 -0.619484
O4    O     O_R   0.319080 0.500020 0.614640 -0.627094
O5    O     O_R   0.319070 0.499980 0.385300 -0.616262
O6    O     O_R   0.500000 0.683240 0.614650 -0.617765
O7    O     O_R   0.499980 0.683210 0.385310 -0.636624
O8    O     O_R   0.680930 0.500020 0.614700 -0.618873
O9    O     O_R   0.680920 0.499980 0.385360 -0.570577
O10   O     O_3   0.860048 0.349291 0.312314 -0.640312
Zn1   Zn    Zn3+2 0.500010 0.500020 0.653130 0.953214
Zn2   Zn    Zn3+2 0.499990 0.499980 0.346870 0.954008

loop_
_geom_bond_atom_site_label_1
_geom_bond_atom_site_label_2
_ccdc_geom_bond_type
O3    Zn2   S    
C7    H24   S    
C14   H28   S    
C18   H11   S    
C9    O9    A    
N2    Zn1   S    
C26   H4    S    
C6    C7    S    
C16   O10   S    
C10   O10   S    
N1    Zn2   S    
C5    C28   A    
O6    Zn1   S    
C26   H5    S    
C15   C27   S    
C19   C20   S    
C12   C15   A    
C23   C24   A    
C21   H20   S    
O9    Zn2   S    
C21   H21   S    
C2    C3    A    
C2    N1    A    
C8    O7    A    
C16   H7    S    
C17   H9    S    
C28   N1    A    
C19   H16   S    
C9    C11   S    
C4    O5    A    
C26   C27   S    
C1    C12   S    
C5    N2    A    
O1    Zn1   S    
C2    H1    S    
C11   H26   S    
C8    C24   S    
C19   H15   S    
C3    H12   S    
C17   C18   S    
C17   H10   S    
C1    O1    A    
C27   H6    S    
C4    C14   S    
C5    C6    S    
C6    H23   S    
C12   C22   A    
C20   H18   S    
C24   C25   A    
C15   C25   A    
O8    Zn1   S    
C10   C11   D    
C7    H25   S    
O5    Zn2   S    
O7    Zn2   S    
C8    O6    A    
C3    N2    A    
C4    O4    A    
C20   C21   S    
C18   H13   S    
C9    O8    A    
C6    H22   S    
C19   O2    S    
C27   O2    S    
C22   H2    S    
C18   H14   S    
C13   H27   S    
C25   C26   S    
C13   C14   D    
C22   C23   A    
C16   H8    S    
C7    C28   S    
C20   H17   S    
O4    Zn1   S    
C1    O3    A    
C16   C17   S    
C21   H19   S    
C10   C13   S    
C23   H3    S    
