data_mof_unit_1207.cif
_audit_creation_date              2012-12-11T15:42:51-0500
_audit_creation_method            fapswitch 2.2
_symmetry_space_group_name_H-M    P1
_symmetry_Int_Tables_number       1
_space_group_crystal_system       triclinic
_cell_length_a                    6.931493
_cell_length_b                    14.558739
_cell_length_c                    16.19924
_cell_angle_alpha                 90.402208
_cell_angle_beta                  89.898757
_cell_angle_gamma                 89.982199
_cell_volume                      1634.68390896

loop_
_atom_site_label
_atom_site_type_symbol
_atom_type_description
_atom_site_fract_x
_atom_site_fract_y
_atom_site_fract_z
_atom_type_partial_charge
O1    O     O_R   0.505810 0.583360 0.413880 -0.540745
O2    O     O_R   0.175870 0.595480 0.585520 -0.544361
O3    O     O_R   0.005540 0.416640 0.586120 -0.541402
C1    C     C_R   0.344740 0.617415 0.614725 0.713077
O4    O     O_R   0.176100 0.594390 0.414490 -0.543690
O5    O     O_R   0.005770 0.415540 0.413870 -0.541241
C2    C     C_R   0.345249 0.616446 0.385702 0.685845
O6    O     O_R   0.505580 0.584460 0.586130 -0.540732
O7    O     O_3   0.339190 0.441320 0.500000 -0.369800
V1    V     V_3+5 0.064350 0.510890 0.500000 1.398909
O8    O     O_R   0.676050 0.404520 0.414480 -0.544119
C3    C     C_R   0.845211 0.382087 0.385719 0.685058
O9    O     O_R   0.675830 0.405610 0.585510 -0.540274
C4    C     C_R   0.845012 0.383692 0.613743 0.745360
V2    V     V_3+5 0.564340 0.489110 0.500000 1.401368
O10   O     O_3   0.839370 0.558680 0.500000 -0.371159
C5    C     C_2   0.720519 0.208964 0.786147 -0.128447
C6    C     C_2   0.885821 0.181810 0.822561 -0.313652
H1    H     H_    0.584500 0.180292 0.807122 0.136178
H2    H     H_    0.023539 0.209785 0.803706 0.126754
C7    C     C_2   0.708043 0.277429 0.718221 -0.136851
C8    C     C_2   0.861551 0.315504 0.680552 -0.310917
H3    H     H_    0.563918 0.296432 0.698414 0.134625
H4    H     H_    0.006822 0.297193 0.698504 0.129640
C9    C     C_R   0.047355 0.222879 0.219301 -0.157200
H5    H     H_    0.188177 0.204221 0.195497 0.116504
C10   C     C_R   0.036190 0.286866 0.284089 -0.152512
H6    H     H_    0.168943 0.315685 0.308027 0.118774
C11   C     C_R   0.856517 0.313320 0.317335 -0.045587
C12   C     C_R   0.688318 0.274021 0.283905 -0.156892
H7    H     H_    0.547497 0.292681 0.307709 0.116965
C13   C     C_R   0.699483 0.210034 0.219117 -0.152513
H8    H     H_    0.566732 0.181215 0.195177 0.118339
C14   C     C_R   0.879158 0.183575 0.185874 -0.043940
C15   C     C_R   0.192233 0.731775 0.712900 -0.148779
H9    H     H_    0.053680 0.721534 0.683446 0.145304
C16   C     C_R   0.205324 0.794385 0.778746 -0.214762
H10   H     H_    0.076795 0.831444 0.797106 0.194287
C17   C     C_R   0.381631 0.810198 0.819617 -0.159681
C18   C     C_R   0.546259 0.760512 0.792806 0.472247
C19   C     C_R   0.532898 0.700001 0.724973 -0.231676
H11   H     H_    0.662258 0.664830 0.704406 0.133837
C20   C     C_R   0.356225 0.684210 0.684744 -0.117472
C21   C     C_R   0.188461 0.723214 0.283839 -0.156981
H12   H     H_    0.047635 0.704975 0.307641 0.116843
C22   C     C_R   0.199668 0.786304 0.219076 -0.153123
H13   H     H_    0.066921 0.814847 0.195189 0.117984
C23   C     C_R   0.379324 0.812272 0.185807 -0.045204
C24   C     C_R   0.547444 0.773270 0.219180 -0.159416
H14   H     H_    0.688260 0.791494 0.195356 0.115389
C25   C     C_R   0.536236 0.710179 0.283950 -0.151512
H15   H     H_    0.668974 0.681620 0.307828 0.118568
C26   C     C_R   0.356584 0.684276 0.317270 -0.046267
O11   O     O_R   0.230120 0.912300 0.917180 -0.544050
O12   O     O_R   0.559740 0.902430 0.088770 -0.545750
O13   O     O_R   0.729930 0.081310 0.089370 -0.543519
C27   C     C_R   0.390614 0.880242 0.117498 0.675137
O14   O     O_R   0.559840 0.901330 0.917750 -0.507594
O15   O     O_R   0.730030 0.080210 0.917120 -0.537027
C28   C     C_R   0.391261 0.878724 0.888845 0.721362
O16   O     O_R   0.230020 0.913400 0.089430 -0.542912
O17   O     O_3   0.396460 0.055470 0.003290 -0.375203
V3    V     V_3+5 0.671360 0.985960 0.003250 1.439996
O18   O     O_R   0.059740 0.091300 0.917690 -0.545925
C29   C     C_R   0.891064 0.113234 0.889463 0.751242
O19   O     O_R   0.059640 0.092400 0.088720 -0.545620
C30   C     C_R   0.890476 0.114800 0.117499 0.677732
V4    V     V_3+5 0.171350 0.007820 0.003190 1.404150
O20   O     O_3   0.896380 0.938200 0.003220 -0.363345
O21   O     O_3   0.723873 0.774977 0.829229 -0.556931
C31   C     C_3   0.764049 0.700900 0.882095 -0.253202
H16   H     H_    0.649152 0.692605 0.929632 0.121679
H17   H     H_    0.900982 0.715523 0.915018 0.163599
H18   H     H_    0.784327 0.635872 0.846661 0.125235

loop_
_geom_bond_atom_site_label_1
_geom_bond_atom_site_label_2
_ccdc_geom_bond_type
O19   V4    S    
C3    C11   S    
C10   C11   A    
C19   H11   S    
C15   H9    S    
C1    O6    A    
C23   C27   S    
O11   C28   A    
C6    C29   S    
C11   C12   A    
C18   O21   S    
O18   V4    S    
C15   C16   A    
O5    C3    A    
C12   H7    S    
O11   V4    S    
O14   C28   A    
V2    O10   S    
O8    V2    S    
C21   C26   A    
V3    O20   S    
V4    O20   S    
C24   C25   A    
O12   V3    S    
O21   C31   S    
O1    V2    S    
C15   C20   A    
O7    V1    S    
C9    C14   A    
O19   C30   A    
O9    C4    A    
C19   C20   A    
C21   C22   A    
C22   C23   A    
C25   H15   S    
C17   C18   A    
C31   H17   S    
C9    H5    S    
C5    C7    S    
C25   C26   A    
C13   C14   A    
O2    C1    A    
C16   H10   S    
O17   V3    S    
C5    C6    D    
O13   V3    S    
O12   C27   A    
O3    C4    A    
C23   C24   A    
O6    V2    S    
O9    V2    S    
C8    H4    S    
C2    C26   S    
O2    V1    S    
C21   H12   S    
O4    C2    A    
O14   V3    S    
C22   H13   S    
C18   C19   A    
O1    C2    A    
C14   C30   S    
O5    V1    S    
C31   H18   S    
O8    C3    A    
C27   O16   A    
C1    C20   S    
C9    C10   A    
O13   C30   A    
O15   V3    S    
O17   V4    S    
C13   H8    S    
C4    C8    S    
C7    H3    S    
O7    V2    S    
C31   H16   S    
C16   C17   A    
O3    V1    S    
V1    O10   S    
O18   C29   A    
C12   C13   A    
O16   V4    S    
C17   C28   S    
C5    H1    S    
C6    H2    S    
O4    V1    S    
C24   H14   S    
C10   H6    S    
C7    C8    D    
O15   C29   A    
