data_mof_unit_1228.cif
_audit_creation_date              2013-03-05T16:00:30-0500
_audit_creation_method            fapswitch 2.2
_symmetry_space_group_name_H-M    P1
_symmetry_Int_Tables_number       1
_space_group_crystal_system       triclinic
_cell_length_a                    13.876413
_cell_length_b                    14.690809
_cell_length_c                    14.7204
_cell_angle_alpha                 115.431104
_cell_angle_beta                  106.101561
_cell_angle_gamma                 72.112484
_cell_volume                      2541.86456215

loop_
_atom_site_label
_atom_site_type_symbol
_atom_site_description
_atom_site_fract_x
_atom_site_fract_y
_atom_site_fract_z
_atom_type_partial_charge
O1    O     O_R   0.534760 0.019630 0.662610 -0.590814
O2    O     O_R   0.465240 0.980370 0.337390 -0.588252
O3    O     O_R   0.490220 0.160840 0.620610 -0.555627
O4    O     O_R   0.509780 0.839160 0.379390 -0.562180
C1    C     C_R   0.518126 0.118776 0.688131 0.874791
C2    C     C_R   0.487846 0.880130 0.311492 0.821061
O5    O     O_R   0.663260 0.919400 0.523940 -0.558987
O6    O     O_R   0.336740 0.080600 0.476060 -0.555471
O7    O     O_R   0.618720 0.060610 0.481950 -0.581636
O8    O     O_R   0.381280 0.939390 0.518050 -0.580226
C3    C     C_R   0.687082 0.986736 0.504025 0.819867
C4    C     C_R   0.312938 0.013365 0.496143 0.845763
Cu1   Cu    Cu3+1 0.526370 0.916390 0.524860 0.983718
Cu2   Cu    Cu3+1 0.473630 0.083610 0.475140 0.983099
C5    C     C_1   0.207415 0.021399 0.494154 -0.136721
C6    C     C_1   0.792644 0.978959 0.506438 -0.127002
C7    C     C_2   0.012894 0.034983 0.490806 -0.142656
C8    C     C_2   0.987225 0.965759 0.510422 -0.135813
C9    C     C_1   0.881528 0.972435 0.508436 0.041757
C10   C     C_1   0.118564 0.028133 0.492504 0.036787
H1    H     H_    0.045331 0.903759 0.527909 0.170912
H2    H     H_    0.954785 0.096961 0.473282 0.169737
C11   C     C_R   0.548915 0.183881 0.794573 -0.137748
C12   C     C_R   0.489159 0.810877 0.202357 -0.148919
C13   C     C_R   0.686881 0.208864 0.941280 -0.016726
C14   C     C_R   0.432592 0.791403 0.023422 -0.013620
C15   C     C_R   0.638769 0.144211 0.849936 -0.240612
C16   C     C_R   0.442765 0.853321 0.127576 -0.219412
C17   C     C_R   0.501448 0.289124 0.834532 -0.102434
C18   C     C_R   0.535494 0.703749 0.171828 -0.056330
C19   C     C_R   0.560646 0.357985 0.913241 0.021393
C20   C     C_R   0.530008 0.640440 0.066065 0.013155
C21   C     C_R   0.651300 0.317171 0.970493 0.064827
C22   C     C_R   0.469078 0.683206 0.992838 0.074637
C23   C     C_R   0.533016 0.466308 0.936436 0.105375
C24   C     C_R   0.576466 0.533142 0.030749 0.082736
C25   C     C_R   0.668831 0.491643 0.082719 -0.171526
C26   C     C_R   0.470274 0.509378 0.865278 -0.171884
C27   C     C_R   0.706667 0.385791 0.051965 -0.138852
C28   C     C_R   0.442110 0.615870 0.891909 -0.141890
H3    H     H_    0.780083 0.358952 0.092472 0.193592
H4    H     H_    0.392969 0.644177 0.834191 0.183411
H5    H     H_    0.411839 0.935778 0.150536 0.199388
H6    H     H_    0.672301 0.062122 0.821082 0.192861
H7    H     H_    0.715590 0.540963 0.144430 0.174947
H8    H     H_    0.445564 0.461049 0.787283 0.140278
N1    N     N_R   0.433980 0.209250 0.437830 -0.204427
N2    N     N_R   0.566020 0.790750 0.562170 -0.210886
C29   C     C_R   0.330110 0.293379 0.324773 0.230499
C30   C     C_R   0.665337 0.708991 0.678562 0.236267
C31   C     C_R   0.359137 0.210315 0.356332 0.022351
C32   C     C_R   0.639931 0.789946 0.644387 0.020316
C33   C     C_R   0.482415 0.288994 0.492891 0.017427
C34   C     C_R   0.515016 0.712796 0.509013 0.020303
C35   C     C_R   0.457363 0.376455 0.466047 -0.057603
C36   C     C_R   0.536453 0.627385 0.538347 -0.058112
C37   C     C_R   0.381837 0.375940 0.378070 0.020691
C38   C     C_R   0.611146 0.628219 0.626958 0.030563
C39   C     C_R   0.506671 0.462234 0.521548 0.105619
C40   C     C_R   0.484972 0.543035 0.484312 0.104958
C41   C     C_R   0.413408 0.536171 0.393626 -0.190953
C42   C     C_R   0.575728 0.470619 0.613904 -0.240258
C43   C     C_R   0.362680 0.455321 0.342588 -0.103763
C44   C     C_R   0.626901 0.551161 0.664783 -0.096428
H9    H     H_    0.310218 0.454396 0.272618 0.207199
H10   H     H_    0.677476 0.553395 0.736007 0.198053
H11   H     H_    0.456119 0.721246 0.446227 0.150660
H12   H     H_    0.542290 0.280560 0.555114 0.133799
H13   H     H_    0.679318 0.853157 0.683718 0.166145
H14   H     H_    0.321226 0.146058 0.316055 0.167064
H15   H     H_    0.395046 0.591891 0.358789 0.167532
H16   H     H_    0.590927 0.416670 0.650355 0.133470
N3    N     N_R   0.247927 0.292749 0.239964 0.117589
O9    O     O_R   0.239697 0.206806 0.162119 -0.309984
O10   O     O_R   0.171425 0.372265 0.248530 -0.337144
N4    N     N_R   0.746289 0.709966 0.764407 0.119793
O11   O     O_R   0.755955 0.796693 0.840610 -0.316580
O12   O     O_R   0.820712 0.629047 0.758314 -0.334079
C45   C     C_2   0.577549 0.655576 0.249216 0.845360
O13   O     O_2   0.535469 0.593941 0.249823 -0.592567
O14   O     O_R   0.666131 0.679476 0.319821 -0.741943
H17   H     H_    0.687204 0.641760 0.368374 0.341340
C46   C     C_2   0.386839 0.321849 0.809843 0.845507
O15   O     O_2   0.340105 0.394869 0.873618 -0.546764
O16   O     O_R   0.331332 0.266825 0.717352 -0.755041
H18   H     H_    0.254573 0.296444 0.711671 0.346365
C47   C     C_2   0.775373 0.160380 0.001752 0.866795
O17   O     O_2   0.836585 0.083638 0.958204 -0.542612
O18   O     O_R   0.786280 0.199413 0.108162 -0.747704
H19   H     H_    0.848802 0.158941 0.140361 0.354258
C48   C     C_2   0.384929 0.842901 0.949073 0.853573
O19   O     O_2   0.313660 0.918228 0.968195 -0.536833
O20   O     O_R   0.424352 0.808264 0.859295 -0.763770
H20   H     H_    0.386250 0.850429 0.815663 0.345204

loop_
_geom_bond_atom_site_label_1
_geom_bond_atom_site_label_2
_geom_bond_distance
_ccdc_geom_bond_type
C18   C20   1.424364 A    
C47   O17   1.223325 D    
C43   H9    1.081278 S    
O20   H20   1.013872 S    
C35   C39   1.434939 A    
C8    H1    1.086783 S    
N3    O9    1.301399 A    
C23   C24   1.408412 A    
O14   H17   1.013886 S    
C27   H3    1.080321 S    
O16   H18   1.013895 S    
N2    C34   1.358595 A    
C21   C27   1.403970 A    
O1    C1    1.299053 A    
C11   C17   1.406606 A    
C24   C25   1.405830 A    
N4    O12   1.301300 A    
C17   C46   1.500744 S    
C13   C47   1.486118 S    
C7    C10   1.432481 S    
C29   C37   1.416694 A    
C8    C9    1.432480 S    
O4    Cu1   1.930320 S    
C41   C43   1.387288 A    
C33   H12   1.075525 S    
C42   C44   1.387521 A    
C32   H13   1.082020 S    
C15   H6    1.084543 S    
C14   C22   1.415283 A    
C29   C31   1.395806 A    
C30   C32   1.396310 A    
C19   C21   1.426467 A    
C31   H14   1.082007 S    
C11   C15   1.398699 A    
N1    C33   1.359086 A    
C41   H15   1.076052 S    
C28   H4    1.080589 S    
C39   C40   1.431030 A    
Cu1   Cu2   2.692363 S    
N3    O10   1.301314 A    
O2    C2    1.308713 A    
C37   C43   1.399673 A    
C33   C35   1.418918 A    
C38   C44   1.400409 A    
C5    C10   1.200424 T    
C34   C36   1.419210 A    
C30   C38   1.416931 A    
C23   C26   1.407322 A    
N4    O11   1.301407 A    
O4    C2    1.299705 A    
C48   O19   1.223296 D    
C45   O14   1.399112 S    
N1    C31   1.353933 A    
C34   H11   1.074624 S    
C14   C48   1.486558 S    
C36   C40   1.435497 A    
C40   C41   1.410303 A    
C44   H10   1.081334 S    
O5    C3    1.295170 A    
O7    Cu2   1.917539 S    
C30   N4    1.437323 S    
C48   O20   1.398997 S    
C3    C6    1.425415 S    
C46   O15   1.223959 D    
C1    C11   1.464577 S    
C4    C5    1.425456 S    
N2    C32   1.353921 A    
O6    C4    1.295180 A    
C2    C12   1.489090 S    
C7    C8    1.332749 D    
C42   H16   1.077191 S    
O7    C3    1.297213 A    
O3    Cu2   1.930321 S    
O8    C4    1.297158 A    
C18   C45   1.486302 S    
C46   O16   1.398553 S    
C35   C37   1.420989 A    
C19   C23   1.423774 A    
O1    Cu1   1.939529 S    
C25   H7    1.080621 S    
C20   C24   1.424220 A    
C39   C42   1.409883 A    
O6    Cu2   1.917495 S    
C12   C16   1.401734 A    
O3    C1    1.298748 A    
O8    Cu1   1.917538 S    
Cu1   N2    2.022462 S    
Cu2   N1    2.022460 S    
C13   C15   1.396629 A    
C16   H5    1.084107 S    
C14   C16   1.399666 A    
C7    H2    1.086780 S    
C47   O18   1.398471 S    
C25   C27   1.387256 A    
C26   C28   1.391616 A    
C6    C9    1.200418 T    
C36   C38   1.421275 A    
C29   N3    1.437360 S    
O2    Cu2   1.939528 S    
C12   C18   1.422473 A    
C26   H8    1.082088 S    
C45   O13   1.222933 D    
O5    Cu1   1.917495 S    
C17   C19   1.420041 A    
C13   C21   1.417006 A    
C22   C28   1.408087 A    
O18   H19   1.013869 S    
C20   C22   1.421723 A    
