data_mof_unit_1505.cif
_audit_creation_date              2012-12-10T17:19:53-0500
_audit_creation_method            fapswitch 2.2
_symmetry_space_group_name_H-M    P1
_symmetry_Int_Tables_number       1
_space_group_crystal_system       triclinic
_cell_length_a                    9.619194
_cell_length_b                    10.863404
_cell_length_c                    15.417266
_cell_angle_alpha                 86.743334
_cell_angle_beta                  74.083399
_cell_angle_gamma                 90.521396
_cell_volume                      1546.28286102

loop_
_atom_site_label
_atom_site_type_symbol
_atom_type_description
_atom_site_fract_x
_atom_site_fract_y
_atom_site_fract_z
_atom_type_partial_charge
C1    C     C_R   0.996953 0.262335 0.505268 0.775172
C2    C     C_R   0.680624 0.519455 0.911459 0.063864
C3    C     C_R   0.775083 0.473299 0.961086 0.096495
C4    C     C_R   0.537958 0.553104 0.957765 -0.054246
C5    C     C_R   0.484868 0.526941 0.052637 0.000944
C6    C     C_R   0.586169 0.490238 0.101650 0.104730
C7    C     C_R   0.726993 0.458338 0.055453 0.133997
C8    C     C_R   0.449097 0.617514 0.912319 -0.248149
C9    C     C_R   0.309368 0.649323 0.956371 0.563594
C10   C     C_R   0.248309 0.612326 0.047834 -0.019393
C11   C     C_R   0.334335 0.544045 0.094696 -0.000142
C12   C     C_R   0.917861 0.500921 0.672248 0.884355
C13   C     C_R   0.103993 0.641230 0.094843 0.186840
C14   C     C_R   0.048813 0.602275 0.185693 -0.197937
C15   C     C_R   0.265409 0.491176 0.181366 -0.219475
C16   C     C_R   0.924872 0.102232 0.683087 0.165388
C17   C     C_R   0.908702 0.025105 0.760721 -0.180551
C18   C     C_R   0.937515 0.901452 0.754574 -0.219285
C19   C     C_R   0.976075 0.851587 0.670887 0.590942
C20   C     C_R   0.981103 0.924183 0.590526 -0.065105
C21   C     C_R   0.965476 0.054115 0.595133 -0.013144
C22   C     C_R   0.991949 0.127774 0.511924 -0.098876
C23   C     C_R   0.001042 0.737295 0.500236 0.851267
C24   C     C_R   0.022634 0.072621 0.429470 -0.139420
C25   C     C_R   0.027143 0.945746 0.425667 0.115688
C26   C     C_R   0.003215 0.870779 0.505924 -0.109729
C27   C     C_R   0.697777 0.667044 0.380931 -0.093042
C28   C     C_R   0.651663 0.753098 0.325094 0.156340
C29   C     C_R   0.506738 0.756076 0.327785 -0.255970
C30   C     C_R   0.409169 0.671347 0.383887 -0.140534
C31   C     C_R   0.451392 0.583786 0.442611 0.113807
C32   C     C_R   0.600955 0.582796 0.441942 0.137870
C33   C     C_R   0.548755 0.421228 0.555466 -0.133634
C34   C     C_R   0.082061 0.503406 0.327721 0.763593
C35   C     C_R   0.400994 0.421031 0.555430 0.686902
C36   C     C_R   0.872592 0.497338 0.771555 -0.012498
C37   C     C_R   0.128764 0.527192 0.229227 -0.096014
C38   C     C_R   0.918526 0.445777 0.915366 -0.168126
C39   C     C_R   0.967284 0.459679 0.821659 -0.127405
C40   C     C_R   0.730763 0.526472 0.816322 -0.217413
Cu1   Cu    Cu3+1 0.140660 0.499990 0.500010 1.017794
Cu2   Cu    Cu3+1 0.859340 0.500010 0.499990 0.940869
H1    H     H_    0.044077 0.129361 0.366761 0.148394
H2    H     H_    0.878485 0.062783 0.826702 0.182254
H3    H     H_    0.932496 0.843945 0.815153 0.190883
H4    H     H_    0.583271 0.356679 0.600975 0.162900
H5    H     H_    0.810473 0.669062 0.373653 0.183082
H6    H     H_    0.317039 0.422266 0.213754 0.157484
H7    H     H_    0.469986 0.821641 0.283766 0.152488
H8    H     H_    0.302946 0.676768 0.376534 0.190695
H9    H     H_    0.943093 0.631884 0.222367 0.168995
H10   H     H_    0.994189 0.413441 0.951700 0.181088
H11   H     H_    0.077597 0.436602 0.788334 0.191177
H12   H     H_    0.659934 0.550431 0.775056 0.156464
H13   H     H_    0.487401 0.651129 0.842586 0.179583
N1    N     N_R   0.648320 0.501210 0.499140 -0.227293
N2    N     N_R   0.352470 0.501290 0.499110 -0.240819
O1    O     O_R   0.118810 0.319640 0.500010 -0.530276
O2    O     O_R   0.881240 0.319660 0.500000 -0.583831
O3    O     O_R   0.055570 0.499980 0.629840 -0.501000
O4    O     O_R   0.818000 0.500010 0.629830 -0.602048
O5    O     O_R   0.118760 0.680340 0.500000 -0.552150
O6    O     O_R   0.881190 0.680360 0.499990 -0.600159
O7    O     O_R   0.182000 0.499990 0.370170 -0.607781
O8    O     O_R   0.944430 0.500020 0.370160 -0.597583
N3    N     N_3   0.822803 0.410628 0.105378 -0.599630
H14   H     H_    0.832739 0.474600 0.151386 0.260227
H15   H     H_    0.775562 0.329783 0.142067 0.227135
N4    N     N_3   0.011860 0.713463 0.054257 -0.580038
H16   H     H_    0.994437 0.667890 0.000139 0.275514
H17   H     H_    0.061233 0.799906 0.031762 0.271243
N5    N     N_3   0.899720 0.228644 0.697941 -0.606313
H18   H     H_    0.819437 0.258175 0.668330 0.221331
H19   H     H_    0.998170 0.275750 0.670917 0.252202
F1    F     F_    0.019870 0.734422 0.669561 -0.675637
N6    N     N_3   0.062137 0.895053 0.338649 -0.584775
H20   H     H_    0.156418 0.844778 0.330826 0.196536
H21   H     H_    0.978691 0.834425 0.336513 0.227623
N7    N     N_3   0.754235 0.836224 0.264361 -0.610497
H22   H     H_    0.749450 0.822539 0.198635 0.242144
H23   H     H_    0.722634 0.926290 0.278948 0.233863
F2    F     F_    0.306585 0.340088 0.612736 -0.668111
F3    F     F_    0.235027 0.714405 0.906869 -0.680758
N8    N     N_3   0.561064 0.506616 0.196454 -0.610478
H24   H     H_    0.528711 0.422994 0.233831 0.218053
H25   H     H_    0.488334 0.576566 0.217361 0.247454

loop_
_geom_bond_atom_site_label_1
_geom_bond_atom_site_label_2
_ccdc_geom_bond_type
N3    H15   S    
C16   C21   A    
C34   C37   S    
Cu1   Cu2   S    
C19   C20   A    
C16   N5    S    
C4    C8    A    
C29   H7    S    
C20   C26   A    
C5    C6    A    
C15   H6    S    
C28   C29   A    
N6    H21   S    
Cu1   O1    S    
C5    C11   A    
C3    C7    A    
C1    O2    A    
C30   C31   A    
C38   H10   S    
C34   O8    A    
C18   C19   A    
C23   C26   S    
N4    H17   S    
C28   N7    S    
C15   C37   A    
Cu2   N1    S    
C11   C15   A    
N8    H24   S    
C23   O5    A    
C14   H9    S    
C3    C38   A    
C8    C9    A    
Cu2   O8    S    
C12   C36   S    
C9    C10   A    
C33   N1    A    
C23   O6    A    
N3    H14   S    
C30   H8    S    
C1    C22   S    
C13   C14   A    
C33   H4    S    
Cu1   O5    S    
C8    H13   S    
C35   F2    S    
C38   C39   A    
C6    N8    S    
C36   C40   A    
C24   C25   A    
N5    H19   S    
N7    H23   S    
C16   C17   A    
C25   C26   A    
C2    C4    A    
C29   C30   A    
C31   C32   A    
C34   O7    A    
C17   C18   A    
N6    H20   S    
Cu2   O4    S    
C9    F3    S    
C40   H12   S    
C22   C24   A    
C18   H3    S    
C27   H5    S    
C27   C32   A    
C36   C39   A    
Cu1   O3    S    
N8    H25   S    
N5    H18   S    
C10   C13   A    
Cu2   O2    S    
C6    C7    A    
C35   N2    A    
C25   N6    S    
C31   N2    A    
C19   F1    S    
C2    C3    A    
C17   H2    S    
Cu1   N2    S    
C1    O1    A    
C14   C37   A    
C12   O4    A    
C39   H11   S    
C13   N4    S    
C33   C35   A    
N4    H16   S    
C10   C11   A    
N7    H22   S    
C12   O3    A    
C2    C40   A    
C4    C5    A    
C20   C21   A    
C27   C28   A    
C24   H1    S    
Cu1   O7    S    
C21   C22   A    
Cu2   O6    S    
C32   N1    A    
C7    N3    S    
