data_mof_unit_4948.cif
_audit_creation_date              2012-12-10T17:13:39-0500
_audit_creation_method            fapswitch 2.2
_symmetry_space_group_name_H-M    P1
_symmetry_Int_Tables_number       1
_space_group_crystal_system       triclinic
_cell_length_a                    27.876413
_cell_length_b                    10.70799
_cell_length_c                    10.000868
_cell_angle_alpha                 89.753883
_cell_angle_beta                  90.237682
_cell_angle_gamma                 89.854478
_cell_volume                      2985.19962275

loop_
_atom_site_label
_atom_site_type_symbol
_atom_type_description
_atom_site_fract_x
_atom_site_fract_y
_atom_site_fract_z
_atom_type_partial_charge
C1    C     C_R   0.503847 0.262882 0.500157 0.781207
C2    C     C_R   0.274695 0.497016 0.602614 0.118145
C3    C     C_R   0.253213 0.506839 0.475392 0.188870
C4    C     C_R   0.103163 0.511048 0.463871 -0.099108
C5    C     C_R   0.128463 0.397318 0.453409 -0.002127
C6    C     C_R   0.103478 0.284377 0.448060 -0.179329
C7    C     C_R   0.128320 0.625501 0.467787 -0.069321
C8    C     C_R   0.353178 0.502514 0.496180 -0.170907
C9    C     C_R   0.646159 0.497247 0.498924 -0.144922
C10   C     C_R   0.978622 0.394798 0.512261 -0.037964
C11   C     C_R   0.976022 0.618076 0.456551 0.056349
C12   C     C_R   0.405971 0.500431 0.499625 0.948531
C13   C     C_R   0.952029 0.504769 0.486110 0.001918
C14   C     C_R   0.955542 0.291483 0.572367 0.395852
C15   C     C_R   0.904933 0.287760 0.578559 0.118651
C16   C     C_R   0.877564 0.390842 0.529814 -0.121038
C17   C     C_R   0.901452 0.501400 0.488910 -0.164269
C18   C     C_R   0.874825 0.608117 0.448157 -0.078179
C19   C     C_R   0.824613 0.600622 0.446310 0.659930
C20   C     C_R   0.827047 0.388863 0.521149 0.584764
C21   C     C_R   0.715901 0.406521 0.385897 -0.064249
C22   C     C_R   0.666995 0.417792 0.403054 -0.250653
C23   C     C_R   0.497429 0.737380 0.499557 0.757497
C24   C     C_R   0.673791 0.572788 0.587237 0.033153
C25   C     C_R   0.724254 0.569507 0.582986 0.523589
C26   C     C_R   0.747601 0.488329 0.480904 -0.044423
C27   C     C_R   0.028294 0.394486 0.484063 0.094170
C28   C     C_R   0.052626 0.509598 0.471133 0.055483
C29   C     C_R   0.026657 0.622670 0.465713 0.043672
C30   C     C_R   0.054083 0.282867 0.463477 -0.133004
C31   C     C_R   0.102195 0.738952 0.469557 0.242576
C32   C     C_R   0.948904 0.722377 0.415545 -0.327308
C33   C     C_R   0.898853 0.718081 0.408590 0.493680
C34   C     C_R   0.593786 0.501115 0.500287 0.898335
C35   C     C_R   0.052096 0.736232 0.468460 -0.281836
C36   C     C_2   0.507196 0.933166 0.392381 -0.175276
C37   C     C_2   0.489616 0.869446 0.496487 0.387141
C38   C     C_2   0.504033 0.066943 0.389823 -0.169458
C39   C     C_2   0.515364 0.132105 0.499120 0.379881
C40   C     C_2   0.520921 0.586847 0.923710 0.478990
C41   C     C_2   0.516515 0.591844 0.074861 -0.251036
C42   C     C_R   0.178386 0.399251 0.449167 0.522731
C43   C     C_R   0.178784 0.621086 0.473869 0.529212
C44   C     C_R   0.281021 0.514439 0.359156 0.236870
C45   C     C_R   0.330620 0.512855 0.370874 -0.310566
C46   C     C_R   0.325411 0.495371 0.613965 0.381494
H1    H     H_    0.966139 0.806840 0.381756 0.134737
H2    H     H_    0.033791 0.825051 0.473599 0.148060
H3    H     H_    0.524549 0.887440 0.308566 0.118913
H4    H     H_    0.489861 0.110555 0.299580 0.130303
H5    H     H_    0.478298 0.438577 0.898677 0.124842
H6    H     H_    0.528720 0.675434 0.125422 0.169252
H7    H     H_    0.492473 0.418320 0.102137 0.158740
H8    H     H_    0.122063 0.196372 0.434963 0.183579
H9    H     H_    0.644381 0.361651 0.338784 0.186351
H10   H     H_    0.737104 0.444101 0.428413 0.193567
H11   H     H_    0.036304 0.193649 0.454657 0.186435
H12   H     H_    0.351633 0.521890 0.280518 0.205200
N1    N     N_R   0.202184 0.509229 0.465008 -0.336279
N2    N     N_R   0.802411 0.493141 0.483515 -0.321113
N3    N     N_2   0.500520 0.501330 0.852150 -0.187816
N4    N     N_2   0.500540 0.501360 0.147810 -0.197031
O1    O     O_R   0.499990 0.319060 0.613040 -0.613297
O2    O     O_2   0.802099 0.284219 0.547781 -0.558367
O3    O     O_2   0.204580 0.726420 0.489866 -0.522325
O4    O     O_2   0.797657 0.698822 0.406442 -0.457962
O5    O     O_R   0.500010 0.319100 0.386900 -0.639611
O6    O     O_R   0.428750 0.500000 0.613050 -0.543911
O7    O     O_R   0.428760 0.500040 0.386920 -0.626560
O8    O     O_R   0.499990 0.680900 0.613100 -0.550455
O9    O     O_R   0.500010 0.680940 0.386960 -0.639123
O10   O     O_R   0.571240 0.499960 0.613080 -0.595949
O11   O     O_R   0.571250 0.500000 0.386950 -0.609584
O12   O     O_2   0.203187 0.292044 0.432179 -0.579981
Zn1   Zn    Zn3+2 0.499990 0.499970 0.650990 1.030323
Zn2   Zn    Zn3+2 0.500010 0.500030 0.349010 0.951116
O13   O     O_3   0.348797 0.486214 0.736026 -0.746827
H13   H     H_    0.325626 0.479278 0.809937 0.335993
N5    N     N_2   0.259495 0.529438 0.230422 -0.292026
H14   H     H_    0.224754 0.562574 0.229686 0.229446
C47   C     C_3   0.266429 0.426107 0.139829 -0.750652
H15   H     H_    0.250151 0.449708 0.041617 0.231083
H16   H     H_    0.248883 0.340785 0.179795 0.271831
H17   H     H_    0.305183 0.407588 0.123932 0.245133
N6    N     N_2   0.125622 0.856950 0.469640 -0.248671
H18   H     H_    0.109052 0.922668 0.528983 0.222509
C48   C     C_3   0.135629 0.905300 0.337381 -0.684039
H19   H     H_    0.157198 0.991933 0.345855 0.252503
H20   H     H_    0.101578 0.927443 0.283996 0.205614
H21   H     H_    0.156492 0.836326 0.278470 0.254872
N7    N     N_2   0.651210 0.655730 0.678560 -0.336058
H22   H     H_    0.627490 0.614875 0.743850 0.288047
C49   C     C_3   0.634985 0.772776 0.621295 -0.637247
H23   H     H_    0.605583 0.756793 0.548175 0.223756
H24   H     H_    0.665192 0.821016 0.570762 0.249797
H25   H     H_    0.621372 0.834213 0.701911 0.258402
O14   O     O_3   0.873124 0.820308 0.362482 -0.709436
H26   H     H_    0.895480 0.886984 0.333716 0.320528
O15   O     O_3   0.753157 0.636951 0.669046 -0.735553
H27   H     H_    0.733287 0.682297 0.734670 0.360013
O16   O     O_3   0.462643 0.928110 0.594268 -0.714005
H28   H     H_    0.450339 0.864373 0.657494 0.345007
N8    N     N_2   0.244413 0.493827 0.717004 -0.307163
H29   H     H_    0.253111 0.556969 0.790703 0.232375
C50   C     C_3   0.233535 0.370197 0.767278 -0.758267
H30   H     H_    0.205445 0.376999 0.845238 0.237356
H31   H     H_    0.266014 0.325964 0.811511 0.239083
H32   H     H_    0.219631 0.309764 0.686363 0.289995
O17   O     O_3   0.539202 0.075632 0.605568 -0.726237
H33   H     H_    0.547621 0.139792 0.672711 0.338028
O18   O     O_3   0.546453 0.678295 0.857774 -0.730724
H34   H     H_    0.560221 0.735903 0.924963 0.313229
N9    N     N_2   0.882893 0.182179 0.639987 -0.320369
H35   H     H_    0.855141 0.199267 0.705144 0.279603
C51   C     C_3   0.877701 0.073607 0.555578 -0.630063
H36   H     H_    0.853241 0.094248 0.470367 0.280658
H37   H     H_    0.862669 0.995079 0.614776 0.257313
H38   H     H_    0.913170 0.044229 0.516259 0.216526
O19   O     O_3   0.983556 0.201701 0.635759 -0.793101
H39   H     H_    0.963856 0.146862 0.693115 0.361967

loop_
_geom_bond_atom_site_label_1
_geom_bond_atom_site_label_2
_ccdc_geom_bond_type
C10   C27   A    
O13   H13   S    
C21   C26   A    
C49   H23   S    
C31   N6    S    
O18   H34   S    
H5    N3    S    
C12   O7    A    
C43   O3    S    
C47   H15   S    
N6    H18   S    
C2    C46   A    
O6    Zn1   S    
C12   O6    A    
O16   H28   S    
O7    Zn2   S    
C28   C29   A    
C4    C7    A    
C5    C6    A    
C9    C22   A    
C51   H36   S    
C30   H11   S    
C19   O4    S    
C18   C19   A    
C8    C45   A    
C4    C28   A    
C25   O15   S    
C16   C17   A    
C51   H37   S    
C15   N9    S    
C7    C43   A    
C20   N2    A    
C41   H6    S    
C16   C20   A    
C1    O5    A    
C49   H24   S    
C21   C22   A    
C27   C30   A    
C23   O8    A    
N4    Zn2   S    
C41   N4    D    
C6    H8    S    
O10   Zn1   S    
C35   H2    S    
C1    O1    A    
C47   H16   S    
O14   H26   S    
C40   O18   S    
N6    C48   S    
C3    C44   A    
C50   H32   S    
C45   H12   S    
C42   O12   S    
C7    C31   A    
C23   O9    A    
C24   C25   A    
C10   C14   A    
N7    H22   S    
N5    C47   S    
C25   C26   A    
C23   C37   S    
N3    Zn1   S    
C40   N3    D    
C20   O2    S    
N7    C49   S    
C50   H31   S    
H7    N4    S    
O15   H27   S    
C8    C12   S    
C51   H38   S    
C17   C18   A    
N8    C50   S    
C40   C41   S    
C6    C30   A    
C11   C32   A    
C49   H25   S    
C48   H20   S    
C9    C34   S    
O11   Zn2   S    
C31   C35   A    
C24   N7    S    
C34   O10   A    
O9    Zn2   S    
O8    Zn1   S    
C47   H17   S    
C44   C45   A    
C5    C42   A    
N9    H35   S    
C36   C37   D    
C44   N5    S    
C4    C5    A    
C10   C13   A    
C42   N1    A    
C21   H10   S    
O19   H39   S    
C9    C24   A    
C22   H9    S    
C38   H4    S    
C43   N1    A    
C19   N2    A    
C46   O13   S    
C50   H30   S    
C29   C35   A    
C13   C17   A    
C32   C33   A    
C36   C38   S    
C2    C3    A    
O17   H33   S    
C37   O16   S    
C11   C13   A    
C38   C39   D    
O1    Zn1   S    
C2    N8    S    
C32   H1    S    
C33   O14   S    
C18   C33   A    
C8    C46   A    
C1    C39   S    
C34   O11   A    
N5    H14   S    
C39   O17   S    
C11   C29   A    
C48   H19   S    
C14   O19   S    
C48   H21   S    
N8    H29   S    
C14   C15   A    
O5    Zn2   S    
N9    C51   S    
C26   N2    S    
C36   H3    S    
C15   C16   A    
C27   C28   A    
C3    N1    S    
