data_mof_unit_969.cif
_audit_creation_date              2012-12-10T17:24:11-0500
_audit_creation_method            fapswitch 2.2
_symmetry_space_group_name_H-M    P1
_symmetry_Int_Tables_number       1
_space_group_crystal_system       triclinic
_cell_length_a                    19.358024
_cell_length_b                    10.844012
_cell_length_c                    9.629469
_cell_angle_alpha                 91.341872
_cell_angle_beta                  90.201226
_cell_angle_gamma                 92.978644
_cell_volume                      2018.0978713

loop_
_atom_site_label
_atom_site_type_symbol
_atom_type_description
_atom_site_fract_x
_atom_site_fract_y
_atom_site_fract_z
_atom_type_partial_charge
C1    C     C_R   0.508841 0.264291 0.498883 0.804149
C2    C     C_R   0.291259 0.494828 0.500371 -0.050691
C3    C     C_R   0.929874 0.506890 0.499064 0.408895
C4    C     C_R   0.069866 0.502693 0.498022 0.423297
C5    C     C_R   0.817147 0.495887 0.624734 -0.155911
C6    C     C_R   0.745132 0.494368 0.625092 -0.194593
C7    C     C_R   0.708399 0.503514 0.500174 -0.026239
C8    C     C_R   0.744953 0.515446 0.375071 -0.192895
C9    C     C_R   0.816965 0.517597 0.374806 -0.157430
C10   C     C_R   0.853768 0.507267 0.499546 0.058009
C11   C     C_R   0.556612 0.132240 0.745845 -0.133811
C12   C     C_R   0.367527 0.497603 0.500007 0.806109
C13   C     C_R   0.551215 0.078343 0.874614 -0.162018
C14   C     C_R   0.516708 0.963511 0.886851 -0.144920
C15   C     C_R   0.494265 0.897204 0.767773 -0.154721
C16   C     C_R   0.506925 0.945015 0.633761 0.087203
C17   C     C_R   0.528344 0.070934 0.626120 0.062807
C18   C     C_R   0.522350 0.131452 0.498589 -0.145547
C19   C     C_R   0.520908 0.060233 0.374443 0.168313
C20   C     C_R   0.509118 0.933134 0.380414 -0.215223
C21   C     C_R   0.500547 0.873945 0.507489 -0.161329
C22   C     C_R   0.593838 0.662196 0.148063 -0.155898
C23   C     C_R   0.498074 0.738108 0.502347 0.794419
C24   C     C_R   0.639291 0.741782 0.077972 -0.229995
C25   C     C_R   0.638943 0.741856 0.934821 -0.193862
C26   C     C_R   0.593017 0.662546 0.860807 -0.142556
C27   C     C_R   0.546088 0.579294 0.927677 0.171480
C28   C     C_R   0.546427 0.578889 0.077014 0.172462
C29   C     C_R   0.454102 0.426583 0.069267 0.241570
C30   C     C_R   0.455828 0.425689 0.921862 -0.043957
C31   C     C_R   0.632396 0.501093 0.500137 0.752388
C32   C     C_R   0.252674 0.450840 0.615390 0.170486
C33   C     C_R   0.180421 0.454562 0.613197 -0.188785
C34   C     C_R   0.145894 0.499304 0.497942 0.024107
C35   C     C_R   0.184435 0.540172 0.383302 -0.155333
C36   C     C_R   0.256312 0.538143 0.384673 -0.243564
Cu1   Cu    Cu3+1 0.500000 0.499990 0.640660 0.927406
Cu2   Cu    Cu3+1 0.500000 0.500010 0.359340 0.922363
H1    H     H_    0.584515 0.221088 0.740466 0.155599
H2    H     H_    0.572582 0.128371 0.964126 0.144366
H3    H     H_    0.508654 0.924128 0.988122 0.145827
H4    H     H_    0.465607 0.811097 0.784484 0.173017
H5    H     H_    0.508325 0.879968 0.283595 0.173513
H6    H     H_    0.597792 0.671289 0.257788 0.200825
H7    H     H_    0.674722 0.804611 0.135530 0.156067
H8    H     H_    0.673983 0.804884 0.880416 0.158124
H9    H     H_    0.595717 0.671815 0.751458 0.202761
H10   H     H_    0.151130 0.420888 0.701420 0.150379
H11   H     H_    0.419509 0.366443 0.862121 0.161961
H12   H     H_    0.159174 0.575187 0.292921 0.160888
H13   H     H_    0.284682 0.572589 0.295646 0.160203
H14   H     H_    0.844039 0.488215 0.722691 0.153969
H15   H     H_    0.718310 0.485424 0.723165 0.155350
H16   H     H_    0.718015 0.523215 0.277146 0.157174
H17   H     H_    0.843679 0.526358 0.276643 0.153942
N1    N     N_R   0.034811 0.528888 0.380932 -0.238510
N2    N     N_R   0.966139 0.530759 0.381411 -0.240005
N3    N     N_R   0.964979 0.481213 0.616162 -0.240266
N4    N     N_R   0.033566 0.479072 0.615600 -0.239275
N5    N     N_R   0.500660 0.501210 0.147910 -0.198568
N6    N     N_R   0.500680 0.501290 0.852040 -0.223773
O1    O     O_R   0.499990 0.319640 0.618810 -0.587491
O2    O     O_R   0.500000 0.319660 0.381240 -0.575652
O3    O     O_R   0.400140 0.499970 0.618820 -0.543966
O4    O     O_R   0.400150 0.500000 0.381250 -0.582364
O5    O     O_R   0.500000 0.680340 0.618760 -0.608852
O6    O     O_R   0.500010 0.680360 0.381190 -0.596870
O7    O     O_R   0.599850 0.500000 0.618750 -0.606164
O8    O     O_R   0.599860 0.500030 0.381180 -0.601040
N7    N     N_3   0.286579 0.400278 0.732678 -0.579336
H18   H     H_    0.305570 0.315896 0.700073 0.206105
H19   H     H_    0.251302 0.380739 0.812171 0.210163
C37   C     C_3   0.395370 0.351365 0.133147 -0.787609
H20   H     H_    0.371853 0.282447 0.057390 0.179302
H21   H     H_    0.411678 0.297962 0.221769 0.262870
H22   H     H_    0.353822 0.412761 0.164038 0.234291
C38   C     C_3   0.539853 0.112986 0.236001 -0.852278
H23   H     H_    0.568866 0.044604 0.175418 0.209455
H24   H     H_    0.492520 0.134371 0.177951 0.240349
H25   H     H_    0.575713 0.195874 0.246996 0.249330

loop_
_geom_bond_atom_site_label_1
_geom_bond_atom_site_label_2
_ccdc_geom_bond_type
C16   C21   A    
C37   H20   S    
C35   C36   A    
C2    C12   S    
C1    O1    A    
C20   H5    S    
Cu1   O1    S    
C7    C8    A    
C38   H23   S    
C1    C18   S    
Cu1   Cu2   S    
C24   H7    S    
C23   O5    A    
C18   C19   A    
C5    C6    A    
C12   O3    A    
C29   C37   S    
C15   C16   A    
Cu1   O7    S    
N1    N2    A    
C2    C32   A    
C34   C35   A    
C23   O6    A    
C19   C38   S    
C13   H2    S    
C27   N6    A    
C22   H6    S    
C19   C20   A    
C8    C9    A    
Cu2   O4    S    
C5    H14   S    
N7    H18   S    
C9    H17   S    
C9    C10   A    
C28   N5    A    
Cu2   O8    S    
C22   C28   A    
C13   C14   A    
C4    N1    A    
C37   H21   S    
C1    O2    A    
C33   C34   A    
C38   H24   S    
C31   O7    A    
C4    C34   S    
C7    C31   S    
C24   C25   A    
C8    H16   S    
C16   C17   A    
C32   N7    S    
C25   C26   A    
C29   C30   A    
C29   N5    A    
Cu1   O5    S    
C35   H12   S    
C17   C18   A    
C26   C27   A    
Cu2   O6    S    
C11   H1    S    
C36   H13   S    
C26   H9    S    
C14   H3    S    
Cu2   N5    S    
C3    N2    A    
C30   H11   S    
C21   C23   S    
C37   H22   S    
C22   C24   A    
C6    H15   S    
Cu1   O3    S    
Cu2   O2    S    
C38   H25   S    
C2    C36   A    
C11   C17   A    
C15   H4    S    
Cu1   N6    S    
C6    C7    A    
C12   O4    A    
C32   C33   A    
N3    N4    A    
C5    C10   A    
C3    C10   S    
C11   C13   A    
C4    N4    A    
C3    N3    A    
C31   O8    A    
C20   C21   A    
C30   N6    A    
C27   C28   A    
C33   H10   S    
C14   C15   A    
N7    H19   S    
C25   H8    S    
