data_mof_unit_2653.cif
_audit_creation_date              2012-12-11T17:08:23-0500
_audit_creation_method            fapswitch 2.2
_symmetry_space_group_name_H-M    P1
_symmetry_Int_Tables_number       1
_space_group_crystal_system       triclinic
_cell_length_a                    6.967177
_cell_length_b                    14.515089
_cell_length_c                    16.087865
_cell_angle_alpha                 90.023961
_cell_angle_beta                  89.953901
_cell_angle_gamma                 90.040775
_cell_volume                      1626.95174392

loop_
_atom_site_label
_atom_site_type_symbol
_atom_type_description
_atom_site_fract_x
_atom_site_fract_y
_atom_site_fract_z
_atom_type_partial_charge
O1    O     O_R   0.505700 0.583890 0.413310 -0.538837
O2    O     O_R   0.175960 0.594920 0.586080 -0.539151
O3    O     O_R   0.005660 0.416110 0.586690 -0.523322
C1    C     C_R   0.344267 0.614896 0.616367 0.717489
O4    O     O_R   0.175980 0.594920 0.413930 -0.545334
O5    O     O_R   0.005680 0.416110 0.413310 -0.537794
C2    C     C_R   0.344822 0.616907 0.385188 0.690243
O6    O     O_R   0.505680 0.583890 0.586690 -0.535054
O7    O     O_3   0.339200 0.441330 0.500000 -0.360853
V1    V     V_3+5 0.064350 0.510880 0.500000 1.431891
O8    O     O_R   0.675960 0.405080 0.413920 -0.535625
C3    C     C_R   0.845260 0.381189 0.386843 0.688479
O9    O     O_R   0.675940 0.405080 0.586070 -0.541070
C4    C     C_R   0.844650 0.383248 0.614956 0.706255
V2    V     V_3+5 0.564340 0.489120 0.500000 1.441369
O10   O     O_3   0.839360 0.558670 0.500000 -0.376746
C5    C     C_R   0.013558 0.255925 0.691810 0.026457
C6    C     C_R   0.853293 0.312874 0.681684 -0.100610
C7    C     C_R   0.701273 0.301650 0.738174 -0.188179
C8    C     C_R   0.712215 0.237466 0.803644 -0.184746
H1    H     H_    0.595799 0.233776 0.847969 0.135348
C9    C     C_R   0.877598 0.183359 0.815413 -0.084469
C10   C     C_R   0.025398 0.192181 0.756873 0.038502
C11   C     C_3   0.231963 0.212735 0.772227 -0.466435
C12   C     C_3   0.218529 0.283435 0.702598 0.200731
H2    H     H_    0.325043 0.153114 0.756299 0.153256
H3    H     H_    0.308716 0.267272 0.647477 0.120661
C13   C     C_R   0.748071 0.256743 0.184209 0.000159
C14   C     C_R   0.882850 0.185416 0.182781 -0.167400
C15   C     C_R   0.016715 0.182277 0.248196 -0.137475
C16   C     C_R   0.004910 0.242925 0.316769 0.324645
C17   C     C_R   0.858201 0.311694 0.319407 -0.170763
C18   C     C_R   0.736770 0.318335 0.250283 -0.014954
C19   C     C_3   0.522922 0.324436 0.245283 -0.427335
C20   C     C_3   0.534830 0.256605 0.172829 0.237225
H4    H     H_    0.474432 0.394158 0.226018 0.140467
H5    H     H_    0.450760 0.296863 0.301676 0.218445
H6    H     H_    0.489099 0.285956 0.112216 0.103640
C21   C     C_R   0.492330 0.751334 0.686325 0.038442
C22   C     C_R   0.351480 0.682267 0.685804 -0.197687
C23   C     C_R   0.211553 0.684333 0.750801 0.342622
C24   C     C_R   0.221957 0.752660 0.813159 -0.178731
C25   C     C_R   0.376093 0.815373 0.816815 -0.169966
C26   C     C_R   0.505758 0.815173 0.750503 0.088143
C27   C     C_3   0.719687 0.813103 0.749884 -0.380884
C28   C     C_3   0.705320 0.743764 0.679212 -0.349159
H7    H     H_    0.782653 0.880098 0.730429 0.158624
H8    H     H_    0.757663 0.673960 0.695820 0.218629
H9    H     H_    0.759403 0.770941 0.618999 0.158949
C29   C     C_R   0.507059 0.682671 0.258532 0.102280
C30   C     C_R   0.352819 0.682362 0.314501 -0.111703
C31   C     C_R   0.201232 0.744111 0.298800 -0.176918
H10   H     H_    0.078724 0.746249 0.339954 0.132765
C32   C     C_R   0.212392 0.808307 0.233273 -0.173302
H11   H     H_    0.097577 0.857686 0.225793 0.126603
C33   C     C_R   0.375781 0.812927 0.181633 -0.114620
C34   C     C_R   0.518555 0.746459 0.193935 0.102587
C35   C     C_3   0.729078 0.758832 0.205693 -0.409877
C36   C     C_3   0.716663 0.688921 0.275752 -0.398174
H12   H     H_    0.746466 0.718726 0.338083 0.169573
H13   H     H_    0.792628 0.623379 0.261793 0.169934
O11   O     O_R   0.229000 0.916070 0.913330 -0.543230
O12   O     O_R   0.558770 0.905070 0.086080 -0.540035
O13   O     O_R   0.729000 0.083900 0.086690 -0.518183
C37   C     C_R   0.389680 0.883175 0.114942 0.707191
O14   O     O_R   0.558720 0.905070 0.913930 -0.541409
O15   O     O_R   0.728960 0.083900 0.913310 -0.543887
C38   C     C_R   0.389694 0.882961 0.885425 0.708068
O16   O     O_R   0.229050 0.916070 0.086710 -0.541829
O17   O     O_3   0.395460 0.058650 0.000020 -0.355597
V3    V     V_3+5 0.670340 0.989120 0.000000 1.425773
O18   O     O_R   0.058670 0.094960 0.913900 -0.540571
C39   C     C_R   0.889778 0.117132 0.885352 0.687720
O19   O     O_R   0.058720 0.094960 0.086050 -0.528184
C40   C     C_R   0.889969 0.116885 0.114723 0.724839
V4    V     V_3+5 0.170330 0.010930 0.999970 1.437049
O20   O     O_3   0.895340 0.941350 0.999980 -0.378593
H14   H     H_    0.579730 0.346994 0.734792 0.190875
O21   O     O_3   0.449593 0.170660 0.189643 -0.625482
H15   H     H_    0.499433 0.147379 0.243542 0.296729
O22   O     O_3   0.071349 0.617905 0.759934 -0.659820
H16   H     H_    0.110575 0.561489 0.730001 0.302490
H17   H     H_    0.116163 0.752073 0.862557 0.140661
H18   H     H_    0.780301 0.783424 0.807873 0.188827
H19   H     H_    0.765258 0.829425 0.227415 0.166827
H20   H     H_    0.813043 0.733899 0.151393 0.176373
H21   H     H_    0.256940 0.242590 0.834967 0.175215
O23   O     O_3   0.239053 0.375311 0.729826 -0.649701
H22   H     H_    0.156984 0.384956 0.779615 0.299344
H23   H     H_    0.122558 0.127769 0.249399 0.165919
O24   O     O_3   0.131528 0.228103 0.381348 -0.654978
H24   H     H_    0.077380 0.254124 0.433132 0.280358

loop_
_geom_bond_atom_site_label_1
_geom_bond_atom_site_label_2
_ccdc_geom_bond_type
O14   C38   A    
O12   C37   A    
C19   H5    S    
C23   C24   A    
C4    C6    S    
C7    C8    A    
O18   V4    S    
O22   H16   S    
C27   C28   S    
C31   H10   S    
C28   H9    S    
C5    C10   A    
O19   V4    S    
C29   C36   S    
C13   C14   A    
C11   H2    S    
C6    C7    A    
O5    C3    A    
C15   C16   A    
C33   C37   S    
C33   C34   A    
O16   V4    S    
C19   C20   S    
O13   V3    S    
O8    V2    S    
C1    C22   S    
C13   C20   S    
C25   C38   S    
C10   C11   S    
O17   V3    S    
O15   C39   A    
O7    V1    S    
C19   H4    S    
C1    O6    A    
C36   H12   S    
O9    C4    A    
C3    C17   S    
O11   V4    S    
C35   H20   S    
C31   C32   A    
C5    C6    A    
C28   H8    S    
C27   H7    S    
C32   C33   A    
C36   H13   S    
O19   C40   A    
C30   C31   A    
C20   H6    S    
C11   C12   S    
O24   H24   S    
O4    C2    A    
C29   C30   A    
C35   C36   S    
C12   O23   S    
C7    H14   S    
O2    C1    A    
C25   C26   A    
C14   C15   A    
O14   V3    S    
C23   O22   S    
C8    H1    S    
C18   C19   S    
V4    O20   S    
O3    C4    A    
C21   C28   S    
O1    V2    S    
C22   C23   A    
C8    C9    A    
C13   C18   A    
O6    V2    S    
C16   O24   S    
O9    V2    S    
O17   V4    S    
C27   H18   S    
C24   C25   A    
O2    V1    S    
C35   H19   S    
V3    O20   S    
C26   C27   S    
C32   H11   S    
O1    C2    A    
C29   C34   A    
C16   C17   A    
C24   H17   S    
O12   V3    S    
O18   C39   A    
O5    V1    S    
O8    C3    A    
C21   C26   A    
C14   C40   S    
C12   H3    S    
O11   C38   A    
C5    C12   S    
C17   C18   A    
O7    V2    S    
C2    C30   S    
O4    V1    S    
O3    V1    S    
V1    O10   S    
C34   C35   S    
C37   O16   A    
C20   O21   S    
O13   C40   A    
O15   V3    S    
C11   H21   S    
O21   H15   S    
C21   C22   A    
O23   H22   S    
C9    C10   A    
C9    C39   S    
C15   H23   S    
V2    O10   S    
