data_mof_unit_3921.cif
_audit_creation_date              2012-12-10T17:49:32-0500
_audit_creation_method            fapswitch 2.2
_symmetry_space_group_name_H-M    P1
_symmetry_Int_Tables_number       1
_space_group_crystal_system       triclinic
_cell_length_a                    14.700539
_cell_length_b                    14.66296
_cell_length_c                    15.868432
_cell_angle_alpha                 76.731706
_cell_angle_beta                  101.725769
_cell_angle_gamma                 114.946639
_cell_volume                      2996.5475128

loop_
_atom_site_label
_atom_site_type_symbol
_atom_type_description
_atom_site_fract_x
_atom_site_fract_y
_atom_site_fract_z
_atom_type_partial_charge
C1    C     C_R   0.880535 0.311889 0.507795 0.886965
C2    C     C_3   0.025143 0.410131 0.072985 -0.386592
C3    C     C_3   0.006675 0.503308 0.083738 0.124909
C4    C     C_3   0.089165 0.605614 0.043936 -0.062859
C5    C     C_3   0.084112 0.609758 0.942270 0.420142
C6    C     C_1   0.004924 0.501181 0.176164 -0.031300
C7    C     C_1   0.999259 0.501787 0.823888 0.040395
C8    C     C_1   0.998092 0.501067 0.748368 -0.065605
C9    C     C_R   0.812997 0.202086 0.507177 -0.185269
C10   C     C_R   0.188092 0.795529 0.486757 -0.057831
C11   C     C_R   0.783495 0.020987 0.539731 0.392342
C12   C     C_R   0.999138 0.500071 0.659341 0.865198
C13   C     C_R   0.850811 0.124090 0.523188 0.055740
C14   C     C_R   0.707637 0.174508 0.489575 0.267117
C15   C     C_R   0.640875 0.073437 0.515677 -0.028867
C16   C     C_R   0.679087 0.995730 0.536759 -0.008069
C17   C     C_R   0.535990 0.046708 0.517377 0.123670
C18   C     C_R   0.468067 0.943389 0.520358 0.068104
C19   C     C_R   0.507980 0.867791 0.540127 -0.229393
C20   C     C_R   0.611251 0.893529 0.550616 -0.105970
C21   C     C_R   0.497796 0.118975 0.522032 -0.113212
C22   C     C_R   0.394346 0.093179 0.516342 -0.219456
C23   C     C_R   0.119728 0.687933 0.486669 0.780204
C24   C     C_R   0.325921 0.994431 0.506083 0.144794
C25   C     C_R   0.362408 0.918800 0.507308 0.091909
C26   C     C_R   0.221380 0.969708 0.495952 -0.158398
C27   C     C_R   0.152751 0.870460 0.487164 -0.158870
C28   C     C_R   0.292044 0.821223 0.493793 -0.221514
C29   C     C_R   0.736533 0.693361 0.380676 0.285652
C30   C     C_R   0.807621 0.651011 0.390697 0.035521
C31   C     C_R   0.712865 0.507945 0.487189 0.101852
C32   C     C_R   0.640949 0.549484 0.485140 -0.051075
C33   C     C_R   0.652394 0.642810 0.427945 0.071570
C34   C     C_R   0.000843 0.499841 0.340646 0.811588
C35   C     C_R   0.556676 0.500685 0.535113 0.017625
C36   C     C_R   0.474793 0.533636 0.511030 0.061855
C37   C     C_R   0.493163 0.630486 0.460282 -0.245214
C38   C     C_R   0.580370 0.684281 0.419980 -0.115852
C39   C     C_R   0.552233 0.425841 0.611180 0.321211
C40   C     C_R   0.464412 0.377147 0.651979 -0.179616
C41   C     C_R   0.379048 0.399264 0.619441 -0.017677
C42   C     C_R   0.380560 0.474224 0.545811 -0.011697
C43   C     C_R   0.292496 0.347710 0.661337 -0.302617
C44   C     C_R   0.207574 0.370573 0.631313 0.534680
C45   C     C_3   0.029442 0.410677 0.975346 0.454887
C46   C     C_R   0.286486 0.483352 0.509007 0.240588
C47   C     C_3   0.896564 0.491716 0.935987 -0.123990
C48   C     C_3   0.901625 0.494930 0.034110 -0.432775
C49   C     C_1   0.003194 0.500141 0.251536 -0.155637
C50   C     C_3   0.002734 0.502637 0.916804 0.125251
Cu1   Cu    Cu3+1 0.081750 0.475690 0.522550 0.989062
Cu2   Cu    Cu3+1 0.918250 0.524310 0.477450 1.014424
H1    H     H_    0.963114 0.339277 0.099087 0.215212
H2    H     H_    0.095204 0.408545 0.114840 0.164445
H3    H     H_    0.069150 0.667380 0.054038 0.166322
H4    H     H_    0.636490 0.831501 0.567206 0.208791
H5    H     H_    0.316774 0.763959 0.487119 0.144660
H6    H     H_    0.072531 0.852063 0.482117 0.181064
H7    H     H_    0.367873 0.151039 0.519062 0.154040
H8    H     H_    0.461195 0.787506 0.552479 0.148126
H9    H     H_    0.547716 0.195390 0.533090 0.197727
H10   H     H_    0.192808 0.026814 0.495997 0.148643
H11   H     H_    0.589179 0.757587 0.380546 0.205311
H12   H     H_    0.463410 0.322110 0.710978 0.188494
H13   H     H_    0.874971 0.691918 0.358220 0.164228
H14   H     H_    0.704257 0.433465 0.522422 0.205000
H15   H     H_    0.880988 0.557880 0.897302 0.190218
H16   H     H_    0.440228 0.666274 0.452167 0.153430
H17   H     H_    0.291385 0.290835 0.718960 0.190021
H18   H     H_    0.841634 0.426129 0.065469 0.215603
H19   H     H_    0.886666 0.561427 0.040098 0.175394
N1    N     N_R   0.795410 0.560790 0.443550 -0.216592
N2    N     N_R   0.204590 0.439170 0.556520 -0.210550
O1    O     O_R   0.977910 0.338120 0.529720 -0.553498
O2    O     O_R   0.839850 0.379180 0.491640 -0.534531
O3    O     O_R   0.069060 0.479460 0.639610 -0.520529
O4    O     O_R   0.931000 0.520530 0.601530 -0.563518
O5    O     O_R   0.160150 0.620820 0.508360 -0.584895
O6    O     O_R   0.022090 0.661880 0.470280 -0.593961
O7    O     O_R   0.069000 0.479470 0.398470 -0.601450
O8    O     O_R   0.930940 0.520540 0.360390 -0.557269
C51   C     C_3   0.132859 0.412830 0.964846 -0.664582
H20   H     H_    0.197260 0.469389 0.999150 0.228996
H21   H     H_    0.138053 0.338528 0.994795 0.245279
H22   H     H_    0.143306 0.426735 0.894992 0.272533
Cl1   Cl    Cl    0.830961 0.923298 0.566937 -0.607208
C52   C     C_3   0.959620 0.148984 0.513366 -0.657902
H23   H     H_    0.986379 0.213109 0.459208 0.209556
H24   H     H_    0.008381 0.167100 0.575293 0.274967
H25   H     H_    0.969220 0.085533 0.494744 0.253461
Cl2   Cl    Cl    0.661323 0.255800 0.408253 -0.611569
Cl3   Cl    Cl    0.942196 0.289141 0.945387 -0.587361
C53   C     C_3   0.269104 0.518741 0.412284 -0.779954
H26   H     H_    0.252256 0.587973 0.399268 0.238461
H27   H     H_    0.332477 0.533886 0.376555 0.206752
H28   H     H_    0.208124 0.454890 0.382579 0.242636
Cl4   Cl    Cl    0.104733 0.302671 0.692113 -0.576608
Cl5   Cl    Cl    0.758425 0.811157 0.310911 -0.581923
Cl6   Cl    Cl    0.658640 0.405802 0.672617 -0.673114
C54   C     C_3   0.801744 0.401271 0.906030 -0.632910
H29   H     H_    0.788277 0.330264 0.954106 0.271895
H30   H     H_    0.733783 0.418661 0.899725 0.229309
H31   H     H_    0.806210 0.387566 0.841390 0.284557
Cl7   Cl    Cl    0.205500 0.642125 0.907111 -0.635049
C55   C     C_3   0.057051 0.701434 0.892576 -0.793939
H32   H     H_    0.122017 0.774499 0.902255 0.272049
H33   H     H_    0.038941 0.699574 0.821407 0.249257
H34   H     H_    0.993201 0.705209 0.916685 0.192650
C56   C     C_3   0.195682 0.628962 0.095377 -0.744462
H35   H     H_    0.225289 0.571349 0.094522 0.248156
H36   H     H_    0.249131 0.705203 0.067784 0.275367
H37   H     H_    0.194706 0.631817 0.164474 0.212863

loop_
_geom_bond_atom_site_label_1
_geom_bond_atom_site_label_2
_ccdc_geom_bond_type
C10   C27   A    
C31   H14   S    
C4    C56   S    
C53   H26   S    
C41   C42   A    
C36   C42   A    
C45   C51   S    
Cu1   O1    S    
C52   H23   S    
Cu2   O2    S    
C7    C8    T    
C5    C55   S    
C28   H5    S    
C25   C28   A    
C55   H33   S    
C26   C27   A    
C29   C30   A    
C29   Cl5   S    
C1    O1    A    
C36   C37   A    
C24   C26   A    
C56   H36   S    
C42   C46   A    
C11   Cl1   S    
C15   C16   A    
C37   H16   S    
C29   C33   A    
C3    C48   S    
C18   C19   A    
C44   Cl4   S    
C45   Cl3   S    
C9    C13   A    
Cu1   O7    S    
C34   O7    A    
C35   C36   A    
C47   C48   S    
C34   O8    A    
Cu2   O6    S    
C21   H9    S    
C8    C12   S    
C3    C6    S    
C5    Cl7   S    
C43   H17   S    
C21   C22   A    
C41   C43   A    
Cu2   O8    S    
C18   C25   A    
C47   H15   S    
C47   C50   S    
C2    C45   S    
C55   H34   S    
Cu1   Cu2   S    
C1    O2    A    
C32   C35   A    
C1    C9    S    
C24   C25   A    
C2    H2    S    
C56   H37   S    
C22   H7    S    
C2    H1    S    
C54   H31   S    
C17   C21   A    
C47   C54   S    
C35   C39   A    
C9    C14   A    
C37   C38   A    
Cu2   N1    S    
C11   C16   A    
C39   Cl6   S    
C31   C32   A    
C16   C20   A    
C12   O4    A    
C13   C52   S    
C54   H30   S    
C17   C18   A    
Cu1   O3    S    
C31   N1    A    
C53   H28   S    
C51   H21   S    
C12   O3    A    
C4    H3    S    
C10   C23   S    
C22   C24   A    
C5    C50   S    
C48   H19   S    
C3    C4    S    
C39   C40   A    
C38   H11   S    
C10   C28   A    
C15   C17   A    
C40   C41   A    
C34   C49   S    
Cu1   N2    S    
C7    C50   S    
C48   H18   S    
C4    C5    S    
C27   H6    S    
C30   N1    A    
C19   H8    S    
C51   H22   S    
C55   H32   S    
C33   C38   A    
C40   H12   S    
C32   C33   A    
C19   C20   A    
C52   H24   S    
C2    C3    S    
C26   H10   S    
Cu1   O5    S    
C56   H35   S    
C11   C13   A    
C46   C53   S    
C45   C50   S    
C43   C44   A    
C54   H29   S    
C20   H4    S    
C23   O5    A    
C44   N2    A    
C14   Cl2   S    
C30   H13   S    
C53   H27   S    
C51   H20   S    
C52   H25   S    
C14   C15   A    
C23   O6    A    
C46   N2    A    
C6    C49   T    
Cu2   O4    S    
