data_mof_unit_3938.cif
_audit_creation_date              2012-12-11T17:15:57-0500
_audit_creation_method            fapswitch 2.2
_symmetry_space_group_name_H-M    P1
_symmetry_Int_Tables_number       1
_space_group_crystal_system       triclinic
_cell_length_a                    14.690261
_cell_length_b                    7.345307
_cell_length_c                    13.438597
_cell_angle_alpha                 90.116928
_cell_angle_beta                  99.96526
_cell_angle_gamma                 89.865465
_cell_volume                      1428.20124392

loop_
_atom_site_label
_atom_site_type_symbol
_atom_type_description
_atom_site_fract_x
_atom_site_fract_y
_atom_site_fract_z
_atom_type_partial_charge
O1    O     O_R   0.398210 0.494340 0.401550 -0.528615
O2    O     O_R   0.601790 0.994340 0.598450 -0.528788
O3    O     O_R   0.586310 0.821730 0.403360 -0.497842
O4    O     O_R   0.413690 0.321730 0.596640 -0.496752
C1    C     C_R   0.614708 0.655759 0.382105 0.745681
C2    C     C_R   0.385478 0.156150 0.618037 0.749314
O5    O     O_R   0.397970 0.823900 0.389580 -0.534272
O6    O     O_R   0.602030 0.323900 0.610420 -0.534790
O7    O     O_R   0.412100 0.996500 0.584560 -0.554872
O8    O     O_R   0.587900 0.496500 0.415440 -0.555193
C3    C     C_R   0.365350 0.655403 0.363363 0.711881
C4    C     C_R   0.634654 0.155357 0.636639 0.709009
O9    O     O_3   0.504860 0.661550 0.563990 -0.369203
O10   O     O_3   0.495140 0.161550 0.436010 -0.369578
V1    V     V_3+5 0.499100 0.935510 0.488130 1.535731
V2    V     V_3+5 0.500900 0.435510 0.511870 1.537492
C5    C     C_1   0.715968 0.144777 0.716723 -0.122087
C6    C     C_1   0.284031 0.644839 0.283275 -0.122176
C7    C     C_1   0.784074 0.134011 0.783255 -0.082734
C8    C     C_1   0.215924 0.633959 0.216750 -0.087799
C9    C     C_3   0.284273 0.217239 0.871314 0.118695
C10   C     C_3   0.716818 0.717252 0.130471 0.120640
H1    H     H_    0.314471 0.118555 0.930177 0.110860
H2    H     H_    0.686291 0.621785 0.070960 0.121609
C11   C     C_3   0.355332 0.243188 0.796390 0.467783
C12   C     C_3   0.644814 0.741912 0.204217 0.469593
C13   C     C_3   0.150165 0.246353 0.717288 0.478689
C14   C     C_3   0.850050 0.752930 0.283747 0.493084
C15   C     C_3   0.219794 0.932997 0.782567 0.504555
C16   C     C_3   0.786925 0.434233 0.223267 0.473054
C17   C     C_3   0.190642 0.130832 0.815666 -0.249618
C18   C     C_3   0.811623 0.632538 0.186642 -0.234527
C19   C     C_3   0.314879 0.150025 0.689413 -0.195531
C20   C     C_3   0.685676 0.649743 0.310980 -0.213626
C21   C     C_3   0.217666 0.232752 0.635130 0.286552
C22   C     C_3   0.782451 0.735045 0.365826 0.288428
C23   C     C_3   0.294127 0.947323 0.712670 -0.443004
C24   C     C_3   0.707767 0.447094 0.286549 -0.389610
H3    H     H_    0.359145 0.875915 0.744123 0.183371
H4    H     H_    0.644993 0.376341 0.247959 0.201950
H5    H     H_    0.272188 0.868478 0.641927 0.237551
H6    H     H_    0.725698 0.366208 0.357100 0.225895
O11   O     O_R   0.912140 0.786650 0.084610 -0.492461
O12   O     O_R   0.087860 0.286650 0.915390 -0.486780
O13   O     O_R   0.102040 0.454810 0.110430 -0.520655
O14   O     O_R   0.897960 0.954810 0.889570 -0.520388
C25   C     C_R   0.134608 0.623406 0.136669 0.790331
C26   C     C_R   0.865385 0.123449 0.863335 0.779779
O15   O     O_R   0.913690 0.457060 0.096650 -0.547183
O16   O     O_R   0.086310 0.957060 0.903350 -0.526632
O17   O     O_R   0.898200 0.284560 0.901540 -0.546659
O18   O     O_R   0.101800 0.784560 0.098460 -0.546797
C27   C     C_R   0.883675 0.624764 0.115905 0.820686
C28   C     C_R   0.117482 0.124171 0.885456 0.826200
O19   O     O_3   0.995160 0.617270 0.936040 -0.364851
O20   O     O_3   0.004840 0.117270 0.063960 -0.381764
V3    V     V_3+5 0.000900 0.343280 0.011870 1.618627
V4    V     V_3+5 0.999100 0.843280 0.988130 1.643477
Cl1   Cl    Cl    0.274922 0.408661 0.953291 -0.572911
Cl2   Cl    Cl    0.724604 0.907376 0.047900 -0.593314
Cl3   Cl    Cl    0.031758 0.179266 0.664462 -0.565274
Cl4   Cl    Cl    0.970126 0.696467 0.336638 -0.568854
N1    N     N_3   0.177183 0.106695 0.553262 -0.544671
H7    H     H_    0.223666 0.087858 0.503307 0.221912
H8    H     H_    0.118754 0.164816 0.509123 0.306396
N2    N     N_3   0.823957 0.608764 0.446819 -0.535307
H9    H     H_    0.777545 0.587285 0.496500 0.222439
H10   H     H_    0.881815 0.668005 0.491305 0.307161
N3    N     N_3   0.444580 0.161515 0.842611 -0.571715
H11   H     H_    0.491695 0.164517 0.792624 0.228992
H12   H     H_    0.438570 0.027373 0.865662 0.218491
N4    N     N_3   0.556451 0.657536 0.157292 -0.576941
H13   H     H_    0.509816 0.653348 0.207769 0.225456
H14   H     H_    0.563994 0.526154 0.130116 0.237660
Cl5   Cl    Cl    0.383549 0.479796 0.784386 -0.601998
Cl6   Cl    Cl    0.613976 0.977956 0.215414 -0.582950
N5    N     N_3   0.137511 0.433075 0.747948 -0.561707
H15   H     H_    0.096903 0.496727 0.686633 0.305717
H16   H     H_    0.199930 0.500802 0.766633 0.313727
N6    N     N_3   0.857824 0.940044 0.251469 -0.595448
H17   H     H_    0.900369 0.006250 0.310143 0.310121
H18   H     H_    0.794289 0.004495 0.239406 0.293559
N7    N     N_3   0.229251 0.408460 0.584911 -0.660799
H19   H     H_    0.257622 0.511791 0.632862 0.277925
H20   H     H_    0.165343 0.455631 0.547097 0.269490
N8    N     N_3   0.769780 0.909230 0.417480 -0.664623
H21   H     H_    0.735343 0.009766 0.371703 0.276061
H22   H     H_    0.833869 0.961973 0.451009 0.272918
Cl7   Cl    Cl    0.121557 0.824290 0.711366 -0.563179
Cl8   Cl    Cl    0.885146 0.337015 0.303902 -0.595572
N9    N     N_3   0.255320 0.811662 0.868813 -0.555027
H23   H     H_    0.231746 0.845224 0.935152 0.229110
H24   H     H_    0.327103 0.816951 0.889231 0.250850
N10   N     N_3   0.757890 0.304050 0.139615 -0.583809
H25   H     H_    0.813173 0.222257 0.127791 0.310478
H26   H     H_    0.735030 0.364100 0.069866 0.209907

loop_
_geom_bond_atom_site_label_1
_geom_bond_atom_site_label_2
_ccdc_geom_bond_type
N2    H10   S    
N1    H8    S    
C3    C6    S    
C12   N4    S    
O1    C3    A    
C16   Cl8   S    
O2    C4    A    
C2    O7    A    
C15   Cl7   S    
N5    H15   S    
O5    C3    A    
C9    C17   S    
O13   V3    S    
O16   C28   A    
C10   C18   S    
C24   H4    S    
C9    Cl1   S    
C10   Cl2   S    
C22   N2    S    
O15   V3    S    
O20   V3    S    
C16   C24   S    
N3    H12   S    
C13   Cl3   S    
O11   V4    S    
C5    C7    T    
O11   C27   A    
C26   O17   A    
C4    C5    S    
C12   Cl6   S    
O17   V3    S    
C20   C22   S    
C16   N10   S    
O13   C25   A    
N2    H9    S    
O6    V2    S    
O14   V4    S    
N3    H11   S    
C12   C20   S    
N5    H16   S    
O14   C26   A    
N8    H22   S    
C13   C17   S    
O16   V4    S    
C14   C18   S    
N4    H14   S    
N9    H23   S    
C21   N7    S    
N8    H21   S    
N4    H13   S    
C22   N8    S    
C19   C23   S    
C11   Cl5   S    
O4    V2    S    
N9    H24   S    
N7    H19   S    
O12   V3    S    
O6    C4    A    
C1    C20   S    
O1    V2    S    
N10   H26   S    
O2    V1    S    
O18   V4    S    
N6    H18   S    
N7    H20   S    
C9    H1    S    
C10   H2    S    
O9    V2    S    
O4    C2    A    
C11   N3    S    
O3    C1    A    
C18   C27   S    
C15   N9    S    
O3    V1    S    
C9    C11   S    
C20   C24   S    
N6    H17   S    
C13   N5    S    
C24   H6    S    
C25   O18   A    
C2    C19   S    
C13   C21   S    
O7    V1    S    
C1    O8    A    
C23   H3    S    
O8    V2    S    
C16   C18   S    
O15   C27   A    
O5    V1    S    
C19   C21   S    
C6    C8    T    
C17   C28   S    
C23   H5    S    
N10   H25   S    
C14   N6    S    
C8    C25   S    
C11   C19   S    
N1    H7    S    
O12   C28   A    
C14   C22   S    
C15   C17   S    
C10   C12   S    
O19   V4    S    
C15   C23   S    
O10   V1    S    
C21   N1    S    
C7    C26   S    
C14   Cl4   S    
