data_mof_unit_30.cif
_audit_creation_date              2012-10-26T20:33:18-0400
_audit_creation_method            fapswitch 2.2
_symmetry_space_group_name_H-M    P1
_symmetry_Int_Tables_number       1
_space_group_crystal_system       triclinic
_cell_length_a                    17.722256
_cell_length_b                    10.755521
_cell_length_c                    9.571591
_cell_angle_alpha                 90.461001
_cell_angle_beta                  90.200645
_cell_angle_gamma                 90.503367
_cell_volume                      1824.3199221

loop_
_atom_site_label
_atom_site_type_symbol
_atom_type_description
_atom_site_fract_x
_atom_site_fract_y
_atom_site_fract_z
_atom_type_partial_charge
Br1   Br    Br    0.646556 0.685847 0.146113 -0.472016
Br2   Br    Br    0.715364 0.305540 0.288827 -0.423531
Br3   Br    Br    0.902309 0.321365 0.279831 -0.349145
Br4   Br    Br    0.104031 0.518685 0.191348 -0.466775
C1    C     C_R   0.499190 0.262616 0.499258 0.558741
C2    C     C_R   0.114868 0.515795 0.495227 0.043561
C3    C     C_R   0.435212 0.062867 0.540601 -0.005654
C4    C     C_R   0.355619 0.501488 0.499765 0.536002
C5    C     C_R   0.498115 0.129352 0.494955 0.008634
C6    C     C_R   0.556814 0.065148 0.428744 -0.144836
C7    C     C_R   0.557436 0.935261 0.430397 -0.158616
C8    C     C_R   0.499315 0.870383 0.498242 -0.003080
C9    C     C_R   0.435920 0.935114 0.542180 0.032528
C10   C     C_3   0.389511 0.929648 0.672296 -0.114278
C11   C     C_3   0.388299 0.071940 0.669540 -0.249407
C12   C     C_R   0.885807 0.511185 0.493100 -0.001391
C13   C     C_R   0.493453 0.608441 0.074229 0.160314
C14   C     C_R   0.502471 0.391934 0.073194 0.024100
C15   C     C_R   0.502759 0.391922 0.925080 0.009244
C16   C     C_R   0.499815 0.737306 0.500264 0.540040
C17   C     C_R   0.491858 0.608279 0.927123 0.117665
C18   C     C_3   0.541937 0.720171 0.920547 -0.227605
C19   C     C_3   0.545123 0.719458 0.078727 0.023907
C20   C     C_R   0.644384 0.500299 0.500009 0.573297
C21   C     C_R   0.847013 0.589936 0.583288 -0.115734
C22   C     C_R   0.767825 0.589270 0.587281 -0.018099
C23   C     C_1   0.966557 0.514784 0.494751 0.062792
C24   C     C_R   0.727685 0.504198 0.499256 0.008263
C25   C     C_R   0.767620 0.424797 0.407132 0.176939
C26   C     C_R   0.846783 0.428919 0.404149 0.214461
C27   C     C_3   0.312216 0.863466 0.655621 -0.275640
C28   C     C_3   0.273022 0.881163 0.514277 -0.404289
C29   C     C_3   0.725579 0.676656 0.685172 -0.258820
C30   C     C_3   0.771298 0.785396 0.746834 -0.418231
C31   C     C_1   0.034214 0.516286 0.495606 0.065588
C32   C     C_R   0.153689 0.513140 0.622572 -0.144421
C33   C     C_R   0.232231 0.508520 0.624429 -0.146983
C34   C     C_R   0.272713 0.506339 0.498560 -0.028916
C35   C     C_R   0.233324 0.510182 0.370979 -0.105618
C36   C     C_R   0.154716 0.514804 0.368808 0.180574
Cu1   Cu    Cu3+1 0.500000 0.499980 0.640670 0.938745
Cu2   Cu    Cu3+1 0.500000 0.500020 0.359330 1.014809
H1    H     H_    0.879716 0.651214 0.650638 0.138099
H2    H     H_    0.518305 0.802203 0.127237 0.122358
H3    H     H_    0.123178 0.513846 0.720504 0.150914
H4    H     H_    0.261125 0.506345 0.724252 0.147211
H5    H     H_    0.263379 0.509300 0.272659 0.155781
H6    H     H_    0.603501 0.115005 0.382171 0.178884
H7    H     H_    0.263921 0.981153 0.492958 0.162881
H8    H     H_    0.306968 0.839501 0.428854 0.159422
H9    H     H_    0.217251 0.833283 0.515449 0.157241
H10   H     H_    0.320703 0.762212 0.670833 0.159749
H11   H     H_    0.274239 0.896175 0.740132 0.157476
H12   H     H_    0.604494 0.886075 0.384671 0.167709
H13   H     H_    0.813995 0.751516 0.822351 0.181451
H14   H     H_    0.799154 0.839073 0.662492 0.172250
H15   H     H_    0.732829 0.848586 0.804290 0.168807
H16   H     H_    0.677473 0.718068 0.627569 0.153654
H17   H     H_    0.703169 0.620783 0.772934 0.192701
H18   H     H_    0.421575 0.894785 0.763100 0.125656
H19   H     H_    0.332065 0.112762 0.648528 0.144838
H20   H     H_    0.419563 0.115799 0.758273 0.123842
H21   H     H_    0.505583 0.304075 0.126526 0.131865
H22   H     H_    0.506242 0.303950 0.870632 0.122938
H23   H     H_    0.596303 0.700675 0.868628 0.171170
H24   H     H_    0.512728 0.802753 0.879710 0.091040
N1    N     N_R   0.500470 0.500930 0.147930 -0.207230
N2    N     N_R   0.500480 0.500890 0.852020 -0.229829
O1    O     O_R   0.500000 0.319640 0.618810 -0.511139
O2    O     O_R   0.500010 0.319680 0.381230 -0.504785
O3    O     O_R   0.391250 0.499990 0.618840 -0.504147
O4    O     O_R   0.391260 0.500020 0.381250 -0.509669
O5    O     O_R   0.499990 0.680320 0.618770 -0.518369
O6    O     O_R   0.500000 0.680360 0.381190 -0.491655
O7    O     O_R   0.608740 0.499980 0.618750 -0.510482
O8    O     O_R   0.608750 0.500010 0.381160 -0.407750

loop_
_geom_bond_atom_site_label_1
_geom_bond_atom_site_label_2
_ccdc_geom_bond_type
C30   H14   S    
C29   H16   S    
Cu1   Cu2   S    
C27   H10   S    
C21   H1    S    
C18   H23   S    
C13   C19   S    
Br2   C25   S    
Cu1   O1    S    
C32   C33   A    
C33   C34   A    
C34   C35   A    
C14   H21   S    
C12   C26   A    
Cu2   O2    S    
C2    C31   S    
C14   C15   A    
C18   H24   S    
C1    O1    A    
Br4   C36   S    
C30   H15   S    
C5    C6    A    
C10   C27   S    
Cu1   O3    S    
C12   C23   S    
C3    C11   S    
C30   H13   S    
C29   H17   S    
C9    C10   S    
C4    C34   S    
Cu1   N2    S    
Cu2   O6    S    
C13   N1    A    
C15   N2    A    
C35   C36   A    
C20   O8    A    
C23   C31   T    
C14   N1    A    
C13   C17   A    
C19   H2    S    
Br3   C26   S    
C28   H9    S    
C1    C5    S    
C25   C26   A    
Cu1   O7    S    
C22   C29   S    
C27   C28   S    
C15   H22   S    
C8    C16   S    
Cu2   O4    S    
C29   C30   S    
C11   H19   S    
C16   O6    A    
C32   H3    S    
C27   H11   S    
C28   H8    S    
C7    H12   S    
Br1   C19   S    
C17   N2    A    
C6    H6    S    
Cu2   N1    S    
C2    C36   A    
C35   H5    S    
C12   C21   A    
C3    C5    A    
C24   C25   A    
C4    O3    A    
C18   C19   S    
C4    O4    A    
C22   C24   A    
C20   C24   S    
C1    O2    A    
C7    C8    A    
C20   O7    A    
C10   H18   S    
Cu2   O8    S    
C21   C22   A    
C11   H20   S    
C2    C32   A    
C16   O5    A    
C28   H7    S    
C6    C7    A    
Cu1   O5    S    
C3    C9    A    
C8    C9    A    
C10   C11   S    
C33   H4    S    
C17   C18   S    
