data_mof_unit_4794.cif
_audit_creation_date              2013-03-05T15:41:35-0500
_audit_creation_method            fapswitch 2.2
_symmetry_space_group_name_H-M    P1
_symmetry_Int_Tables_number       1
_space_group_crystal_system       triclinic
_cell_length_a                    24.569813
_cell_length_b                    17.427705
_cell_length_c                    15.508435
_cell_angle_alpha                 90.175003
_cell_angle_beta                  129.147939
_cell_angle_gamma                 89.73624
_cell_volume                      5149.88524397

loop_
_atom_site_label
_atom_site_type_symbol
_atom_site_description
_atom_site_fract_x
_atom_site_fract_y
_atom_site_fract_z
_atom_type_partial_charge
C1    C     C_R   0.347701 0.363274 0.230857 -0.120380
C2    C     C_R   0.334890 0.610162 0.199542 -0.104295
C3    C     C_R   0.834937 0.890001 0.199658 -0.110432
C4    C     C_R   0.834741 0.109660 0.199140 -0.114478
H1    H     H_    0.296045 0.352914 0.204505 0.132447
H2    H     H_    0.281736 0.608517 0.170429 0.120503
H3    H     H_    0.781879 0.891724 0.170978 0.118745
H4    H     H_    0.781590 0.107869 0.170061 0.118984
N1    N     N_R   0.389430 0.421450 0.294590 -0.048106
N2    N     N_R   0.389430 0.578550 0.294590 -0.050703
N3    N     N_R   0.889430 0.921450 0.294590 -0.050015
N4    N     N_R   0.889430 0.078550 0.294590 -0.049295
C5    C     C_R   0.653727 0.364533 0.764563 -0.141419
C6    C     C_R   0.654402 0.634219 0.766657 -0.142453
C7    C     C_R   0.154446 0.865447 0.766252 -0.145285
C8    C     C_R   0.166667 0.109079 0.798404 -0.141502
H5    H     H_    0.702114 0.351761 0.779648 0.097087
H6    H     H_    0.702906 0.646470 0.782105 0.097442
H7    H     H_    0.202948 0.852874 0.781561 0.097461
H8    H     H_    0.218715 0.110099 0.823000 0.092170
N5    N     N_R   0.612200 0.424040 0.705410 -0.036433
N6    N     N_R   0.612200 0.575960 0.705410 -0.036125
N7    N     N_R   0.112200 0.924040 0.705410 -0.035778
N8    N     N_R   0.112200 0.075960 0.705410 -0.036067
C9    C     C_R   0.615122 0.395914 0.407579 -0.141157
C10   C     C_R   0.613904 0.604941 0.406629 -0.133160
C11   C     C_R   0.114404 0.896081 0.406709 -0.132991
C12   C     C_R   0.114509 0.103956 0.407315 -0.137815
H9    H     H_    0.593004 0.394712 0.321373 0.090878
H10   H     H_    0.590537 0.607579 0.319902 0.091542
H11   H     H_    0.091086 0.893668 0.319980 0.092855
H12   H     H_    0.091387 0.106966 0.320703 0.097322
N9    N     N_R   0.581780 0.422390 0.443390 -0.033230
N10   N     N_R   0.581780 0.577610 0.443390 -0.033048
N11   N     N_R   0.081780 0.922390 0.443390 -0.033119
N12   N     N_R   0.081780 0.077610 0.443390 -0.033502
C13   C     C_R   0.403085 0.367344 0.593479 -0.138494
C14   C     C_R   0.407131 0.638123 0.592363 -0.136649
C15   C     C_R   0.906091 0.863132 0.592359 -0.137300
C16   C     C_R   0.912726 0.141890 0.593515 -0.134708
H13   H     H_    0.423160 0.361117 0.677955 0.094521
H14   H     H_    0.426151 0.646024 0.676037 0.094980
H15   H     H_    0.925193 0.855645 0.676139 0.095483
H16   H     H_    0.939022 0.154071 0.679800 0.100635
N13   N     N_R   0.419850 0.423100 0.556610 -0.038597
N14   N     N_R   0.419850 0.576900 0.556610 -0.040177
N15   N     N_R   0.919850 0.923100 0.556610 -0.039843
N16   N     N_R   0.919850 0.076900 0.556610 -0.040922
C17   C     C_R   0.689291 0.397428 0.592047 -0.142184
C18   C     C_R   0.688880 0.602804 0.591437 -0.144279
C19   C     C_R   0.189266 0.898196 0.591379 -0.145037
C20   C     C_R   0.188877 0.102507 0.592336 -0.132031
N17   N     N_R   0.627410 0.423100 0.556610 -0.032101
N18   N     N_R   0.627410 0.576900 0.556610 -0.032385
N19   N     N_R   0.127410 0.923100 0.556610 -0.032524
N20   N     N_R   0.127410 0.076900 0.556610 -0.032918
C21   C     C_R   0.328252 0.366830 0.408002 -0.152672
C22   C     C_R   0.335737 0.640792 0.406925 -0.137106
C23   C     C_R   0.834619 0.860372 0.406790 -0.136960
C24   C     C_R   0.838146 0.142728 0.407849 -0.135614
H17   H     H_    0.280304 0.360453 0.324142 0.105307
H18   H     H_    0.293071 0.652994 0.320789 0.118160
H19   H     H_    0.791792 0.848551 0.320606 0.118387
H20   H     H_    0.795029 0.155285 0.322024 0.117364
N21   N     N_R   0.374220 0.422390 0.443390 -0.035013
N22   N     N_R   0.374220 0.577610 0.443390 -0.039071
N23   N     N_R   0.874220 0.922390 0.443390 -0.039279
N24   N     N_R   0.874220 0.077610 0.443390 -0.039964
C25   C     C_R   0.565009 0.366100 0.770933 -0.075156
C26   C     C_R   0.566235 0.632283 0.774256 -0.075928
C27   C     C_R   0.066065 0.867498 0.773457 -0.074111
C28   C     C_R   0.076769 0.108038 0.801208 -0.085754
H21   H     H_    0.534210 0.355106 0.796797 0.136757
H22   H     H_    0.536400 0.642032 0.802308 0.136430
H23   H     H_    0.035899 0.857557 0.800750 0.137129
H24   H     H_    0.047758 0.106206 0.832008 0.137834
N25   N     N_R   0.555000 0.424040 0.705410 -0.049660
N26   N     N_R   0.555000 0.575960 0.705410 -0.048935
N27   N     N_R   0.055000 0.924040 0.705410 -0.048595
N28   N     N_R   0.055000 0.075960 0.705410 -0.048518
C29   C     C_R   0.441044 0.361106 0.235762 -0.143245
C30   C     C_R   0.426574 0.612305 0.201072 -0.149264
C31   C     C_R   0.926441 0.887828 0.200705 -0.148803
C32   C     C_R   0.926407 0.111838 0.200692 -0.148361
H25   H     H_    0.477493 0.346127 0.221495 0.102194
H26   H     H_    0.456899 0.612409 0.172443 0.101214
H27   H     H_    0.956635 0.887645 0.171842 0.101698
H28   H     H_    0.956738 0.111780 0.172071 0.103894
N29   N     N_R   0.446630 0.421450 0.294590 -0.044352
N30   N     N_R   0.446630 0.578550 0.294590 -0.044251
N31   N     N_R   0.946630 0.921450 0.294590 -0.043362
N32   N     N_R   0.946630 0.078550 0.294590 -0.043181
C33   C     C_R   0.380710 0.322218 0.198432 0.141304
C34   C     C_R   0.356602 0.631787 0.139492 0.147411
C35   C     C_R   0.856507 0.868477 0.139232 0.148352
C36   C     C_R   0.856342 0.130994 0.138844 0.148533
C37   C     C_R   0.624061 0.325331 0.803722 -0.024190
C38   C     C_R   0.625390 0.672670 0.807722 -0.023314
C39   C     C_R   0.125357 0.826993 0.806856 -0.022555
C40   C     C_R   0.146458 0.129131 0.861332 -0.013537
C41   C     C_R   0.683479 0.380874 0.499800 -0.005172
C42   C     C_R   0.682168 0.619962 0.498524 -0.006151
C43   C     C_R   0.182943 0.881996 0.498530 -0.004588
C44   C     C_R   0.182656 0.118892 0.499812 -0.007987
C45   C     C_R   0.349106 0.327321 0.501145 0.007918
C46   C     C_R   0.356887 0.681609 0.499846 0.004671
C47   C     C_R   0.855180 0.820252 0.499739 0.004799
C48   C     C_R   0.861686 0.185362 0.501123 -0.000739
Ni1   Ni    Ni4+2 0.382890 0.500000 0.370170 0.220646
Ni2   Ni    Ni4+2 0.882890 0.000000 0.370170 0.213451
Ni3   Ni    Ni4+2 0.618740 0.500000 0.629830 0.217046
Ni4   Ni    Ni4+2 0.118740 0.000000 0.629830 0.213862
Ni5   Ni    Ni4+2 0.514090 0.500000 0.370170 0.212654
Ni6   Ni    Ni4+2 0.014090 0.000000 0.370170 0.212975
Ni7   Ni    Ni4+2 0.487550 0.500000 0.629830 0.216038
Ni8   Ni    Ni4+2 0.987550 0.000000 0.629830 0.215627
C49   C     C_3   0.353463 0.217867 0.607494 -0.361035
C50   C     C_3   0.357892 0.793464 0.601602 -0.362270
C51   C     C_3   0.856572 0.708518 0.601286 -0.361240
C52   C     C_3   0.860388 0.293630 0.607001 -0.378799
H29   H     H_    0.380324 0.252929 0.684254 0.166047
H30   H     H_    0.389888 0.760809 0.680827 0.169770
H31   H     H_    0.888396 0.741137 0.680576 0.169383
H32   H     H_    0.889679 0.258501 0.683930 0.158722
H33   H     H_    0.394687 0.187487 0.610762 0.173818
H34   H     H_    0.394770 0.827326 0.598146 0.169361
H35   H     H_    0.893624 0.674694 0.597675 0.169125
H36   H     H_    0.899415 0.328005 0.609493 0.165397
C53   C     C_3   0.808191 0.654172 0.602905 -0.406435
C54   C     C_3   0.810569 0.347219 0.607231 -0.400356
C55   C     C_3   0.307032 0.159537 0.607404 -0.407969
C56   C     C_3   0.309167 0.847737 0.603310 -0.406221
H37   H     H_    0.823350 0.593466 0.605235 0.157221
H38   H     H_    0.825814 0.408095 0.612155 0.156376
H39   H     H_    0.325608 0.100160 0.612010 0.160117
H40   H     H_    0.324111 0.908452 0.606213 0.158421
H41   H     H_    0.312610 0.169747 0.683377 0.157231
H42   H     H_    0.316616 0.836121 0.680579 0.156782
H43   H     H_    0.815770 0.665471 0.680417 0.156609
H44   H     H_    0.816625 0.334490 0.683059 0.153219
H45   H     H_    0.275320 0.348688 0.571161 0.159633
H46   H     H_    0.288275 0.659474 0.578902 0.159028
H47   H     H_    0.786656 0.842736 0.579419 0.159044
H48   H     H_    0.789245 0.157887 0.572264 0.159082
H49   H     H_    0.712425 0.762500 0.572611 0.157124
H50   H     H_    0.715065 0.236904 0.568796 0.157553
H51   H     H_    0.205905 0.262882 0.568547 0.162036
H52   H     H_    0.213396 0.739555 0.571515 0.157536
C57   C     C_3   0.250640 0.310509 0.497437 -0.405111
C58   C     C_3   0.260225 0.694743 0.501872 -0.397641
C59   C     C_3   0.758590 0.807504 0.502310 -0.398170
C60   C     C_3   0.762555 0.196022 0.498185 -0.390432
C61   C     C_3   0.272625 0.214555 0.398720 -0.380433
C62   C     C_3   0.273056 0.790458 0.392962 -0.370552
C63   C     C_3   0.771444 0.711898 0.392661 -0.368704
C64   C     C_3   0.779055 0.296394 0.398443 -0.372383
C65   C     C_3   0.307595 0.268488 0.501314 0.353991
C66   C     C_3   0.313379 0.739467 0.499040 0.347040
C67   C     C_3   0.811770 0.762695 0.498968 0.346296
C68   C     C_3   0.817479 0.242417 0.501295 0.356844
H53   H     H_    0.736995 0.747328 0.316326 0.181986
H54   H     H_    0.746915 0.263287 0.319596 0.180246
H55   H     H_    0.238794 0.247133 0.319482 0.178976
H56   H     H_    0.238774 0.755237 0.316411 0.182475
H57   H     H_    0.313528 0.184623 0.400707 0.158764
H58   H     H_    0.310662 0.821599 0.388513 0.165633
H59   H     H_    0.809046 0.680620 0.387850 0.165588
H60   H     H_    0.817964 0.330004 0.399743 0.163201
C69   C     C_3   0.730594 0.668258 0.498541 0.377441
C70   C     C_3   0.733547 0.334191 0.500424 0.378068
C71   C     C_3   0.229607 0.169617 0.500445 0.369375
C72   C     C_3   0.231704 0.833934 0.498563 0.376018
C73   C     C_3   0.709728 0.752067 0.499068 -0.383193
C74   C     C_3   0.712966 0.249816 0.496414 -0.387023
C75   C     C_3   0.204327 0.252258 0.496110 -0.378421
C76   C     C_3   0.211009 0.750178 0.498362 -0.384058
C77   C     C_3   0.724718 0.654513 0.393925 -0.401315
C78   C     C_3   0.729678 0.351104 0.398392 -0.398347
C79   C     C_3   0.226511 0.155536 0.398576 -0.384472
C80   C     C_3   0.226079 0.848002 0.394313 -0.398833
H61   H     H_    0.740807 0.594718 0.393861 0.157464
H62   H     H_    0.744579 0.411736 0.400681 0.155817
H63   H     H_    0.244803 0.096362 0.401324 0.157352
H64   H     H_    0.242144 0.907743 0.394926 0.159415
H65   H     H_    0.669999 0.662653 0.316246 0.162430
H66   H     H_    0.675597 0.342662 0.319337 0.162028
H67   H     H_    0.172153 0.161699 0.319245 0.173023
H68   H     H_    0.171452 0.840274 0.316355 0.163317
H69   H     H_    0.217630 0.347206 0.421807 0.165724
H70   H     H_    0.228818 0.654790 0.429772 0.164745
H71   H     H_    0.726904 0.847493 0.430291 0.164203
H72   H     H_    0.731357 0.158635 0.423110 0.163488
H73   H     H_    0.654687 0.763523 0.423363 0.163836
H74   H     H_    0.658174 0.239161 0.419641 0.162062
H75   H     H_    0.149009 0.260563 0.419371 0.164095
H76   H     H_    0.156116 0.738910 0.422280 0.164349
H77   H     H_    0.217702 0.621743 0.987381 0.157069
H78   H     H_    0.295042 0.221035 0.182713 0.151114
H79   H     H_    0.717363 0.121077 0.986689 0.155472
H80   H     H_    0.717373 0.877798 0.988378 0.154490
H81   H     H_    0.714941 0.227890 0.825648 0.128785
H82   H     H_    0.713897 0.770871 0.826255 0.129316
H83   H     H_    0.214138 0.728216 0.825448 0.129932
H84   H     H_    0.285691 0.130179 0.001659 0.129780
C81   C     C_2   0.651892 0.255184 0.871182 0.369922
C82   C     C_2   0.653706 0.742216 0.876417 0.370459
C83   C     C_2   0.153616 0.757331 0.875144 0.370577
C84   C     C_2   0.192349 0.159846 0.975154 0.367883
C85   C     C_2   0.699596 0.213042 0.875535 -0.326709
C86   C     C_2   0.699861 0.785058 0.878215 -0.327697
C87   C     C_2   0.199939 0.714198 0.877120 -0.330423
C88   C     C_2   0.262313 0.158927 0.033372 -0.320611
H85   H     H_    0.336037 0.697031 0.000878 0.139478
H86   H     H_    0.367775 0.239769 0.079342 0.139930
H87   H     H_    0.835775 0.195632 0.999814 0.140312
H88   H     H_    0.835799 0.803134 0.000202 0.140070
C89   C     C_2   0.311954 0.661986 0.026504 -0.226781
C90   C     C_2   0.354402 0.252022 0.132777 -0.226383
C91   C     C_2   0.811643 0.160917 0.025643 -0.227188
C92   C     C_2   0.811700 0.838086 0.026274 -0.226004
C93   C     C_2   0.242312 0.656779 0.962919 -0.014860
C94   C     C_2   0.307869 0.209133 0.128548 -0.024224
C95   C     C_2   0.741970 0.155917 0.962046 -0.019761
C96   C     C_2   0.742014 0.842758 0.963577 -0.019237
N33   N     N_R   0.631782 0.236168 0.937783 0.233249
O1    O     O_R   0.566415 0.222189 0.890470 -0.437543
O2    O     O_R   0.677769 0.238452 0.045761 -0.432736
N34   N     N_R   0.635372 0.760320 0.945812 0.233749
O3    O     O_R   0.570154 0.772432 0.901483 -0.438563
O4    O     O_R   0.683097 0.759508 0.053562 -0.433421
N35   N     N_R   0.135157 0.739510 0.944286 0.234001
O5    O     O_R   0.070018 0.726938 0.899607 -0.437506
O6    O     O_R   0.182616 0.741074 0.052068 -0.432482
N36   N     N_R   0.161296 0.197993 0.017109 0.229797
O7    O     O_R   0.123933 0.159304 0.034586 -0.438951
O8    O     O_R   0.165558 0.272193 0.029214 -0.428464
H89   H     H_    0.736282 0.398311 0.677909 0.088319
H90   H     H_    0.736033 0.602481 0.677185 0.089373
H91   H     H_    0.236378 0.898764 0.677166 0.088995
H92   H     H_    0.235244 0.103263 0.678706 0.088579

loop_
_geom_bond_atom_site_label_1
_geom_bond_atom_site_label_2
_geom_bond_distance
_ccdc_geom_bond_type
C22   H18   1.077092 S    
C21   C45   1.375327 A    
C60   C68   1.550717 S    
N3    N31   1.405393 A    
N8    N28   1.405393 A    
C59   C73   1.520334 S    
C62   C80   1.535626 S    
N19   Ni4   1.850516 S    
C26   N26   1.342998 A    
C58   C76   1.518230 S    
C6    H6    1.079245 S    
C25   N25   1.342069 A    
N26   Ni7   1.852243 S    
N8    Ni4   1.838082 S    
C3    N3    1.331709 A    
C92   C96   1.334428 D    
C4    H4    1.080005 S    
N12   Ni6   1.873935 S    
N34   O4    1.301315 A    
C40   C84   1.469864 S    
H45   C57   1.114141 S    
C88   C94   1.453322 S    
C63   H53   1.110667 S    
N10   Ni5   1.873935 S    
C7    H7    1.079426 S    
N7    Ni4   1.844295 S    
C72   C76   1.547268 S    
C55   C71   1.554224 S    
C54   H44   1.111127 S    
H52   C76   1.114425 S    
N14   Ni7   1.859090 S    
N11   Ni6   1.867881 S    
C52   C54   1.538004 S    
C53   C69   1.554561 S    
H78   C94   1.086541 S    
H82   C86   1.085480 S    
N14   N22   1.361821 A    
H77   C93   1.084807 S    
C61   C65   1.557369 S    
C50   H30   1.109972 S    
H51   C75   1.114267 S    
C56   H40   1.113044 S    
C79   H67   1.110711 S    
C64   H60   1.112723 S    
C19   C43   1.375764 A    
C87   C93   1.450925 S    
C28   N28   1.341713 A    
C77   H65   1.110479 S    
N2    Ni1   1.877061 S    
C6    N6    1.329839 A    
C32   C36   1.380866 A    
N30   Ni5   1.879097 S    
H81   C85   1.085409 S    
C21   H17   1.075813 S    
C49   H29   1.110560 S    
C80   H68   1.110424 S    
C23   N23   1.321235 A    
C4    C36   1.387392 A    
N13   N21   1.361817 A    
C64   C78   1.539171 S    
C22   N22   1.321115 A    
C45   C65   1.450714 S    
N28   Ni8   1.852243 S    
C63   H59   1.112842 S    
N32   Ni6   1.879097 S    
C26   H22   1.075425 S    
C32   N32   1.338990 A    
C83   N35   1.438523 S    
C81   N33   1.438316 S    
C4    N4    1.333200 A    
C24   C48   1.385665 A    
C8    H8    1.079557 S    
C16   C48   1.388799 A    
C35   C92   1.458053 S    
C29   N29   1.339591 A    
N9    Ni5   1.867881 S    
N17   Ni3   1.850516 S    
C42   C69   1.460454 S    
C7    N7    1.330390 A    
H48   C60   1.113995 S    
C64   H54   1.110128 S    
C8    N8    1.330064 A    
N27   Ni8   1.846447 S    
N3    Ni2   1.870751 S    
C83   C87   1.345230 D    
H83   C87   1.085580 S    
C54   H38   1.112997 S    
N7    N27   1.405393 A    
N36   O8    1.301288 A    
C9    C41   1.378499 A    
C56   C72   1.554711 S    
C12   H12   1.079981 S    
N15   N23   1.361817 A    
N34   O3    1.300625 A    
N5    Ni3   1.844295 S    
C10   N10   1.322173 A    
C6    C38   1.388851 A    
C79   H63   1.113174 S    
N9    N17   1.361817 A    
N15   Ni8   1.865121 S    
N33   O2    1.301304 A    
N29   Ni5   1.884990 S    
C61   H55   1.110660 S    
C86   C96   1.451435 S    
C63   C67   1.555654 S    
H80   C96   1.084695 S    
C32   H28   1.081676 S    
N13   Ni7   1.865121 S    
C2    C34   1.387504 A    
C90   C94   1.335298 D    
C1    N1    1.334151 A    
C82   C86   1.346100 D    
N6    N26   1.405393 A    
C89   C93   1.333739 D    
C17   H89   1.079451 S    
H86   C90   1.087378 S    
N1    N29   1.405393 A    
H85   C89   1.087559 S    
C8    C40   1.388952 A    
C15   H15   1.075160 S    
C11   N11   1.321785 A    
C46   C66   1.460438 S    
C27   C39   1.388820 A    
C34   C89   1.457413 S    
C76   H76   1.114223 S    
C27   N27   1.341723 A    
C2    H2    1.079835 S    
C39   C83   1.466015 S    
C33   C90   1.455944 S    
C57   C75   1.518812 S    
N1    Ni1   1.870751 S    
C59   C67   1.547794 S    
C14   C46   1.385108 A    
C15   C47   1.385551 A    
C13   C45   1.378566 A    
N12   N20   1.361821 A    
C75   H75   1.114200 S    
H87   C91   1.087521 S    
C58   H70   1.114126 S    
C29   C33   1.383906 A    
C12   C44   1.377699 A    
N23   Ni2   1.865931 S    
C53   H43   1.111175 S    
C81   C85   1.345430 D    
C84   C88   1.345559 D    
C31   C35   1.382051 A    
H84   C88   1.084131 S    
N33   O1    1.300652 A    
C5    N5    1.331299 A    
C41   C70   1.466655 S    
N35   O6    1.301315 A    
C5    C37   1.390286 A    
N24   Ni2   1.859468 S    
N16   N24   1.361821 A    
C25   H21   1.074822 S    
N21   Ni1   1.865931 S    
N11   N19   1.361817 A    
C78   H62   1.113012 S    
C44   C71   1.451658 S    
C53   H37   1.113060 S    
C51   C67   1.554085 S    
H49   C73   1.114320 S    
C18   C42   1.376606 A    
C69   C77   1.553291 S    
C11   H11   1.079816 S    
C73   H73   1.114136 S    
C43   C72   1.458392 S    
C85   C95   1.452589 S    
C1    H1    1.075723 S    
C57   H69   1.114095 S    
C50   C66   1.554186 S    
H79   C95   1.084808 S    
N36   O7    1.300695 A    
C13   N13   1.321077 A    
C30   C34   1.380757 A    
C2    N2    1.332701 A    
C84   N36   1.437707 S    
C25   C37   1.389131 A    
C18   N18   1.323394 A    
C20   N20   1.317229 A    
C15   N15   1.325643 A    
C28   C40   1.387156 A    
C56   H42   1.111164 S    
C62   H56   1.110564 S    
C16   N16   1.327313 A    
C20   C44   1.374434 A    
H47   C59   1.113896 S    
C58   C66   1.548224 S    
C61   H57   1.113186 S    
C23   H19   1.077314 S    
C55   H39   1.113177 S    
N4    N32   1.405393 A    
C49   C65   1.554494 S    
C62   H58   1.112822 S    
H88   C92   1.087487 S    
C71   C79   1.551746 S    
C7    C39   1.389860 A    
C61   C79   1.532710 S    
N5    N25   1.405393 A    
C31   H27   1.081651 S    
C47   C67   1.462066 S    
C52   H36   1.112748 S    
C74   H74   1.114228 S    
C48   C68   1.470430 S    
C64   C68   1.555668 S    
C51   H31   1.110149 S    
C36   C91   1.458080 S    
C31   N31   1.339736 A    
C11   C43   1.376354 A    
C3    H3    1.079702 S    
C30   N30   1.338834 A    
N31   Ni6   1.884990 S    
N16   Ni8   1.859090 S    
C24   H20   1.077496 S    
C24   N24   1.324761 A    
C37   C81   1.467463 S    
H46   C58   1.113959 S    
C60   C74   1.520378 S    
C60   H72   1.113912 S    
C30   H26   1.081653 S    
C52   C68   1.553378 S    
C10   C42   1.377070 A    
C9    H9    1.079678 S    
C27   H23   1.075310 S    
N10   N18   1.361821 A    
C72   C80   1.553406 S    
C71   C75   1.550569 S    
C54   C70   1.555701 S    
C28   H24   1.080481 S    
C77   H61   1.113066 S    
N4    Ni2   1.877061 S    
H50   C74   1.114331 S    
C59   H71   1.114047 S    
C51   C53   1.535889 S    
C3    C35   1.386667 A    
N18   Ni3   1.856947 S    
C19   N19   1.322693 A    
N22   Ni1   1.859468 S    
C13   H13   1.075113 S    
C49   C55   1.530833 S    
C23   C47   1.380375 A    
C14   N14   1.325011 A    
C17   N17   1.324399 A    
C50   C56   1.535569 S    
C52   H32   1.110131 S    
C20   H92   1.079565 S    
C82   N34   1.438570 S    
C91   C95   1.334106 D    
C5    H5    1.079042 S    
C78   H66   1.110898 S    
C14   H14   1.074744 S    
C26   C38   1.389946 A    
C18   H90   1.079510 S    
C16   H16   1.077514 S    
N2    N30   1.405393 A    
C12   N12   1.320413 A    
C1    C33   1.389246 A    
N6    Ni3   1.838082 S    
C63   C77   1.535483 S    
N35   O5    1.300632 A    
C70   C74   1.545445 S    
C62   C66   1.555802 S    
C69   C73   1.547429 S    
C38   C82   1.466980 S    
C19   H91   1.079593 S    
C50   H34   1.112918 S    
C22   C46   1.379972 A    
C70   C78   1.553203 S    
N25   Ni7   1.846447 S    
C49   H33   1.113196 S    
C57   C65   1.543622 S    
N20   Ni4   1.856947 S    
C29   H25   1.080189 S    
C80   H64   1.113051 S    
C17   C41   1.374840 A    
C9    N9    1.327350 A    
C55   H41   1.110732 S    
C21   N21   1.318542 A    
C10   H10   1.079761 S    
C51   H35   1.112925 S    
