data_mof_unit_991.cif
_audit_creation_date              2012-12-11T15:41:24-0500
_audit_creation_method            fapswitch 2.2
_symmetry_space_group_name_H-M    P1
_symmetry_Int_Tables_number       1
_space_group_crystal_system       triclinic
_cell_length_a                    19.02497
_cell_length_b                    10.997763
_cell_length_c                    18.771447
_cell_angle_alpha                 89.849963
_cell_angle_beta                  90.293509
_cell_angle_gamma                 90.139526
_cell_volume                      3927.51296723

loop_
_atom_site_label
_atom_site_type_symbol
_atom_type_description
_atom_site_fract_x
_atom_site_fract_y
_atom_site_fract_z
_atom_type_partial_charge
C1    C     C_R   0.727519 0.954728 0.853329 0.543556
C2    C     C_R   0.319050 0.416241 0.028793 0.030258
C3    C     C_R   0.762349 0.855864 0.356233 0.552768
C4    C     C_2   0.498636 0.165661 0.921450 -0.122552
C5    C     C_2   0.502219 0.172147 0.078991 -0.118671
C6    C     C_2   0.998634 0.665659 0.921449 -0.122422
C7    C     C_2   0.002218 0.672148 0.078991 -0.118731
C8    C     C_2   0.501822 0.069690 0.040625 -0.167721
C9    C     C_2   0.516023 0.070948 0.963723 -0.172034
C10   C     C_2   0.001824 0.569690 0.040625 -0.167782
C11   C     C_2   0.016023 0.570949 0.963723 -0.172017
C12   C     C_R   0.766390 0.447863 0.067364 0.003708
C13   C     C_R   0.194253 0.964252 0.961948 0.029427
C14   C     C_R   0.253582 0.396199 0.918316 0.012283
C15   C     C_R   0.266386 0.947848 0.067369 0.003870
C16   C     C_R   0.753585 0.896176 0.918309 0.012345
C17   C     C_3   0.565055 0.500767 0.940744 -0.392157
C18   C     C_3   0.291395 0.615133 0.092840 -0.391172
C19   C     C_3   0.065047 0.000732 0.940757 -0.392141
C20   C     C_3   0.791521 0.115138 0.092801 -0.391157
C21   C     C_R   0.819073 0.916179 0.028775 0.030203
C22   C     C_R   0.817967 0.422194 0.950195 -0.159152
C23   C     C_R   0.223010 0.274048 0.021668 -0.155866
C24   C     C_R   0.317963 0.922178 0.950201 -0.159251
C25   C     C_R   0.722995 0.774063 0.021672 -0.155898
C26   C     C_R   0.825639 0.432049 0.023738 -0.158432
C27   C     C_R   0.214151 0.301946 0.949606 -0.153507
C28   C     C_R   0.325635 0.932029 0.023743 -0.158328
C29   C     C_R   0.276026 0.963556 0.143414 0.536147
C30   C     C_R   0.714135 0.801954 0.949608 -0.153430
C31   C     C_3   0.631369 0.425281 0.050776 -0.267373
C32   C     C_3   0.333948 0.572738 0.967125 -0.240417
C33   C     C_3   0.131368 0.925244 0.050784 -0.267394
C34   C     C_3   0.834032 0.072636 0.967086 -0.240407
C35   C     C_3   0.621226 0.414669 0.970468 -0.123200
C36   C     C_3   0.342472 0.543362 0.046100 -0.136979
C37   C     C_3   0.121223 0.914636 0.970476 -0.123218
C38   C     C_3   0.842556 0.043276 0.046063 -0.137061
C39   C     C_R   0.750588 0.426281 0.919486 0.007009
C40   C     C_R   0.227517 0.454734 0.853331 0.543482
C41   C     C_R   0.272534 0.337132 0.063412 0.016315
C42   C     C_R   0.250584 0.926266 0.919491 0.006907
C43   C     C_R   0.772536 0.837123 0.063408 0.016071
C44   C     C_R   0.509552 0.168371 0.420453 0.018324
C45   C     C_R   0.516190 0.171663 0.568449 0.023706
C46   C     C_R   0.006450 0.664460 0.421730 0.016640
C47   C     C_R   0.014485 0.671466 0.569445 0.024901
C48   C     C_R   0.528987 0.275085 0.456152 0.023644
C49   C     C_R   0.531698 0.275630 0.528854 0.048973
C50   C     C_R   0.033068 0.767741 0.455667 0.022782
C51   C     C_R   0.776029 0.463564 0.143411 0.536464
C52   C     C_R   0.036115 0.770428 0.528314 0.052576
C53   C     C_R   0.508649 0.060706 0.532888 -0.171928
C54   C     C_R   0.508176 0.058528 0.458633 -0.170104
C55   C     C_R   0.998656 0.561538 0.535783 -0.171636
C56   C     C_R   0.996048 0.557407 0.461740 -0.165416
C57   C     C_R   0.529995 0.177129 0.850799 0.546433
C58   C     C_R   0.470114 0.178157 0.149327 0.545558
C59   C     C_R   0.029994 0.677128 0.850798 0.546434
C60   C     C_R   0.970115 0.678157 0.149328 0.545588
C61   C     C_3   0.499075 0.401751 0.454974 -0.269128
C62   C     C_R   0.702473 0.474097 0.034878 -0.006100
C63   C     C_3   0.501222 0.399760 0.535205 -0.273325
C64   C     C_3   0.011830 0.899344 0.452470 -0.268823
C65   C     C_3   0.013545 0.899859 0.532754 -0.266965
C66   C     C_R   0.761977 0.436063 0.429151 0.018732
C67   C     C_R   0.248654 0.408417 0.578529 0.016018
C68   C     C_R   0.250685 0.910812 0.421975 0.014557
C69   C     C_R   0.751693 0.899349 0.581436 0.016239
C70   C     C_R   0.819765 0.398723 0.469492 0.040838
C71   C     C_R   0.204318 0.327723 0.541979 0.020273
C72   C     C_R   0.291371 0.823497 0.457403 0.019890
C73   C     C_R   0.310280 0.444199 0.957188 -0.005789
C74   C     C_R   0.707983 0.817379 0.544910 0.028141
C75   C     C_R   0.816551 0.390823 0.542415 0.019558
C76   C     C_R   0.206850 0.319890 0.469033 0.039233
C77   C     C_R   0.289386 0.814698 0.530469 0.045905
C78   C     C_R   0.711126 0.808557 0.471924 0.044673
C79   C     C_R   0.699823 0.475369 0.539316 -0.149342
C80   C     C_R   0.304432 0.458994 0.465926 -0.162048
C81   C     C_R   0.199767 0.968236 0.535760 -0.156732
C82   C     C_R   0.810706 0.942623 0.469595 -0.165979
C83   C     C_R   0.703286 0.482313 0.464896 -0.150846
C84   C     C_R   0.202468 0.974073 0.034884 -0.006055
C85   C     C_R   0.302653 0.466252 0.540368 -0.161293
C86   C     C_R   0.201240 0.977350 0.461479 -0.154674
C87   C     C_R   0.808644 0.949932 0.544213 -0.168930
C88   C     C_3   0.861541 0.284965 0.462391 -0.275719
C89   C     C_3   0.125724 0.316010 0.541483 -0.268547
C90   C     C_3   0.369360 0.804428 0.457024 -0.269439
C91   C     C_3   0.629673 0.802454 0.543767 -0.269702
C92   C     C_3   0.859012 0.276232 0.542517 -0.270543
C93   C     C_3   0.128984 0.310249 0.461233 -0.275586
C94   C     C_3   0.366897 0.798163 0.537137 -0.271649
C95   C     C_R   0.810304 0.944127 0.957169 -0.005695
C96   C     C_3   0.633592 0.795844 0.463520 -0.272445
C97   C     C_R   0.754240 0.419056 0.578069 0.015559
C98   C     C_R   0.253645 0.390191 0.429376 0.020600
C99   C     C_R   0.246612 0.890422 0.570931 0.021204
C100  C     C_R   0.757932 0.878901 0.432394 0.018173
C101  C     C_R   0.738321 0.364969 0.852197 0.538082
C102  C     C_R   0.275680 0.313842 0.140038 0.562344
C103  C     C_R   0.238320 0.864964 0.852199 0.538108
C104  C     C_R   0.775680 0.813842 0.140037 0.562534
C105  C     C_R   0.728554 0.952909 0.648430 0.547337
C106  C     C_R   0.694259 0.464274 0.961942 0.029475
C107  C     C_R   0.272087 0.955235 0.352453 0.552560
C108  C     C_R   0.227894 0.454801 0.647698 0.549552
C109  C     C_R   0.773489 0.458621 0.354017 0.548581
C110  C     C_R   0.531832 0.176707 0.643297 0.546259
C111  C     C_R   0.471890 0.176486 0.353926 0.553273
C112  C     C_R   0.031201 0.676694 0.643809 0.546861
C113  C     C_R   0.971185 0.675969 0.354328 0.555125
C114  C     C_R   0.739897 0.363273 0.646792 0.549298
C115  C     C_R   0.261115 0.359828 0.354673 0.552753
C116  C     C_R   0.239033 0.860135 0.645526 0.545990
Cr1   Cr    Cr6+3 0.769260 0.163750 0.750730 1.004055
Cr2   Cr    Cr6+3 0.385810 0.322400 0.252290 1.000383
Cr3   Cr    Cr6+3 0.114190 0.822400 0.747710 1.000849
Cr4   Cr    Cr6+3 0.885810 0.822400 0.252290 1.000691
Cr5   Cr    Cr6+3 0.230740 0.163750 0.249270 1.005838
Cr6   Cr    Cr6+3 0.269260 0.663750 0.750730 1.006861
Cr7   Cr    Cr6+3 0.730740 0.663750 0.249270 1.007022
Cr8   Cr    Cr6+3 0.612640 0.009910 0.748780 1.004892
Cr9   Cr    Cr6+3 0.387360 0.009910 0.251220 1.000575
Cr10  Cr    Cr6+3 0.112640 0.509910 0.748780 1.004849
Cr11  Cr    Cr6+3 0.887360 0.509910 0.251220 1.002925
Cr12  Cr    Cr6+3 0.614190 0.322400 0.747710 1.000336
H1    H     H_    0.491352 0.982713 0.065870 0.142453
H2    H     H_    0.448346 0.398411 0.560036 0.136480
H3    H     H_    0.052903 0.957617 0.428062 0.126643
H4    H     H_    0.960836 0.909434 0.557191 0.135010
H5    H     H_    0.652539 0.504031 0.565740 0.121696
H6    H     H_    0.343610 0.509945 0.436940 0.113875
H7    H     H_    0.164712 0.025429 0.565849 0.114990
H8    H     H_    0.851170 0.991096 0.441057 0.114840
H9    H     H_    0.659500 0.518890 0.435172 0.118669
H10   H     H_    0.339667 0.524426 0.567478 0.123069
H11   H     H_    0.168607 0.044523 0.435780 0.128414
H12   H     H_    0.543317 0.992646 0.942227 0.157539
H13   H     H_    0.847674 0.003574 0.571887 0.114340
H14   H     H_    0.915258 0.300536 0.441622 0.132702
H15   H     H_    0.098959 0.398740 0.560533 0.173129
H16   H     H_    0.398379 0.884991 0.438076 0.166224
H17   H     H_    0.601993 0.884204 0.562220 0.170003
H18   H     H_    0.831621 0.211655 0.434988 0.136398
H19   H     H_    0.107528 0.229747 0.566321 0.121256
H20   H     H_    0.384506 0.717248 0.431706 0.125922
H21   H     H_    0.612378 0.715969 0.568944 0.122963
H22   H     H_    0.827996 0.197263 0.560729 0.168310
H23   H     H_    0.991358 0.482713 0.065871 0.142405
H24   H     H_    0.111096 0.221876 0.439386 0.128434
H25   H     H_    0.382429 0.708625 0.558877 0.133451
H26   H     H_    0.617028 0.706759 0.441818 0.132050
H27   H     H_    0.911185 0.287948 0.568553 0.126424
H28   H     H_    0.106025 0.391130 0.434331 0.142116
H29   H     H_    0.392571 0.876749 0.563742 0.133027
H30   H     H_    0.610180 0.875523 0.435978 0.139122
H31   H     H_    0.516865 0.257728 0.054297 0.107799
H32   H     H_    0.470118 0.242960 0.942498 0.108272
H33   H     H_    0.016859 0.757730 0.054296 0.107800
H34   H     H_    0.043320 0.492648 0.942227 0.157555
H35   H     H_    0.970113 0.742956 0.942496 0.108280
H36   H     H_    0.863549 0.398672 0.918770 0.138840
H37   H     H_    0.187158 0.210128 0.045995 0.142948
H38   H     H_    0.363545 0.898658 0.918775 0.138721
H39   H     H_    0.687130 0.710168 0.046004 0.142884
H40   H     H_    0.877354 0.420519 0.046624 0.139093
H41   H     H_    0.171576 0.258361 0.920795 0.136697
H42   H     H_    0.377350 0.920499 0.046629 0.139157
H43   H     H_    0.671547 0.758394 0.920805 0.136687
H44   H     H_    0.097532 0.994006 0.077048 0.143634
H45   H     H_    0.958291 0.915506 0.431720 0.165745
H46   H     H_    0.792033 0.139741 0.954570 0.165470
H47   H     H_    0.597536 0.494051 0.077037 0.143640
H48   H     H_    0.291920 0.639789 0.954610 0.165398
H49   H     H_    0.633947 0.335895 0.078471 0.119782
H50   H     H_    0.384843 0.590847 0.940238 0.120442
H51   H     H_    0.133952 0.835856 0.078477 0.119749
H52   H     H_    0.884930 0.090666 0.940187 0.120498
H53   H     H_    0.616062 0.319167 0.952040 0.161027
H54   H     H_    0.398034 0.547418 0.064680 0.142583
H55   H     H_    0.116062 0.819136 0.952045 0.160985
H56   H     H_    0.054210 0.960417 0.555509 0.140406
H57   H     H_    0.898123 0.047263 0.064633 0.142551
H58   H     H_    0.500875 0.977400 0.562387 0.112590
H59   H     H_    0.499580 0.973377 0.431592 0.117607
H60   H     H_    0.986333 0.480842 0.566468 0.119227
H61   H     H_    0.978606 0.474460 0.436597 0.134712
H62   H     H_    0.512132 0.467456 0.956188 0.123663
H63   H     H_    0.572233 0.594617 0.961477 0.120508
H64   H     H_    0.568132 0.503972 0.881775 0.174372
H65   H     H_    0.296197 0.587588 0.149387 0.175347
H66   H     H_    0.305079 0.712551 0.089886 0.145583
H67   H     H_    0.444571 0.406976 0.434769 0.170507
H68   H     H_    0.236036 0.602799 0.074936 0.143198
H69   H     H_    0.012126 0.967413 0.956202 0.123651
H70   H     H_    0.072223 0.094580 0.961493 0.120520
H71   H     H_    0.068122 0.003942 0.881788 0.174407
H72   H     H_    0.796319 0.087611 0.149350 0.175447
H73   H     H_    0.805250 0.212537 0.089830 0.145550
H74   H     H_    0.736153 0.102873 0.074907 0.143253
H75   H     H_    0.538077 0.467093 0.558313 0.132728
H76   H     H_    0.535783 0.469074 0.431233 0.120630
O1    O     O_R   0.784290 0.290360 0.830540 -0.529231
O2    O     O_R   0.456020 0.282110 0.333230 -0.525791
O3    O     O_R   0.043980 0.782110 0.666770 -0.518902
O4    O     O_R   0.956020 0.782110 0.333230 -0.525930
O5    O     O_R   0.679070 0.374030 0.674430 -0.505137
O6    O     O_R   0.320930 0.374030 0.325570 -0.505564
O7    O     O_R   0.179070 0.874030 0.674430 -0.504485
O8    O     O_R   0.820930 0.874030 0.325570 -0.505059
O9    O     O_3   0.665360 0.165350 0.749070 -0.243023
O10   O     O_3   0.334640 0.165350 0.250930 -0.264623
O11   O     O_3   0.165360 0.665350 0.749070 -0.244366
O12   O     O_R   0.215710 0.290360 0.169460 -0.520720
O13   O     O_3   0.834640 0.665350 0.250930 -0.266925
O14   O     O_R   0.762610 0.041070 0.825230 -0.501189
O15   O     O_R   0.237390 0.041070 0.174770 -0.513102
O16   O     O_R   0.262610 0.541070 0.825230 -0.501568
O17   O     O_R   0.737390 0.541070 0.174770 -0.512741
O18   O     O_R   0.667390 0.924160 0.829970 -0.528205
O19   O     O_R   0.332610 0.924160 0.170030 -0.530751
O20   O     O_R   0.167390 0.424160 0.829970 -0.528138
O21   O     O_R   0.832610 0.424160 0.170030 -0.530870
O22   O     O_R   0.553980 0.081420 0.821780 -0.495881
O23   O     O_R   0.284290 0.790360 0.830540 -0.529654
O24   O     O_R   0.446020 0.081420 0.178220 -0.499440
O25   O     O_R   0.053980 0.581420 0.821780 -0.495893
O26   O     O_R   0.946020 0.581420 0.178220 -0.499661
O27   O     O_R   0.543210 0.283170 0.826740 -0.526894
O28   O     O_R   0.456790 0.283170 0.173260 -0.525850
O29   O     O_R   0.043210 0.783170 0.826740 -0.526972
O30   O     O_R   0.956790 0.783170 0.173260 -0.525826
O31   O     O_R   0.678350 0.375000 0.822720 -0.505207
O32   O     O_R   0.321650 0.375000 0.177280 -0.505551
O33   O     O_R   0.178350 0.875000 0.822720 -0.504950
O34   O     O_R   0.715710 0.790360 0.169460 -0.520063
O35   O     O_R   0.821650 0.875000 0.177280 -0.504957
O36   O     O_R   0.785060 0.289300 0.670580 -0.523500
O37   O     O_R   0.214940 0.289300 0.329420 -0.514300
O38   O     O_R   0.285060 0.789300 0.670580 -0.518337
O39   O     O_R   0.714940 0.789300 0.329420 -0.513775
O40   O     O_R   0.763330 0.040090 0.676940 -0.507871
O41   O     O_R   0.236670 0.040090 0.323060 -0.505532
O42   O     O_R   0.263330 0.540090 0.676940 -0.505041
O43   O     O_R   0.736670 0.540090 0.323060 -0.504622
O44   O     O_R   0.668160 0.923110 0.670000 -0.524206
O45   O     O_R   0.554690 0.080440 0.673480 -0.508639
O46   O     O_R   0.331840 0.923110 0.330000 -0.521102
O47   O     O_R   0.168160 0.423110 0.670000 -0.524488
O48   O     O_R   0.831840 0.423110 0.330000 -0.515804
O49   O     O_R   0.445310 0.080440 0.326520 -0.507359
O50   O     O_R   0.054690 0.580440 0.673480 -0.509588
O51   O     O_R   0.945310 0.580440 0.326520 -0.506688
O52   O     O_R   0.543980 0.282110 0.666770 -0.518593

loop_
_geom_bond_atom_site_label_1
_geom_bond_atom_site_label_2
_ccdc_geom_bond_type
C20   C38   S    
C111  O49   A    
C7    C10   D    
C96   H30   S    
C55   C56   A    
C46   C113  S    
C109  O48   A    
C102  O32   A    
C113  O51   A    
C15   C29   S    
C94   H29   S    
C33   H51   S    
C24   C42   A    
C34   H52   S    
C76   C93   S    
C83   H9    S    
C70   C88   S    
C42   C103  S    
C25   C43   A    
Cr7   O39   S    
C15   C28   A    
Cr6   O38   S    
Cr3   O7    S    
C31   H47   S    
C53   C54   A    
C25   H39   S    
Cr3   O11   S    
C32   H48   S    
C13   C84   A    
C26   H40   S    
C80   C85   A    
Cr6   O16   S    
C5    C58   S    
C31   H49   S    
C60   O26   A    
C50   C64   S    
C32   C36   S    
C114  O5    A    
C47   C55   A    
Cr9   O46   S    
Cr2   O2    S    
C20   H73   S    
C116  O7    A    
Cr1   O1    S    
C99   C116  S    
C61   H76   S    
C71   C76   A    
Cr12  O5    S    
C9    H12   S    
Cr10  O20   S    
C67   C108  S    
C18   H66   S    
C22   C39   A    
C2    C41   A    
C103  O23   A    
C47   C112  S    
C37   H55   S    
C108  O42   A    
C77   C94   S    
C3    O8    A    
Cr8   O9    S    
C80   H6    S    
C41   C102  S    
C89   H19   S    
Cr11  O48   S    
Cr9   O10   S    
C63   H2    S    
C61   C63   S    
C110  O52   A    
C43   C104  S    
C20   H72   S    
C90   H20   S    
C19   C37   S    
Cr4   O30   S    
C66   C83   A    
C21   C43   A    
C104  O35   A    
C3    C100  S    
Cr3   O29   S    
C96   H26   S    
C21   C38   S    
C88   C92   S    
Cr1   O36   S    
C78   C96   S    
C8    C9    S    
C5    H31   S    
C4    C57   S    
C101  O31   A    
C50   C52   A    
C39   C101  S    
C1    O14   A    
C68   C107  S    
C23   C27   A    
C14   C27   A    
Cr9   O24   S    
C27   H41   S    
C105  O40   A    
C13   C37   S    
C81   C86   A    
C69   C87   A    
C103  O33   A    
Cr12  O9    S    
Cr6   O42   S    
Cr7   O34   S    
Cr12  O31   S    
Cr5   O41   S    
C91   C96   S    
C45   C53   A    
C110  O45   A    
C23   H37   S    
C40   O16   A    
C18   H65   S    
C89   C93   S    
Cr5   O15   S    
C31   C62   S    
C32   H50   S    
C59   O29   A    
C7    H33   S    
C82   C100  A    
Cr4   O8    S    
C101  O1    A    
C88   H14   S    
C13   C42   A    
C79   C97   A    
C90   C94   S    
C92   H22   S    
C49   C63   S    
Cr9   O19   S    
C17   H64   S    
C115  O37   A    
C79   H5    S    
C116  O38   A    
C19   H69   S    
C67   C85   A    
C108  O47   A    
C18   H68   S    
Cr4   O4    S    
C113  O4    A    
Cr1   O14   S    
Cr10  O25   S    
C60   O30   A    
C34   C95   S    
Cr2   O10   S    
Cr10  O11   S    
Cr2   O28   S    
C32   C73   S    
C91   H21   S    
C69   C105  S    
C45   C110  S    
Cr3   O33   S    
C81   C99   A    
C89   H15   S    
C11   H34   S    
C17   H63   S    
C12   C26   A    
C1    O18   A    
C74   C91   S    
Cr8   O44   S    
C104  O34   A    
C53   H58   S    
Cr5   O12   S    
C105  O44   A    
C51   O21   A    
C72   C77   A    
C34   H46   S    
C2    C36   S    
C44   C54   A    
C10   H23   S    
C12   C62   A    
C14   C73   A    
C64   H45   S    
C112  O50   A    
C71   C89   S    
C64   H3    S    
C45   C49   A    
C68   C72   A    
C6    H35   S    
C39   C106  A    
C69   C74   A    
Cr10  O50   S    
C1    C16   S    
C3    O39   A    
C55   H60   S    
C87   H13   S    
Cr9   O49   S    
C44   C48   A    
Cr8   O45   S    
C15   C84   A    
C2    C73   A    
C63   H75   S    
C75   C92   S    
C68   C86   A    
C86   H11   S    
C28   H42   S    
C48   C49   A    
C40   O20   A    
Cr12  O27   S    
C54   H59   S    
C6    C11   D    
C78   C100  A    
C44   C111  S    
C31   C35   S    
Cr3   O3    S    
C57   O22   A    
C76   C98   A    
C59   O25   A    
C7    C60   S    
C91   H17   S    
C65   H4    S    
C58   O24   A    
Cr6   O11   S    
Cr11  O13   S    
C114  O36   A    
C72   C90   S    
Cr5   O37   S    
C102  O12   A    
C25   C30   A    
C29   O19   A    
C61   H67   S    
C56   H61   S    
C19   H70   S    
C107  O46   A    
C80   C98   A    
C34   C38   S    
C29   O15   A    
C12   C51   S    
C6    C59   S    
C107  O41   A    
C93   H28   S    
C75   C97   A    
C24   C28   A    
C112  O3    A    
Cr8   O18   S    
C5    C8    D    
Cr8   O22   S    
C47   C52   A    
C62   C106  A    
C17   H62   S    
C35   H53   S    
C38   H57   S    
C21   C95   A    
C46   C50   A    
C19   H71   S    
C23   C41   A    
Cr11  O51   S    
Cr2   O6    S    
Cr5   O10   S    
Cr7   O17   S    
C22   H36   S    
C97   C114  S    
C20   H74   S    
C35   C106  S    
C64   C65   S    
C79   C83   A    
C16   C95   A    
C18   C36   S    
C98   C115  S    
C4    H32   S    
C81   H7    S    
C111  O2    A    
C51   O17   A    
C94   H25   S    
C57   O27   A    
Cr6   O23   S    
C8    H1    S    
C74   C78   A    
Cr12  O52   S    
C77   C99   A    
C92   H27   S    
C67   C71   A    
Cr11  O26   S    
C66   C109  S    
C82   H8    S    
C24   H38   S    
Cr7   O13   S    
C33   C84   S    
C33   C37   S    
C30   H43   S    
Cr7   O43   S    
C58   O28   A    
C10   C11   S    
Cr4   O13   S    
Cr4   O35   S    
C14   C40   S    
Cr1   O40   S    
Cr2   O32   S    
Cr1   O9    S    
C36   H54   S    
C66   C70   A    
C109  O43   A    
C22   C26   A    
C46   C56   A    
C70   C75   A    
Cr11  O21   S    
C48   C61   S    
C88   H18   S    
Cr10  O47   S    
C93   H24   S    
C17   C35   S    
C4    C9    D    
C33   H44   S    
C16   C30   A    
C85   H10   S    
C115  O6    A    
C90   H16   S    
C52   C65   S    
C82   C87   A    
C65   H56   S    
