data_mof_unit_1188.cif
_audit_creation_date              2012-12-11T14:41:10-0500
_audit_creation_method            fapswitch 2.2
_symmetry_space_group_name_H-M    P1
_symmetry_Int_Tables_number       1
_space_group_crystal_system       triclinic
_cell_length_a                    24.564574
_cell_length_b                    17.440548
_cell_length_c                    15.540401
_cell_angle_alpha                 89.919245
_cell_angle_beta                  129.287177
_cell_angle_gamma                 90.189891
_cell_volume                      5152.99660483

loop_
_atom_site_label
_atom_site_type_symbol
_atom_type_description
_atom_site_fract_x
_atom_site_fract_y
_atom_site_fract_z
_atom_type_partial_charge
C1    C     C_R   0.334178 0.391350 0.198665 -0.129462
C2    C     C_R   0.683119 0.616558 0.498122 0.009531
C3    C     C_3   0.430111 0.820028 0.646277 -0.440968
C4    C     C_3   0.432634 0.853555 0.557684 -0.224064
C5    C     C_3   0.506192 0.883744 0.610577 -0.926620
C6    C     C_3   0.920015 0.664116 0.604567 -0.397658
C7    C     C_3   0.903396 0.589616 0.538347 -0.236551
C8    C     C_3   0.954406 0.578014 0.514759 -0.937510
C9    C     C_3   0.927435 0.315699 0.643132 -0.439806
C10   C     C_3   0.928296 0.348755 0.552590 -0.222114
C11   C     C_3   0.001311 0.379329 0.602910 -0.925900
C12   C     C_R   0.183410 0.883619 0.498661 0.009810
C13   C     C_R   0.183308 0.118591 0.499190 0.010275
C14   C     C_R   0.360181 0.315781 0.499776 -0.015545
C15   C     C_R   0.353790 0.678370 0.499584 0.004660
C16   C     C_R   0.854421 0.820616 0.498766 -0.013969
C17   C     C_R   0.848838 0.172772 0.500324 0.007594
C18   C     C_3   0.361288 0.196946 0.595838 0.026596
C19   C     C_3   0.357095 0.791062 0.605186 0.022669
C20   C     C_3   0.858539 0.701260 0.595022 0.025026
C21   C     C_R   0.334436 0.609274 0.199413 -0.128794
C22   C     C_3   0.854936 0.287386 0.605166 0.022395
C23   C     C_3   0.809648 0.643733 0.593525 -0.445017
C24   C     C_3   0.808984 0.353294 0.593485 -0.471721
C25   C     C_3   0.310870 0.141374 0.593849 -0.442594
C26   C     C_3   0.310178 0.855991 0.593255 -0.470807
C27   C     C_3   0.270664 0.302722 0.518355 -0.448793
C28   C     C_3   0.257926 0.694402 0.502425 -0.466689
C29   C     C_3   0.764816 0.804064 0.515580 -0.455410
C30   C     C_3   0.754766 0.191613 0.506049 -0.473656
C31   C     C_3   0.266429 0.215949 0.385572 -0.392226
C32   C     C_R   0.834371 0.890639 0.199192 -0.129253
C33   C     C_3   0.268806 0.786430 0.390058 -0.399889
C34   C     C_3   0.763655 0.718885 0.384369 -0.393936
C35   C     C_3   0.765235 0.280565 0.390136 -0.402693
C36   C     C_3   0.316780 0.257342 0.499702 0.345700
C37   C     C_3   0.311843 0.737808 0.499293 0.357548
C38   C     C_3   0.812315 0.760906 0.498136 0.348129
C39   C     C_3   0.808266 0.233101 0.500518 0.362688
C40   C     C_3   0.731563 0.665044 0.498037 0.378226
C41   C     C_3   0.730263 0.333019 0.499314 0.385604
C42   C     C_3   0.233229 0.165149 0.499436 0.375391
C43   C     C_R   0.847466 0.136578 0.230870 -0.125269
C44   C     C_3   0.231636 0.834899 0.498472 0.383658
C45   C     C_3   0.717177 0.747851 0.514651 -0.395908
C46   C     C_3   0.713531 0.250758 0.515668 -0.393359
C47   C     C_3   0.221822 0.248711 0.517997 -0.398598
C48   C     C_3   0.216050 0.751707 0.513465 -0.396461
C49   C     C_R   0.666962 0.390992 0.798083 -0.122166
C50   C     C_R   0.653193 0.636210 0.762365 -0.123033
C51   C     C_R   0.153161 0.864083 0.762590 -0.125323
C52   C     C_R   0.152799 0.136670 0.761544 -0.122334
C53   C     C_3   0.718296 0.659624 0.386199 -0.419974
C54   C     C_R   0.646923 0.370994 0.860767 0.151995
C55   C     C_3   0.717043 0.337193 0.387811 -0.419046
C56   C     C_3   0.219083 0.159441 0.386967 -0.418663
C57   C     C_3   0.218857 0.840739 0.387375 -0.417353
C58   C     C_2   0.693247 0.342290 0.974787 -0.226743
C59   C     C_2   0.649724 0.746748 0.864420 -0.236033
C60   C     C_2   0.149819 0.753728 0.865295 -0.228060
C61   C     C_2   0.148787 0.247833 0.862362 -0.236933
C62   C     C_2   0.763000 0.342729 0.033977 -0.110518
C63   C     C_2   0.698140 0.788583 0.871670 -0.116105
C64   C     C_2   0.198316 0.712237 0.872799 -0.111600
C65   C     C_R   0.623377 0.675686 0.800629 0.148189
C66   C     C_2   0.197802 0.289281 0.870734 -0.113916
C67   C     C_2   0.309685 0.658478 0.023929 -0.223090
C68   C     C_2   0.309325 0.342877 0.022767 -0.225080
C69   C     C_2   0.854732 0.249070 0.135421 -0.222193
C70   C     C_2   0.809767 0.841571 0.023784 -0.226202
C71   C     C_2   0.239849 0.658161 0.963677 -0.111837
C72   C     C_2   0.239456 0.343212 0.962090 -0.104818
C73   C     C_2   0.805292 0.289809 0.126247 -0.118926
C74   C     C_2   0.739899 0.842545 0.962795 -0.107281
C75   C     C_R   0.614861 0.398010 0.407241 -0.143940
C76   C     C_R   0.123424 0.824625 0.801192 0.150071
C77   C     C_R   0.614437 0.602545 0.406563 -0.138198
C78   C     C_R   0.114727 0.897621 0.406919 -0.142106
C79   C     C_R   0.114956 0.103014 0.407290 -0.143149
C80   C     C_R   0.411928 0.358359 0.592893 -0.154570
C81   C     C_R   0.404521 0.635458 0.592090 -0.142095
C82   C     C_R   0.905481 0.863143 0.591788 -0.153192
C83   C     C_R   0.902252 0.132346 0.592815 -0.145382
C84   C     C_R   0.689296 0.398269 0.592037 -0.139149
C85   C     C_R   0.689546 0.601073 0.591113 -0.150063
C86   C     C_R   0.189514 0.898871 0.591384 -0.146116
C87   C     C_R   0.122623 0.176540 0.798941 0.147704
C88   C     C_R   0.189408 0.102600 0.591723 -0.147410
C89   C     C_R   0.337481 0.357962 0.407028 -0.126595
C90   C     C_R   0.333904 0.639021 0.406620 -0.146746
C91   C     C_R   0.834508 0.860308 0.406189 -0.128798
C92   C     C_R   0.828252 0.133173 0.407526 -0.148776
C93   C     C_R   0.577142 0.391770 0.801250 -0.164400
C94   C     C_R   0.564911 0.634808 0.769811 -0.149799
C95   C     C_R   0.065065 0.865364 0.770385 -0.155137
C96   C     C_R   0.064243 0.135542 0.768314 -0.152695
C97   C     C_R   0.425494 0.389342 0.199470 -0.153774
C98   C     C_R   0.683276 0.383415 0.499364 0.008369
C99   C     C_R   0.425630 0.611115 0.199755 -0.153873
C100  C     C_R   0.925715 0.888753 0.199948 -0.155623
C101  C     C_R   0.941160 0.139337 0.236718 -0.153466
C102  C     C_R   0.355033 0.370799 0.137309 0.154142
C103  C     C_R   0.355352 0.630053 0.138110 0.153640
C104  C     C_R   0.855374 0.869774 0.138114 0.153087
C105  C     C_R   0.880603 0.178120 0.199335 0.150843
C106  C     C_3   0.421411 0.157215 0.604331 -0.400112
C107  C     C_3   0.402017 0.083430 0.535457 -0.233274
C108  C     C_3   0.448444 0.072893 0.502735 -0.944349
H1    H     H_    0.281116 0.394128 0.170038 0.076742
H2    H     H_    0.321962 0.863331 0.674490 0.131045
H3    H     H_    0.520605 0.931096 0.669421 0.264051
H4    H     H_    0.545488 0.837040 0.655762 0.274469
H5    H     H_    0.507585 0.905609 0.544891 0.249615
H6    H     H_    0.420195 0.808147 0.497612 0.201187
H7    H     H_    0.394347 0.901158 0.513171 0.191977
H8    H     H_    0.449659 0.863933 0.711981 0.190088
H9    H     H_    0.468325 0.772122 0.687817 0.187853
H10   H     H_    0.950719 0.626520 0.464889 0.263530
H11   H     H_    0.009205 0.573721 0.593910 0.268484
H12   H     H_    0.940716 0.524434 0.466395 0.254028
H13   H     H_    0.821728 0.646805 0.675480 0.128322
H14   H     H_    0.908139 0.539710 0.587287 0.184143
H15   H     H_    0.849453 0.589209 0.458298 0.199081
H16   H     H_    0.942462 0.707406 0.582279 0.203249
H17   H     H_    0.963233 0.650659 0.693654 0.166376
H18   H     H_    0.016061 0.427219 0.661196 0.264485
H19   H     H_    0.041028 0.333007 0.648143 0.274740
H20   H     H_    0.001472 0.400587 0.535723 0.249418
H21   H     H_    0.915480 0.302872 0.492853 0.202360
H22   H     H_    0.889721 0.396191 0.508313 0.192137
H23   H     H_    0.948086 0.359795 0.708990 0.189926
H24   H     H_    0.821149 0.361345 0.674917 0.131002
H25   H     H_    0.965610 0.267792 0.683919 0.187591
H26   H     H_    0.304096 0.333978 0.599130 0.155871
H27   H     H_    0.284521 0.653557 0.573499 0.157390
H28   H     H_    0.797101 0.835515 0.596218 0.155851
H29   H     H_    0.781707 0.152087 0.578661 0.157950
H30   H     H_    0.726450 0.752840 0.594509 0.155190
H31   H     H_    0.727581 0.245752 0.599098 0.158787
H32   H     H_    0.232104 0.254032 0.598616 0.154794
H33   H     H_    0.281457 0.606843 0.171194 0.076983
H34   H     H_    0.230332 0.745369 0.596927 0.155635
H35   H     H_    0.727093 0.760300 0.316948 0.147432
H36   H     H_    0.730744 0.242886 0.316426 0.144582
H37   H     H_    0.231029 0.258001 0.318485 0.146405
H38   H     H_    0.235630 0.749105 0.315567 0.146910
H39   H     H_    0.295908 0.187396 0.362641 0.163257
H40   H     H_    0.302883 0.819376 0.379890 0.147926
H41   H     H_    0.794259 0.692432 0.362130 0.162059
H42   H     H_    0.799118 0.311315 0.377651 0.146722
H43   H     H_    0.729894 0.600826 0.374303 0.145558
H44   H     H_    0.781306 0.893071 0.170578 0.078129
H45   H     H_    0.726570 0.396378 0.372958 0.148292
H46   H     H_    0.227965 0.099882 0.372990 0.144336
H47   H     H_    0.227068 0.900686 0.372923 0.147174
H48   H     H_    0.662617 0.672194 0.314341 0.150586
H49   H     H_    0.661827 0.321321 0.316920 0.152810
H50   H     H_    0.163739 0.174521 0.316275 0.150098
H51   H     H_    0.164038 0.823780 0.316204 0.152939
H52   H     H_    0.238620 0.346609 0.452033 0.171268
H53   H     H_    0.221358 0.660043 0.425086 0.174010
H54   H     H_    0.731946 0.847499 0.448864 0.171611
H55   H     H_    0.795515 0.146361 0.203811 0.083258
H56   H     H_    0.717786 0.156186 0.430030 0.174434
H57   H     H_    0.719211 0.390577 0.823121 0.079822
H58   H     H_    0.700966 0.649633 0.775749 0.085517
H59   H     H_    0.200922 0.850914 0.776042 0.085974
H60   H     H_    0.200573 0.150196 0.775026 0.085876
H61   H     H_    0.661272 0.763529 0.446546 0.165722
H62   H     H_    0.656313 0.237802 0.452398 0.165941
H63   H     H_    0.166273 0.266242 0.451067 0.164916
H64   H     H_    0.158990 0.738010 0.450197 0.165615
H65   H     H_    0.214831 0.629822 0.992786 0.123034
H66   H     H_    0.818533 0.583355 0.583249 0.150784
H67   H     H_    0.214466 0.371276 0.991230 0.122835
H68   H     H_    0.787775 0.274724 0.173129 0.123611
H69   H     H_    0.714902 0.871120 0.991586 0.124096
H70   H     H_    0.787398 0.370710 0.003572 0.124029
H71   H     H_    0.715436 0.773920 0.824502 0.125945
H72   H     H_    0.215680 0.727038 0.825688 0.124998
H73   H     H_    0.215569 0.274302 0.824325 0.125729
H74   H     H_    0.333892 0.687658 0.993769 0.125956
H75   H     H_    0.333511 0.313940 0.992609 0.126258
H76   H     H_    0.871891 0.264384 0.088056 0.126424
H77   H     H_    0.821858 0.408366 0.573608 0.160448
H78   H     H_    0.833942 0.812102 0.993967 0.126937
H79   H     H_    0.669586 0.313616 0.006187 0.126295
H80   H     H_    0.633280 0.761699 0.912816 0.129969
H81   H     H_    0.133358 0.738650 0.913710 0.124765
H82   H     H_    0.131844 0.263110 0.909967 0.129600
H83   H     H_    0.591824 0.397281 0.320663 0.085475
H84   H     H_    0.590940 0.603151 0.319811 0.083671
H85   H     H_    0.091556 0.896530 0.320281 0.085175
H86   H     H_    0.092624 0.102146 0.321086 0.083027
H87   H     H_    0.437928 0.345342 0.678888 0.088946
H88   H     H_    0.318032 0.080566 0.582318 0.150501
H89   H     H_    0.423061 0.642814 0.675587 0.075513
H90   H     H_    0.924367 0.854768 0.675271 0.081472
H91   H     H_    0.921732 0.139255 0.676925 0.076329
H92   H     H_    0.735670 0.395599 0.678465 0.083546
H93   H     H_    0.736869 0.601394 0.676900 0.083805
H94   H     H_    0.236570 0.898194 0.677337 0.083198
H95   H     H_    0.236709 0.102975 0.677532 0.083569
H96   H     H_    0.295431 0.345246 0.320769 0.089340
H97   H     H_    0.291587 0.651040 0.320281 0.090576
H98   H     H_    0.792570 0.847858 0.319758 0.089495
H99   H     H_    0.322673 0.911559 0.573845 0.159853
H100  H     H_    0.780612 0.139221 0.323365 0.082243
H101  H     H_    0.548709 0.393456 0.833030 0.090528
H102  H     H_    0.534391 0.647018 0.795887 0.083252
H103  H     H_    0.034929 0.853277 0.797273 0.087727
H104  H     H_    0.033256 0.148271 0.793374 0.083948
H105  H     H_    0.455477 0.390023 0.170325 0.089947
H106  H     H_    0.455484 0.610637 0.170389 0.089949
H107  H     H_    0.955701 0.889256 0.170807 0.090876
H108  H     H_    0.977889 0.154783 0.223281 0.094021
H109  H     H_    0.389235 0.229747 0.674971 0.082453
H110  H     H_    0.323346 0.144475 0.676103 0.128389
H111  H     H_    0.370543 0.755793 0.676239 0.094337
H112  H     H_    0.885477 0.734213 0.673814 0.082263
H113  H     H_    0.869271 0.253205 0.677606 0.093864
H114  H     H_    0.441869 0.121965 0.451239 0.263299
H115  H     H_    0.504553 0.068552 0.578150 0.268320
H116  H     H_    0.432832 0.019707 0.452871 0.252694
H117  H     H_    0.409156 0.033143 0.585712 0.184106
H118  H     H_    0.346691 0.082956 0.458867 0.198237
H119  H     H_    0.445535 0.199591 0.583918 0.201100
H120  H     H_    0.463991 0.141950 0.692947 0.163541
N1    N     N_R   0.389430 0.421450 0.294590 -0.043067
N2    N     N_R   0.581780 0.577610 0.443390 -0.032192
N3    N     N_R   0.081780 0.922390 0.443390 -0.032383
N4    N     N_R   0.081780 0.077610 0.443390 -0.031347
N5    N     N_R   0.419850 0.423100 0.556610 -0.033445
N6    N     N_R   0.419850 0.576900 0.556610 -0.032860
N7    N     N_R   0.919850 0.923100 0.556610 -0.031660
N8    N     N_R   0.919850 0.076900 0.556610 -0.031594
N9    N     N_R   0.627410 0.423100 0.556610 -0.033310
N10   N     N_R   0.627410 0.576900 0.556610 -0.032549
N11   N     N_R   0.127410 0.923100 0.556610 -0.032983
N12   N     N_R   0.389430 0.578550 0.294590 -0.042717
N13   N     N_R   0.127410 0.076900 0.556610 -0.031614
N14   N     N_R   0.374220 0.422390 0.443390 -0.038317
N15   N     N_R   0.374220 0.577610 0.443390 -0.036159
N16   N     N_R   0.874220 0.922390 0.443390 -0.037043
N17   N     N_R   0.874220 0.077610 0.443390 -0.033823
N18   N     N_R   0.555000 0.424040 0.705410 -0.038580
N19   N     N_R   0.555000 0.575960 0.705410 -0.037684
N20   N     N_R   0.055000 0.924040 0.705410 -0.039593
N21   N     N_R   0.055000 0.075960 0.705410 -0.039346
N22   N     N_R   0.446630 0.421450 0.294590 -0.040578
N23   N     N_R   0.889430 0.921450 0.294590 -0.044260
N24   N     N_R   0.446630 0.578550 0.294590 -0.040466
N25   N     N_R   0.946630 0.921450 0.294590 -0.041514
N26   N     N_R   0.946630 0.078550 0.294590 -0.041472
N27   N     N_R   0.889430 0.078550 0.294590 -0.043470
N28   N     N_R   0.612200 0.424040 0.705410 -0.044458
N29   N     N_R   0.612200 0.575960 0.705410 -0.044367
N30   N     N_R   0.112200 0.924040 0.705410 -0.045406
N31   N     N_R   0.112200 0.075960 0.705410 -0.045343
N32   N     N_R   0.581780 0.422390 0.443390 -0.032968
Ni1   Ni    Ni4+2 0.382890 0.500000 0.370170 0.201893
Ni2   Ni    Ni4+2 0.882890 1.000000 0.370170 0.205176
Ni3   Ni    Ni4+2 0.618740 0.500000 0.629830 0.205241
Ni4   Ni    Ni4+2 0.118740 1.000000 0.629830 0.207219
Ni5   Ni    Ni4+2 0.514090 0.500000 0.370170 0.206149
Ni6   Ni    Ni4+2 0.014090 1.000000 0.370170 0.207431
Ni7   Ni    Ni4+2 0.487550 0.500000 0.629830 0.207578
Ni8   Ni    Ni4+2 0.987550 1.000000 0.629830 0.209763

loop_
_geom_bond_atom_site_label_1
_geom_bond_atom_site_label_2
_ccdc_geom_bond_type
C20   C38   S    
C58   C62   D    
C99   C103  A    
C13   C79   A    
C68   H75   S    
C96   H104  S    
C31   H37   S    
C75   N32   A    
N9    Ni3   S    
C28   H27   S    
N29   Ni3   S    
C4    H7    S    
C51   H59   S    
C84   N9    A    
C30   H56   S    
N12   Ni1   S    
C18   C106  S    
N23   Ni2   S    
N10   Ni3   S    
C26   C44   S    
C7    C8    S    
C15   C81   A    
C23   H66   S    
C84   H92   S    
C57   H47   S    
C32   N23   A    
C77   N2    A    
C80   N5    A    
C79   H86   S    
C89   N14   A    
N21   Ni8   S    
C4    H6    S    
C67   H74   S    
C68   C102  S    
C82   H90   S    
C25   C42   S    
C3    H8    S    
C76   C95   A    
C14   C36   S    
C64   H72   S    
C70   C104  S    
C9    C22   S    
N23   N25   A    
C106  C107  S    
C9    H25   S    
C101  H108  S    
C43   N27   A    
C49   C54   A    
C107  H118  S    
C100  C104  A    
C63   H71   S    
C2    C85   A    
N3    N11   A    
C85   N10   A    
C43   C105  A    
C72   H67   S    
C19   C26   S    
C17   C39   S    
C15   C37   S    
C54   C93   A    
C56   H50   S    
C84   C98   A    
C3    H9    S    
C1    H1    S    
C53   H43   S    
C48   H64   S    
C61   C66   D    
C66   C72   S    
C26   H99   S    
N4    Ni6   S    
C60   H81   S    
N13   Ni4   S    
C12   C78   A    
C29   C38   S    
C70   C74   D    
C107  C108  S    
C32   C104  A    
C62   C73   S    
C69   C73   D    
C35   H42   S    
C6    H16   S    
C31   C56   S    
C19   C37   S    
C9    C10   S    
C86   H94   S    
C23   C40   S    
C67   C71   D    
C97   C102  A    
C85   H93   S    
N6    N15   A    
N19   Ni7   S    
C79   N4    A    
C57   H51   S    
C64   C71   S    
C30   H29   S    
C34   C38   S    
C82   N7    A    
C24   C41   S    
C20   H112  S    
C25   H110  S    
C17   C92   A    
C96   N21   A    
N21   N31   A    
N17   Ni2   S    
N8    N17   A    
C13   C42   S    
N19   N29   A    
C34   H41   S    
C30   C46   S    
C28   H53   S    
C9    H23   S    
C101  C105  A    
C40   C45   S    
C42   C56   S    
C22   H113  S    
C34   H35   S    
C8    H10   S    
N4    N13   A    
C11   H18   S    
C51   C76   A    
C6    H17   S    
C23   H13   S    
N31   Ni4   S    
C10   C11   S    
C88   N13   A    
C108  H115  S    
C69   C105  S    
C99   N24   A    
N15   Ni1   S    
C5    H3    S    
C27   H52   S    
C67   C103  S    
C52   N31   A    
C35   C55   S    
C41   C98   S    
C75   C98   A    
C33   C37   S    
C3    C4    S    
C71   H65   S    
C29   C45   S    
C24   H77   S    
C17   C83   A    
C78   H85   S    
C33   H38   S    
C47   H32   S    
C35   C39   S    
C10   H22   S    
C14   C89   A    
C49   H57   S    
N26   N27   A    
C92   H100  S    
C33   H40   S    
C2    C40   S    
C95   N20   A    
N5    Ni7   S    
C90   H97   S    
C108  H114  S    
C21   N12   A    
C24   H24   S    
C32   H44   S    
C20   C23   S    
C95   H103  S    
C44   C57   S    
C41   C46   S    
C87   C96   A    
C89   H96   S    
N9    N32   A    
C16   C82   A    
C86   N11   A    
C49   N28   A    
C48   H34   S    
C59   H80   S    
C91   N16   A    
C3    C19   S    
C46   H62   S    
C100  H107  S    
C6    C7    S    
C25   H88   S    
C16   C91   A    
N20   N30   A    
C11   H19   S    
C56   H46   S    
C65   C94   A    
C50   N29   A    
C66   H73   S    
N12   N24   A    
C14   C80   A    
C93   H101  S    
C61   H82   S    
C27   C36   S    
C22   C24   S    
N11   Ni4   S    
N2    N10   A    
C19   H111  S    
N27   Ni2   S    
C83   H91   S    
N18   Ni7   S    
C91   H98   S    
C8    H12   S    
C61   C87   S    
C53   H48   S    
C94   N19   A    
C27   C47   S    
N7    Ni8   S    
C55   H45   S    
C80   H87   S    
C26   H2    S    
C77   H84   S    
C28   C48   S    
C33   C57   S    
C68   C72   D    
C5    H5    S    
C58   H79   S    
C106  H119  S    
C27   H26   S    
C29   H54   S    
C51   N30   A    
C52   C87   A    
N30   Ni4   S    
N1    N22   A    
N22   Ni5   S    
C7    H15   S    
C4    C5    S    
C45   H61   S    
N26   Ni6   S    
C62   H70   S    
C47   H63   S    
C92   N17   A    
C94   H102  S    
C97   N22   A    
N20   Ni8   S    
C99   H106  S    
N1    Ni1   S    
N25   Ni6   S    
C5    H4    S    
C6    C20   S    
C35   H36   S    
C59   C63   D    
N24   Ni5   S    
C12   C86   A    
C60   C64   D    
C75   H83   S    
C81   N6    A    
C101  N26   A    
C78   N3    A    
C10   H21   S    
C31   H39   S    
C12   C44   S    
C2    C77   A    
C18   C25   S    
C59   C65   S    
C15   C90   A    
C81   H89   S    
N6    Ni7   S    
N28   Ni3   S    
C74   H69   S    
N18   N28   A    
C28   C37   S    
C73   H68   S    
C41   C55   S    
C22   C39   S    
C107  H117  S    
C13   C88   A    
C45   H30   S    
N14   Ni1   S    
C60   C76   S    
C30   C39   S    
C11   H20   S    
C106  H120  S    
C42   C47   S    
C88   H95   S    
C50   H58   S    
C50   C65   A    
C100  N25   A    
N7    N16   A    
C93   N18   A    
C70   H78   S    
C69   H76   S    
C21   H33   S    
C21   C103  A    
C108  H116  S    
C1    N1    A    
N5    N14   A    
C55   H49   S    
C29   H28   S    
N16   Ni2   S    
C83   N8    A    
C63   C74   S    
C34   C53   S    
C40   C53   S    
N3    Ni6   S    
C54   C58   S    
N8    Ni8   S    
C31   C36   S    
C97   H105  S    
C7    H14   S    
N32   Ni5   S    
C90   N15   A    
C18   H109  S    
C18   C36   S    
C1    C102  A    
C52   H60   S    
C44   C48   S    
C8    H11   S    
C16   C38   S    
C46   H31   S    
N2    Ni5   S    
C43   H55   S    
