data_mof_unit_4330.cif
_audit_creation_date              2012-12-10T19:27:38-0500
_audit_creation_method            fapswitch 2.2
_symmetry_space_group_name_H-M    P1
_symmetry_Int_Tables_number       1
_space_group_crystal_system       triclinic
_cell_length_a                    23.423216
_cell_length_b                    10.493156
_cell_length_c                    9.795358
_cell_angle_alpha                 89.704087
_cell_angle_beta                  90.45544
_cell_angle_gamma                 90.88366
_cell_volume                      2407.14399276

loop_
_atom_site_label
_atom_site_type_symbol
_atom_type_description
_atom_site_fract_x
_atom_site_fract_y
_atom_site_fract_z
_atom_type_partial_charge
C1    C     C_R   0.499253 0.257598 0.500304 0.900328
C2    C     C_R   0.500778 0.742397 0.499696 0.899830
C3    C     C_R   0.240739 0.578978 0.597098 -0.081464
C4    C     C_R   0.759119 0.421692 0.401169 -0.085459
C5    C     C_R   0.299862 0.573225 0.595925 -0.234513
C6    C     C_R   0.700008 0.427154 0.403143 -0.235427
C7    C     C_R   0.327377 0.498073 0.499128 -0.117666
C8    C     C_R   0.672631 0.501751 0.500664 -0.117575
C9    C     C_R   0.294906 0.427225 0.402481 -0.041418
C10   C     C_R   0.705247 0.572154 0.597413 -0.042905
C11   C     C_R   0.235663 0.437041 0.402573 -0.143638
C12   C     C_R   0.764505 0.562539 0.596569 -0.142872
C13   C     C_R   0.208762 0.510618 0.500720 0.281610
C14   C     C_R   0.791255 0.489709 0.497515 0.288432
C15   C     C_3   0.489331 0.039330 0.627405 -0.160066
C16   C     C_3   0.510746 0.960649 0.372599 -0.160628
C17   C     C_3   0.541246 0.960223 0.585732 -0.135194
C18   C     C_3   0.458832 0.039749 0.414266 -0.133972
C19   C     C_3   0.500926 0.877596 0.499127 0.018538
C20   C     C_3   0.499146 0.122389 0.500873 0.018796
C21   C     C_3   0.449047 0.954075 0.540765 -0.172983
C22   C     C_3   0.551029 0.045911 0.459235 -0.174095
C23   C     C_R   0.389595 0.498369 0.499596 0.905334
C24   C     C_R   0.610408 0.501618 0.500391 0.904982
C25   C     C_3   0.486784 0.390742 0.046927 0.319943
C26   C     C_3   0.513214 0.609258 0.953076 0.320008
C27   C     C_3   0.536679 0.419222 0.951992 -0.125814
C28   C     C_3   0.463319 0.580776 0.048009 -0.125806
C29   C     C_3   0.449770 0.468928 0.950348 -0.165905
C30   C     C_3   0.550230 0.531072 0.049652 -0.166046
C31   C     C_R   0.879464 0.601293 0.452338 0.511936
C32   C     C_R   0.120376 0.399690 0.545106 0.513965
C33   C     C_R   0.880699 0.384340 0.527915 0.523585
C34   C     C_R   0.119405 0.616079 0.467923 0.524732
C35   C     C_R   0.940213 0.386202 0.531369 -0.025338
C36   C     C_R   0.059845 0.614313 0.463780 -0.056737
C37   C     C_R   0.969908 0.498776 0.494061 -0.052709
C38   C     C_R   0.030043 0.501920 0.500823 -0.061712
C39   C     C_R   0.939572 0.607924 0.450419 -0.073831
C40   C     C_R   0.060330 0.392872 0.544352 -0.046474
C41   C     C_R   0.970189 0.278638 0.574184 -0.248026
C42   C     C_R   0.029947 0.721560 0.420003 -0.181613
C43   C     C_R   0.029657 0.280924 0.582707 0.215018
C44   C     C_R   0.970577 0.719543 0.410912 0.216398
H1    H     H_    0.947498 0.192314 0.604240 0.190373
H2    H     H_    0.052687 0.807658 0.389280 0.204687
H3    H     H_    0.566956 0.351128 0.906894 0.140244
H4    H     H_    0.433043 0.648867 0.093109 0.140461
H5    H     H_    0.408024 0.440618 0.904379 0.156414
H6    H     H_    0.591975 0.559381 0.095621 0.156141
H7    H     H_    0.219689 0.635448 0.673427 0.149315
H8    H     H_    0.780043 0.365747 0.324190 0.148752
H9    H     H_    0.324218 0.628027 0.670304 0.162522
H10   H     H_    0.675554 0.372671 0.328674 0.162768
H11   H     H_    0.209814 0.382661 0.330635 0.173637
H12   H     H_    0.790462 0.616625 0.668542 0.173847
H13   H     H_    0.574597 0.925360 0.656923 0.191905
H14   H     H_    0.425494 0.074493 0.342983 0.192283
H15   H     H_    0.480326 0.074905 0.731154 0.155815
H16   H     H_    0.519751 0.925072 0.268852 0.155796
H17   H     H_    0.407613 0.912012 0.573998 0.147339
H18   H     H_    0.592461 0.087979 0.426000 0.146673
N1    N     N_R   0.851980 0.491082 0.490669 -0.351328
N2    N     N_R   0.148028 0.509570 0.506567 -0.356895
N3    N     N_3   0.499960 0.500030 0.863290 -0.113609
N4    N     N_3   0.500040 0.499970 0.136710 -0.113628
O1    O     O_R   0.500000 0.313960 0.616610 -0.631780
O2    O     O_R   0.500000 0.686040 0.383390 -0.631726
O3    O     O_R   0.500030 0.313950 0.383350 -0.601238
O4    O     O_R   0.499970 0.686050 0.616650 -0.601277
O5    O     O_R   0.416140 0.499970 0.616650 -0.620499
O6    O     O_R   0.583860 0.500030 0.383350 -0.620816
O7    O     O_R   0.416170 0.499960 0.383400 -0.611004
O8    O     O_R   0.583830 0.500040 0.616600 -0.610770
O9    O     O_2   0.848174 0.703719 0.418819 -0.564045
O10   O     O_2   0.151362 0.297784 0.582566 -0.519278
O11   O     O_2   0.851498 0.277628 0.564131 -0.561827
O12   O     O_2   0.148721 0.722476 0.431228 -0.552307
Zn1   Zn    Zn3+2 0.499980 0.500010 0.655740 0.967545
Zn2   Zn    Zn3+2 0.500020 0.499990 0.344260 0.967319
N5    N     N_2   0.470955 0.268583 0.105097 -0.275276
H19   H     H_    0.435365 0.273866 0.165476 0.271167
C45   C     C_3   0.467453 0.164691 0.009323 -0.849892
H20   H     H_    0.455979 0.075345 0.064441 0.246027
H21   H     H_    0.509398 0.151600 0.959805 0.245459
H22   H     H_    0.434171 0.183600 0.930623 0.242868
N6    N     N_2   0.529030 0.731429 0.894916 -0.275231
H23   H     H_    0.564614 0.726166 0.834520 0.271556
C46   C     C_3   0.532536 0.835309 0.990705 -0.850026
H24   H     H_    0.544001 0.924664 0.935592 0.246000
H25   H     H_    0.565828 0.816398 0.069380 0.242547
H26   H     H_    0.490596 0.848384 0.040251 0.245615
N7    N     N_2   0.057791 0.169935 0.630721 -0.250116
H27   H     H_    0.040372 0.086266 0.592942 0.217075
C47   C     C_3   0.064991 0.165159 0.777460 -0.658700
H28   H     H_    0.090374 0.080443 0.805966 0.242689
H29   H     H_    0.022721 0.157794 0.827952 0.209911
H30   H     H_    0.088118 0.251757 0.814393 0.258047
N8    N     N_2   0.944024 0.829653 0.355732 -0.293740
H31   H     H_    0.913971 0.817585 0.279324 0.272807
C48   C     C_3   0.936658 0.936126 0.447007 -0.692148
H32   H     H_    0.951895 0.024873 0.396065 0.228995
H33   H     H_    0.961100 0.923860 0.543878 0.220924
H34   H     H_    0.890761 0.946036 0.471644 0.280786
C49   C     C_2   0.320503 0.334605 0.308422 0.911547
O13   O     O_2   0.359426 0.267336 0.348058 -0.680105
O14   O     O_R   0.298380 0.320126 0.176324 -0.805605
H35   H     H_    0.319184 0.253278 0.122273 0.339094
C50   C     C_2   0.679785 0.664259 0.692252 0.910081
O15   O     O_2   0.640915 0.731987 0.653235 -0.680482
O16   O     O_R   0.701988 0.677759 0.824390 -0.805999
H36   H     H_    0.681269 0.744325 0.879024 0.338771

loop_
_geom_bond_atom_site_label_1
_geom_bond_atom_site_label_2
_ccdc_geom_bond_type
O2    Zn2   S    
N6    H23   S    
N7    H27   S    
N3    Zn1   S    
C18   C21   S    
C36   C42   A    
C47   H28   S    
C24   O8    A    
O5    Zn1   S    
N5    H19   S    
C47   H30   S    
C29   H5    S    
C49   O14   S    
C48   H32   S    
C4    H8    S    
C5    H9    S    
C28   C29   S    
C35   C37   A    
C23   O7    A    
C2    O2    A    
C50   O16   S    
C16   H16   S    
C44   N8    S    
C9    C49   S    
C10   C50   S    
C7    C9    A    
C42   H2    S    
C17   C19   S    
C18   H14   S    
C40   C43   A    
C45   H20   S    
C26   N6    S    
O14   H35   S    
C46   H25   S    
C21   H17   S    
C3    C13   A    
C30   H6    S    
C48   H33   S    
C27   C30   S    
C25   N5    S    
C41   C43   A    
C42   C44   A    
C6    H10   S    
N5    C45   S    
C25   C29   S    
C15   C20   S    
C31   N1    A    
O1    Zn1   S    
C32   N2    A    
C4    C6    A    
C5    C7    A    
C3    H7    S    
C6    C8    A    
C2    C19   S    
C1    O3    A    
O6    Zn2   S    
C28   N4    S    
C37   C38   A    
C27   N3    S    
C23   O5    A    
C22   H18   S    
C31   O9    S    
N8    H31   S    
C33   N1    A    
C34   N2    A    
C12   H12   S    
C46   H26   S    
C9    C11   A    
C30   N4    S    
C10   C12   A    
C29   N3    S    
C8    C10   A    
C45   H21   S    
C12   C14   A    
C26   C30   S    
C48   H34   S    
O8    Zn1   S    
N6    C46   S    
C11   H11   S    
C24   O6    A    
C27   H3    S    
C15   C17   S    
C28   H4    S    
C1    C20   S    
C16   C22   S    
O16   H36   S    
N8    C48   S    
O4    Zn1   S    
C26   N3    S    
C15   H15   S    
C25   N4    S    
C20   C22   S    
C3    C5    A    
C32   O10   S    
C47   H29   S    
C39   C44   A    
C1    O1    A    
C25   C27   S    
N4    Zn2   S    
C49   O13   D    
C26   C28   S    
C17   C22   S    
C43   N7    S    
C36   C38   A    
C37   C39   A    
C50   O15   D    
C34   O12   S    
C38   C40   A    
C11   C13   A    
C33   O11   S    
N7    C47   S    
C13   N2    S    
C16   C19   S    
C7    C23   S    
C14   N1    S    
C33   C35   A    
O7    Zn2   S    
C31   C39   A    
C18   C20   S    
C32   C40   A    
C4    C14   A    
C35   C41   A    
C15   C21   S    
C45   H22   S    
C8    C24   S    
C34   C36   A    
C16   C18   S    
C41   H1    S    
O3    Zn2   S    
C46   H24   S    
C2    O4    A    
C17   H13   S    
C19   C21   S    
