data_mof_unit_181.cif
_audit_creation_date              2012-12-10T18:48:41-0500
_audit_creation_method            fapswitch 2.2
_symmetry_space_group_name_H-M    P1
_symmetry_Int_Tables_number       1
_space_group_crystal_system       triclinic
_cell_length_a                    15.579545
_cell_length_b                    14.803934
_cell_length_c                    9.92317
_cell_angle_alpha                 90.001558
_cell_angle_beta                  89.999789
_cell_angle_gamma                 90.000048
_cell_volume                      2288.66559819

loop_
_atom_site_label
_atom_site_type_symbol
_atom_type_description
_atom_site_fract_x
_atom_site_fract_y
_atom_site_fract_z
_atom_type_partial_charge
C1    C     C_R   0.121271 0.381485 0.500389 0.856386
C2    C     C_R   0.001855 0.420336 0.927678 0.158980
C3    C     C_R   0.998143 0.420337 0.072325 0.158952
C4    C     C_R   0.998151 0.579664 0.927679 0.158942
C5    C     C_R   0.501796 0.079665 0.072331 0.159119
C6    C     C_R   0.501785 0.920335 0.927670 0.159159
C7    C     C_R   0.498217 0.920334 0.072326 0.159121
C8    C     C_R   0.498201 0.079665 0.927676 0.159093
C9    C     C_R   0.780989 0.282998 0.374884 -0.188682
C10   C     C_R   0.221693 0.714824 0.619700 -0.214678
C11   C     C_R   0.219104 0.716895 0.374877 -0.188704
C12   C     C_R   0.878714 0.618499 0.500390 0.856339
C13   C     C_R   0.778191 0.285315 0.619685 -0.214698
C14   C     C_R   0.218996 0.282989 0.625093 -0.188725
C15   C     C_R   0.778312 0.714821 0.380292 -0.214714
C16   C     C_R   0.780898 0.716900 0.625114 -0.188717
C17   C     C_R   0.221713 0.285205 0.380311 -0.214655
C18   C     C_R   0.281155 0.782819 0.374869 -0.188741
C19   C     C_R   0.721875 0.214614 0.619677 -0.214676
C20   C     C_R   0.718935 0.217078 0.374882 -0.188769
C21   C     C_R   0.277996 0.785536 0.619663 -0.214727
C22   C     C_R   0.718838 0.782815 0.625122 -0.188750
C23   C     C_R   0.878712 0.381504 0.499608 0.856370
C24   C     C_R   0.278056 0.214528 0.380327 -0.214691
C25   C     C_R   0.281067 0.217086 0.625098 -0.188785
C26   C     C_R   0.721995 0.785521 0.380331 -0.214675
C27   C     C_R   0.188959 0.683379 0.497915 -0.010629
C28   C     C_R   0.811036 0.316629 0.497908 -0.010656
C29   C     C_R   0.811046 0.683383 0.502080 -0.010631
C30   C     C_R   0.188917 0.316576 0.502081 -0.010662
C31   C     C_R   0.688962 0.183372 0.497903 -0.010627
C32   C     C_R   0.311023 0.816646 0.497889 -0.010627
C33   C     C_R   0.311019 0.183349 0.502093 -0.010643
C34   C     C_R   0.121289 0.618495 0.499610 0.856391
C35   C     C_R   0.688967 0.816635 0.502104 -0.010634
C36   C     C_3   0.943638 0.724764 0.149282 -0.753357
C37   C     C_3   0.943400 0.275345 0.850831 -0.753537
C38   C     C_3   0.056443 0.275273 0.149199 -0.753633
C39   C     C_3   0.056447 0.724761 0.850858 -0.753473
C40   C     C_3   0.443094 0.224623 0.148904 -0.754168
C41   C     C_3   0.442841 0.775465 0.851238 -0.754342
C42   C     C_3   0.557110 0.775431 0.148728 -0.754296
C43   C     C_3   0.556880 0.224635 0.851140 -0.754182
C44   C     C_R   0.621286 0.881503 0.500394 0.856503
C45   C     C_R   0.378712 0.118495 0.500393 0.856438
C46   C     C_R   0.378709 0.881508 0.499604 0.856497
C47   C     C_R   0.621286 0.118497 0.499607 0.856455
C48   C     C_R   0.001870 0.579663 0.072327 0.159026
H1    H     H_    0.804687 0.307663 0.279220 0.144419
H2    H     H_    0.703702 0.185395 0.714804 0.160385
H3    H     H_    0.695175 0.192478 0.279215 0.144380
H4    H     H_    0.296077 0.814863 0.714770 0.160377
H5    H     H_    0.694992 0.807319 0.720793 0.144355
H6    H     H_    0.296215 0.185282 0.285210 0.160389
H7    H     H_    0.304861 0.192528 0.720754 0.144390
H8    H     H_    0.703911 0.814842 0.285228 0.160385
H9    H     H_    0.073275 0.691253 0.129630 0.208260
H10   H     H_    0.958756 0.786467 0.090935 0.209313
H11   H     H_    0.933997 0.746510 0.254976 0.252271
H12   H     H_    0.203403 0.685747 0.714865 0.160371
H13   H     H_    0.883793 0.694686 0.108230 0.212951
H14   H     H_    0.073062 0.308591 0.870563 0.208288
H15   H     H_    0.958335 0.213721 0.909502 0.209245
H16   H     H_    0.933806 0.253426 0.745206 0.252322
H17   H     H_    0.883577 0.305625 0.891643 0.213019
H18   H     H_    0.926804 0.308716 0.129634 0.208300
H19   H     H_    0.041428 0.213692 0.090494 0.209319
H20   H     H_    0.066004 0.253327 0.254835 0.252272
H21   H     H_    0.116305 0.305481 0.108402 0.213021
H22   H     H_    0.926793 0.691277 0.870337 0.208281
H23   H     H_    0.195492 0.692131 0.279209 0.144413
H24   H     H_    0.041383 0.786391 0.909431 0.209359
H25   H     H_    0.066054 0.746641 0.745217 0.252237
H26   H     H_    0.116296 0.694599 0.891768 0.212977
H27   H     H_    0.572849 0.191438 0.129924 0.208430
H28   H     H_    0.458034 0.286190 0.090137 0.209380
H29   H     H_    0.433398 0.246653 0.254444 0.252351
H30   H     H_    0.383327 0.194251 0.108057 0.213135
H31   H     H_    0.572664 0.808460 0.869940 0.208469
H32   H     H_    0.457657 0.713965 0.910279 0.209355
H33   H     H_    0.433158 0.753274 0.745765 0.252361
H34   H     H_    0.796409 0.314483 0.714824 0.160337
H35   H     H_    0.383095 0.806011 0.891915 0.213188
H36   H     H_    0.427303 0.808478 0.130022 0.208486
H37   H     H_    0.542299 0.713953 0.089625 0.209333
H38   H     H_    0.566777 0.753204 0.254194 0.252337
H39   H     H_    0.616859 0.805971 0.108055 0.213192
H40   H     H_    0.427131 0.191420 0.870077 0.208430
H41   H     H_    0.541944 0.286165 0.910022 0.209410
H42   H     H_    0.566545 0.246720 0.745612 0.252319
H43   H     H_    0.616664 0.194247 0.891912 0.213134
H44   H     H_    0.195315 0.307681 0.720746 0.144508
H45   H     H_    0.796616 0.685752 0.285122 0.160364
H46   H     H_    0.804515 0.692145 0.720782 0.144407
H47   H     H_    0.203452 0.314321 0.285175 0.160363
H48   H     H_    0.304999 0.807322 0.279196 0.144351
N1    N     N_R   0.000000 0.500000 0.857200 -0.133383
N2    N     N_2   0.513760 0.838462 0.855221 -0.240302
N3    N     N_2   0.486216 0.838457 0.144769 -0.240276
N4    N     N_2   0.486070 0.161521 0.855252 -0.240316
N5    N     N_R   1.000000 0.500000 0.142800 -0.133394
N6    N     N_R   0.500000 0.000000 0.857200 -0.133489
N7    N     N_R   0.500000 0.000000 0.142800 -0.133497
N8    N     N_2   0.014302 0.661487 0.144720 -0.240404
N9    N     N_2   0.014180 0.338492 0.855292 -0.240416
N10   N     N_2   0.985759 0.338513 0.144715 -0.240424
N11   N     N_2   0.985767 0.661498 0.855294 -0.240371
N12   N     N_2   0.513918 0.161524 0.144764 -0.240315
O1    O     O_R   0.091610 0.408380 0.614620 -0.612130
O2    O     O_R   0.408390 0.091620 0.385380 -0.603478
O3    O     O_R   0.408390 0.091620 0.614620 -0.612332
O4    O     O_R   0.591610 0.908380 0.385380 -0.603389
O5    O     O_R   0.408390 0.908380 0.385380 -0.612379
O6    O     O_R   0.591610 0.091620 0.614620 -0.603461
O7    O     O_R   0.591610 0.091620 0.385380 -0.612334
O8    O     O_R   0.408390 0.908380 0.614620 -0.603396
O9    O     O_R   0.908390 0.591620 0.385380 -0.603654
O10   O     O_R   0.908390 0.591620 0.614620 -0.612177
O11   O     O_R   0.091610 0.408380 0.385380 -0.603600
O12   O     O_R   0.908390 0.408380 0.385380 -0.612154
O13   O     O_R   0.091610 0.591620 0.614620 -0.603597
O14   O     O_R   0.091610 0.591620 0.385380 -0.612155
O15   O     O_R   0.908390 0.408380 0.614620 -0.603600
O16   O     O_R   0.591610 0.908380 0.614620 -0.612388
Zn1   Zn    Zn3+2 0.000000 0.500000 0.653120 0.974907
Zn2   Zn    Zn3+2 1.000000 0.500000 0.346880 0.974882
Zn3   Zn    Zn3+2 0.500000 1.000000 0.653120 0.974898
Zn4   Zn    Zn3+2 0.500000 0.000000 0.346880 0.974899

loop_
_geom_bond_atom_site_label_1
_geom_bond_atom_site_label_2
_ccdc_geom_bond_type
C10   C27   A    
C47   O6    A    
C5    N7    A    
C11   C18   A    
C38   N10   S    
C12   C29   S    
C33   C45   S    
H31   N2    S    
C36   H11   S    
C19   C31   A    
C41   H32   S    
H14   N9    S    
C39   N11   S    
C22   C35   A    
C43   H41   S    
C7    N3    S    
C6    N2    S    
H18   N10   S    
C20   H3    S    
C36   H10   S    
H22   N11   S    
C11   H23   S    
O15   Zn1   S    
C24   H6    S    
C48   N8    S    
C18   H48   S    
C1    O11   A    
C39   H26   S    
C1    O1    A    
C4    N11   S    
C2    N1    A    
O8    Zn3   S    
C37   H17   S    
C39   H24   S    
C13   C28   A    
C42   H38   S    
O10   Zn1   S    
O9    Zn2   S    
C40   N12   S    
C3    N5    A    
C39   H25   S    
C38   H21   S    
H27   N12   S    
C34   O14   A    
C31   C47   S    
C4    N1    A    
C17   C30   A    
C14   C30   A    
C37   H15   S    
C15   C29   A    
C22   H5    S    
C27   C34   S    
C21   C32   A    
C17   C24   A    
C13   C19   A    
C43   H42   S    
C9    H1    S    
C43   N4    S    
N1    Zn1   S    
N6    Zn3   S    
C23   O12   A    
O5    Zn4   S    
C45   O2    A    
C15   C26   A    
C23   O15   A    
C37   N9    S    
C13   H34   S    
C44   O16   A    
C47   O7    A    
O7    Zn4   S    
C40   H28   S    
O14   Zn2   S    
C10   H12   S    
O13   Zn1   S    
N7    Zn4   S    
C9    C20   A    
C11   C27   A    
C41   H33   S    
N5    Zn2   S    
C42   H37   S    
C23   C28   S    
C35   C44   S    
C14   H44   S    
H40   N4    S    
O12   Zn2   S    
O16   Zn3   S    
C17   H47   S    
C44   O4    A    
O1    Zn1   S    
C38   H20   S    
C34   O13   A    
O3    Zn3   S    
C12   O10   A    
C18   C32   A    
C36   H13   S    
C37   H16   S    
C4    C48   A    
H9    N8    S    
C16   C22   A    
C46   O5    A    
C40   H29   S    
H36   N3    S    
C32   C46   S    
C25   H7    S    
C26   H8    S    
C10   C21   A    
C15   H45   S    
C5    C8    A    
C45   O3    A    
C6    C7    A    
C2    N9    S    
C16   H46   S    
C24   C33   A    
C46   O8    A    
C36   N8    S    
C3    N10   S    
C16   C29   A    
C42   N3    S    
O6    Zn3   S    
C19   H2    S    
C48   N5    A    
C1    C30   S    
C2    C3    A    
C40   H30   S    
C6    N6    A    
C14   C25   A    
C8    N4    S    
C43   H43   S    
O4    Zn4   S    
C12   O9    A    
O11   Zn2   S    
C26   C35   A    
C38   H19   S    
O2    Zn4   S    
C41   N2    S    
C7    N7    A    
C42   H39   S    
C8    N6    A    
C5    N12   S    
C21   H4    S    
C9    C28   A    
C25   C33   A    
C20   C31   A    
C41   H35   S    
