data_mof_unit_1365.cif
_audit_creation_date              2012-10-26T19:37:21-0400
_audit_creation_method            fapswitch 2.2
_symmetry_space_group_name_H-M    P1
_symmetry_Int_Tables_number       1
_space_group_crystal_system       triclinic
_cell_length_a                    10.96903
_cell_length_b                    15.950103
_cell_length_c                    17.036557
_cell_angle_alpha                 94.236825
_cell_angle_beta                  92.861475
_cell_angle_gamma                 93.8147
_cell_volume                      2961.42901431

loop_
_atom_site_label
_atom_site_type_symbol
_atom_type_description
_atom_site_fract_x
_atom_site_fract_y
_atom_site_fract_z
_atom_type_partial_charge
C1    C     C_R   0.499349 0.490703 0.349073 0.566845
C2    C     C_R   0.512562 0.509758 0.738326 -0.016802
C3    C     C_R   0.541955 0.584432 0.787300 0.238245
C4    C     C_R   0.264938 0.498856 0.494536 0.547152
C5    C     C_R   0.564216 0.579539 0.868361 -0.107559
C6    C     C_R   0.442822 0.753353 0.457571 0.102032
C7    C     C_R   0.424748 0.840644 0.471756 -0.003249
C8    C     C_R   0.497306 0.889815 0.530798 0.172610
C9    C     C_R   0.571391 0.847346 0.583037 -0.039094
C10   C     C_R   0.582119 0.758609 0.569652 0.411606
C11   C     C_R   0.555244 0.161959 0.549752 -0.050473
C12   C     C_R   0.383876 0.505800 0.221520 -0.083758
C13   C     C_R   0.543798 0.250806 0.551642 0.356130
C14   C     C_R   0.496148 0.108468 0.487256 0.142543
C15   C     C_R   0.436456 0.236446 0.426422 0.353060
C16   C     C_R   0.502490 0.509028 0.651584 0.554749
C17   C     C_R   0.438240 0.147288 0.425137 0.250854
C18   C     C_R   0.734445 0.501460 0.501548 0.542844
C19   C     C_2   0.934993 0.556821 0.465700 -0.028129
C20   C     C_2   0.866997 0.508174 0.511843 0.269244
C21   C     C_2   0.069937 0.564498 0.476938 0.273873
C22   C     C_2   0.132156 0.493800 0.478136 0.304441
C23   C     C_R   0.381568 0.505270 0.139021 0.247178
C24   C     C_R   0.491912 0.486401 0.263093 -0.046611
C25   C     C_3   0.879035 0.599283 0.397245 -0.416890
C26   C     C_3   0.290532 0.610784 0.081576 -0.102994
C27   C     C_3   0.268705 0.525172 0.262409 -0.359297
C28   C     C_3   0.709017 0.321058 0.623851 -0.061717
C29   C     C_3   0.637302 0.128435 0.612696 -0.355916
C30   C     C_3   0.634927 0.896034 0.654514 -0.403411
C31   C     C_3   0.780963 0.733695 0.596986 -0.098102
C32   C     C_3   0.275803 0.292069 0.362201 -0.062251
C33   C     C_3   0.320574 0.879398 0.429222 -0.378899
C34   C     C_R   0.482301 0.480075 0.097896 0.162603
C35   C     C_3   0.266381 0.076584 0.366191 -0.109156
C36   C     C_3   0.917160 0.513167 0.643531 -0.146521
C37   C     C_3   0.389676 0.708374 0.381081 -0.308360
C38   C     C_3   0.087465 0.704183 0.525497 -0.131144
C39   C     C_3   0.027981 0.395544 0.388105 -0.137346
C40   C     C_3   0.511703 0.342401 0.886260 -0.366216
C41   C     C_3   0.669351 0.341872 0.078691 -0.090988
C42   C     C_3   0.695205 0.360241 0.285192 -0.100391
C43   C     C_3   0.450323 0.704429 0.765987 -0.089693
C44   C     C_R   0.586979 0.454754 0.139387 0.279204
C45   C     C_R   0.592278 0.459232 0.221945 0.234933
C46   C     C_R   0.519308 0.427616 0.853550 0.010998
C47   C     C_R   0.499056 0.432468 0.772596 -0.181075
C48   C     C_R   0.551621 0.502324 0.901858 0.192188
Cu1   Cu    Cu3+1 0.494040 0.415220 0.496180 1.000556
Cu2   Cu    Cu3+1 0.505960 0.584780 0.503820 0.986562
H1    H     H_    0.589608 0.636577 0.905752 0.125861
H2    H     H_    0.190891 0.482872 0.235511 0.165511
H3    H     H_    0.274866 0.515593 0.326064 0.096227
H4    H     H_    0.723503 0.389895 0.637499 0.171573
H5    H     H_    0.755947 0.303358 0.569016 0.140969
H6    H     H_    0.753348 0.292355 0.674278 0.097939
H7    H     H_    0.656973 0.062278 0.601001 0.162090
H8    H     H_    0.729756 0.160771 0.614497 0.105121
H9    H     H_    0.597650 0.137344 0.671172 0.148457
H10   H     H_    0.572197 0.939653 0.682572 0.135505
H11   H     H_    0.663170 0.853977 0.700147 0.170754
H12   H     H_    0.474273 0.374908 0.736001 0.189097
H13   H     H_    0.717317 0.932546 0.636813 0.115529
H14   H     H_    0.820788 0.795286 0.624457 0.089507
H15   H     H_    0.789177 0.731640 0.532085 0.095553
H16   H     H_    0.836862 0.684493 0.619649 0.126205
H17   H     H_    0.273406 0.360844 0.358679 0.158009
H18   H     H_    0.229251 0.273376 0.415736 0.116612
H19   H     H_    0.221954 0.262493 0.309349 0.099124
H20   H     H_    0.291602 0.935577 0.463541 0.156551
H21   H     H_    0.348236 0.896495 0.370374 0.156050
H22   H     H_    0.237553 0.835172 0.422827 0.114845
H23   H     H_    0.951006 0.626931 0.361329 0.155854
H24   H     H_    0.210598 0.124976 0.342212 0.117950
H25   H     H_    0.241800 0.067375 0.427837 0.089130
H26   H     H_    0.240295 0.016848 0.330019 0.129570
H27   H     H_    0.822846 0.530232 0.656041 0.113320
H28   H     H_    0.980223 0.570700 0.645690 0.104505
H29   H     H_    0.948727 0.474714 0.691226 0.144240
H30   H     H_    0.330589 0.652410 0.391708 0.205229
H31   H     H_    0.332804 0.746457 0.344223 0.079757
H32   H     H_    0.465492 0.692970 0.343161 0.140065
H33   H     H_    0.072898 0.681409 0.584633 0.096907
H34   H     H_    0.820994 0.552567 0.358130 0.180753
H35   H     H_    0.002281 0.726901 0.499450 0.106271
H36   H     H_    0.155768 0.758956 0.534269 0.141588
H37   H     H_    0.084659 0.426782 0.344886 0.071608
H38   H     H_    0.932293 0.412880 0.380601 0.145398
H39   H     H_    0.025767 0.326579 0.373424 0.117359
H40   H     H_    0.601791 0.331042 0.914278 0.134387
H41   H     H_    0.439858 0.338711 0.929651 0.160277
H42   H     H_    0.488619 0.290856 0.839334 0.115527
H43   H     H_    0.575913 0.322653 0.052227 0.099003
H44   H     H_    0.687515 0.305216 0.130202 0.110668
H45   H     H_    0.823032 0.650726 0.418253 0.137623
H46   H     H_    0.736070 0.324760 0.034433 0.136961
H47   H     H_    0.774771 0.328540 0.262494 0.113046
H48   H     H_    0.610217 0.320637 0.264609 0.140624
H49   H     H_    0.704469 0.362050 0.350367 0.161947
H50   H     H_    0.435633 0.719519 0.829485 0.087781
H51   H     H_    0.368662 0.667606 0.736517 0.116675
H52   H     H_    0.460628 0.764911 0.737973 0.143200
H53   H     H_    0.203683 0.628102 0.052949 0.142292
H54   H     H_    0.363977 0.621849 0.040066 0.134853
H55   H     H_    0.309208 0.653053 0.136433 0.097473
H56   H     H_    0.247948 0.591405 0.255439 0.138456
N1    N     N_2   0.472350 0.478503 0.014578 -0.216797
N2    N     N_2   0.568618 0.502127 0.984480 -0.192761
N3    N     N_R   0.514910 0.712130 0.509560 -0.231234
N4    N     N_2   0.490953 0.980214 0.541528 -0.258489
N5    N     N_2   0.502151 0.017760 0.479627 -0.192036
N6    N     N_R   0.485090 0.287850 0.490450 -0.251297
O1    O     O_R   0.494430 0.420530 0.382500 -0.468934
O2    O     O_3   0.581870 0.298966 0.620344 -0.557942
O3    O     O_3   0.659273 0.717748 0.618177 -0.487924
O4    O     O_3   0.397895 0.270294 0.358009 -0.534842
O5    O     O_3   0.392201 0.097778 0.358823 -0.529744
O6    O     O_3   0.921146 0.465367 0.570808 -0.556670
O7    O     O_3   0.133977 0.642490 0.473842 -0.595024
O8    O     O_3   0.073417 0.413212 0.467255 -0.548508
O9    O     O_3   0.686819 0.429253 0.099781 -0.501557
O10   O     O_3   0.700473 0.443706 0.261983 -0.569275
O11   O     O_3   0.557565 0.661618 0.756043 -0.511833
O12   O     O_R   0.504490 0.563720 0.388950 -0.537106
O13   O     O_R   0.316910 0.428420 0.496780 -0.493469
O14   O     O_R   0.326970 0.571610 0.503230 -0.494740
O15   O     O_R   0.495510 0.436280 0.611050 -0.468878
O16   O     O_R   0.505570 0.579470 0.617500 -0.413659
O17   O     O_R   0.673030 0.428390 0.496770 -0.510795
O18   O     O_R   0.683090 0.571580 0.503220 -0.509572
O19   O     O_3   0.276852 0.525246 0.097717 -0.538713

loop_
_geom_bond_atom_site_label_1
_geom_bond_atom_site_label_2
_ccdc_geom_bond_type
C31   H16   S    
Cu1   O1    S    
C35   H24   S    
C38   H33   S    
C19   C20   D    
C39   H37   S    
C47   H12   S    
C20   O6    S    
C28   H6    S    
C7    C8    A    
C44   C45   A    
C40   C46   S    
C12   C23   A    
C35   H25   S    
C4    O13   A    
C38   H36   S    
C24   C45   A    
C19   C21   S    
C13   N6    A    
C36   H27   S    
C42   H48   S    
C11   C14   A    
C41   H46   S    
C39   O8    S    
C44   O9    S    
C10   N3    A    
C15   C17   A    
C41   O9    S    
N4    N5    D    
Cu2   O18   S    
C33   H22   S    
C26   H54   S    
C41   H43   S    
C29   H9    S    
C8    C9    A    
C30   H10   S    
C25   H34   S    
N1    N2    D    
Cu2   O14   S    
C36   O6    S    
C9    C10   A    
C18   C20   S    
C13   O2    S    
C17   O5    S    
C32   H18   S    
C21   C22   D    
C7    C33   S    
C14   C17   A    
C37   H31   S    
C1    O1    A    
C39   H38   S    
C31   H14   S    
C26   H55   S    
C31   O3    S    
C5    C48   A    
C28   H5    S    
C3    O11   S    
C14   N5    S    
Cu1   O15   S    
C37   H30   S    
C46   C48   A    
C35   H26   S    
C12   C27   S    
Cu2   O12   S    
C43   H50   S    
C42   H47   S    
C28   H4    S    
C38   H35   S    
C27   H56   S    
Cu1   O17   S    
Cu2   N3    S    
C40   H42   S    
C22   O8    S    
C43   H51   S    
C8    N4    S    
C26   H53   S    
C4    C22   S    
C41   H44   S    
C23   C34   A    
C6    C37   S    
C23   O19   S    
C32   O4    S    
C16   O16   A    
C6    C7    A    
C28   O2    S    
C9    C30   S    
C32   H17   S    
C38   O7    S    
C33   H20   S    
C29   H7    S    
C25   H45   S    
Cu1   N6    S    
C2    C47   A    
C6    N3    A    
C37   H32   S    
C35   O5    S    
Cu2   O16   S    
C34   N1    S    
C43   O11   S    
C2    C16   S    
C27   H2    S    
C42   O10   S    
C31   H15   S    
C34   C44   A    
C46   C47   A    
C15   N6    A    
C3    C5    A    
C36   H29   S    
C27   H3    S    
C32   H19   S    
C45   O10   S    
Cu1   O13   S    
C12   C24   A    
C4    O14   A    
C2    C3    A    
C1    O12   A    
C21   O7    S    
C36   H28   S    
C42   H49   S    
C11   C13   A    
C48   N2    S    
C26   O19   S    
C25   H23   S    
C40   H41   S    
C19   C25   S    
C16   O15   A    
C43   H52   S    
C18   O18   A    
C33   H21   S    
C29   H8    S    
C11   C29   S    
C1    C24   S    
Cu1   Cu2   S    
C30   H11   S    
C15   O4    S    
C5    H1    S    
C18   O17   A    
C40   H40   S    
C30   H13   S    
C39   H39   S    
C10   O3    S    
