data_mof_unit_1110.cif
_audit_creation_date              2012-12-10T20:31:03-0500
_audit_creation_method            fapswitch 2.2
_symmetry_space_group_name_H-M    P1
_symmetry_Int_Tables_number       1
_space_group_crystal_system       triclinic
_cell_length_a                    14.991003
_cell_length_b                    10.717956
_cell_length_c                    9.884501
_cell_angle_alpha                 89.375827
_cell_angle_beta                  90.603407
_cell_angle_gamma                 91.03574
_cell_volume                      1587.73300906

loop_
_atom_site_label
_atom_site_type_symbol
_atom_type_description
_atom_site_fract_x
_atom_site_fract_y
_atom_site_fract_z
_atom_type_partial_charge
C1    C     C_R   0.503001 0.259939 0.500494 0.902764
C2    C     C_R   0.906668 0.538274 0.381402 0.112320
C3    C     C_R   0.954982 0.452265 0.741620 -0.186410
C4    C     C_R   0.047640 0.452346 0.741247 -0.203503
C5    C     C_R   0.093401 0.480633 0.621716 0.113982
C6    C     C_R   0.046487 0.510539 0.501655 0.058718
C7    C     C_R   0.092379 0.540020 0.381152 0.109962
C8    C     C_R   0.045283 0.569335 0.262309 -0.178759
C9    C     C_R   0.952543 0.568234 0.262364 -0.202171
C10   C     C_R   0.185492 0.478293 0.619767 -0.244362
C11   C     C_R   0.230834 0.505660 0.499829 -0.078641
C12   C     C_R   0.326685 0.501325 0.499589 0.913677
C13   C     C_R   0.184730 0.538632 0.381575 -0.174555
C14   C     C_R   0.519324 0.062024 0.622538 0.073113
C15   C     C_R   0.517460 0.128655 0.500900 -0.105157
C16   C     C_R   0.532075 0.066568 0.378857 -0.190722
C17   C     C_R   0.531655 0.937335 0.378089 -0.175006
C18   C     C_R   0.516507 0.871580 0.499329 -0.162600
C19   C     C_R   0.518319 0.934407 0.621804 0.110644
C20   C     C_3   0.455037 0.925048 0.737615 0.240167
C21   C     C_3   0.457904 0.066030 0.740071 -0.520147
C22   C     C_R   0.425523 0.463125 0.070450 0.189030
C23   C     C_R   0.502729 0.739971 0.499415 0.872943
C24   C     C_R   0.569604 0.549195 0.073856 -0.078899
C25   C     C_R   0.569598 0.551758 0.930008 0.035235
C26   C     C_R   0.425240 0.464478 0.928019 0.164636
C27   C     C_3   0.378652 0.341372 0.921280 -0.545664
C28   C     C_3   0.381037 0.337450 0.074811 0.200286
C29   C     C_R   0.673323 0.501005 0.500510 0.884590
C30   C     C_R   0.814384 0.535277 0.382007 -0.235943
C31   C     C_R   0.769232 0.504575 0.501317 -0.081568
C32   C     C_R   0.815604 0.477777 0.621186 -0.221725
C33   C     C_R   0.907893 0.480207 0.622407 0.114292
C34   C     C_R   0.953684 0.510053 0.501912 0.061944
H1    H     H_    0.777845 0.557163 0.289709 0.171856
H2    H     H_    0.537023 0.889928 0.282346 0.202212
H3    H     H_    0.388686 0.884545 0.709301 0.121701
H4    H     H_    0.392670 0.108531 0.714247 0.181122
H5    H     H_    0.493189 0.103555 0.830613 0.235155
H6    H     H_    0.625150 0.588921 0.130542 0.181177
H7    H     H_    0.310757 0.348206 0.876193 0.229101
H8    H     H_    0.421009 0.271437 0.875152 0.187763
H9    H     H_    0.780020 0.453379 0.712975 0.183405
H10   H     H_    0.424377 0.263632 0.118138 0.131247
H11   H     H_    0.920195 0.429656 0.834541 0.165889
H12   H     H_    0.083456 0.429696 0.833882 0.170307
H13   H     H_    0.221678 0.454051 0.711464 0.164706
H14   H     H_    0.220585 0.563300 0.290147 0.194718
H15   H     H_    0.080102 0.591980 0.169429 0.165291
H16   H     H_    0.916743 0.590141 0.169516 0.171653
H17   H     H_    0.537595 0.116607 0.283410 0.176632
N1    N     N_R   0.499390 0.499140 0.142800 -0.157445
N2    N     N_R   0.499390 0.499180 0.857150 -0.151880
O1    O     O_R   0.500010 0.316790 0.614690 -0.618063
O2    O     O_R   0.500000 0.316760 0.385350 -0.623620
O3    O     O_R   0.367850 0.499990 0.614680 -0.624811
O4    O     O_R   0.367840 0.499950 0.385340 -0.582956
O5    O     O_R   0.500000 0.683240 0.614650 -0.619884
O6    O     O_R   0.499990 0.683210 0.385310 -0.612747
O7    O     O_R   0.632160 0.500050 0.614660 -0.661530
O8    O     O_R   0.632150 0.500010 0.385320 -0.632054
Zn1   Zn    Zn3+2 0.500010 0.500020 0.653130 0.958110
Zn2   Zn    Zn3+2 0.499990 0.499980 0.346870 0.979810
Cl1   Cl    Cl    0.504171 0.857589 0.885719 -0.648351
C35   C     C_2   0.643804 0.618645 0.862404 0.489830
H18   H     H_    0.632817 0.667838 0.767951 0.143615
O9    O     O_2   0.717950 0.623985 0.914649 -0.621645
Cl2   Cl    Cl    0.272371 0.340900 0.145946 -0.622785

loop_
_geom_bond_atom_site_label_1
_geom_bond_atom_site_label_2
_ccdc_geom_bond_type
C20   Cl1   S    
C23   O5    A    
C11   C12   S    
C29   O7    A    
C24   N1    A    
C6    C7    A    
C1    C15   S    
C17   H2    S    
C18   C23   S    
C13   H14   S    
N2    Zn1   S    
C27   H7    S    
O6    Zn2   S    
C19   C20   S    
C21   H5    S    
C16   H17   S    
C7    C13   A    
C2    C30   A    
C32   C33   A    
C2    C34   A    
C17   C18   A    
C1    O2    A    
C3    H11   S    
C5    C10   A    
C29   C31   S    
C22   C28   S    
C4    C5    A    
C20   C21   S    
C23   O6    A    
C20   H3    S    
C11   C13   A    
C27   H8    S    
C26   C27   S    
C5    C6    A    
C30   H1    S    
C1    O1    A    
C12   O4    A    
C14   C19   A    
C14   C21   S    
O7    Zn1   S    
C28   Cl2   S    
C32   H9    S    
C33   C34   A    
O4    Zn2   S    
O3    Zn1   S    
C30   C31   A    
C29   O8    A    
C10   H13   S    
C16   C17   A    
C10   C11   A    
C3    C33   A    
C15   C16   A    
C26   N2    A    
C6    C34   A    
C7    C8    A    
C25   C35   S    
C24   C25   A    
C22   N1    A    
C35   H18   S    
C22   C26   A    
C27   C28   S    
O8    Zn2   S    
C12   O3    A    
C18   C19   A    
C4    H12   S    
O1    Zn1   S    
C24   H6    S    
C14   C15   A    
C2    C9    A    
C35   O9    D    
C8    H15   S    
C28   H10   S    
C31   C32   A    
C21   H4    S    
C3    C4    A    
O5    Zn1   S    
C25   N2    A    
C8    C9    A    
C9    H16   S    
N1    Zn2   S    
O2    Zn2   S    
