data_mof_unit_4758.cif
_audit_creation_date              2012-12-10T18:00:47-0500
_audit_creation_method            fapswitch 2.2
_symmetry_space_group_name_H-M    P1
_symmetry_Int_Tables_number       1
_space_group_crystal_system       triclinic
_cell_length_a                    15.84395
_cell_length_b                    10.81823
_cell_length_c                    9.616175
_cell_angle_alpha                 90.571743
_cell_angle_beta                  91.821474
_cell_angle_gamma                 91.990208
_cell_volume                      1646.31808254

loop_
_atom_site_label
_atom_site_type_symbol
_atom_type_description
_atom_site_fract_x
_atom_site_fract_y
_atom_site_fract_z
_atom_type_partial_charge
C1    C     C_R   0.500034 0.262368 0.499593 0.813693
C2    C     C_R   0.499999 0.737632 0.500407 0.812448
C3    C     C_R   0.503032 0.935017 0.374098 -0.157264
C4    C     C_R   0.497136 0.064984 0.625910 -0.148824
C5    C     C_R   0.500093 0.871641 0.500487 -0.017802
C6    C     C_R   0.500030 0.128360 0.499518 -0.021573
C7    C     C_R   0.436882 0.437130 0.065858 0.493852
C8    C     C_R   0.563045 0.563024 0.934106 0.439431
C9    C     C_R   0.438389 0.438510 0.918781 -0.133685
C10   C     C_R   0.561685 0.561323 0.081196 -0.168114
C11   C     C_R   0.339998 0.499879 0.498178 0.842285
C12   C     C_R   0.660001 0.500091 0.501823 0.838544
C13   C     C_3   0.970587 0.387396 0.528374 0.490026
C14   C     C_3   0.029398 0.612219 0.471667 0.420462
C15   C     C_3   0.023076 0.419697 0.400592 -0.199332
C16   C     C_3   0.976917 0.579913 0.599442 -0.224387
C17   C     C_1   0.250244 0.499613 0.494678 -0.051034
C18   C     C_1   0.749753 0.500239 0.505327 -0.053098
C19   C     C_3   0.031549 0.465074 0.625177 -0.246082
C20   C     C_3   0.968444 0.534533 0.374856 -0.293728
C21   C     C_3   0.083031 0.499308 0.496907 -0.008708
C22   C     C_3   0.916960 0.500318 0.503123 -0.021563
C23   C     C_1   0.174659 0.499376 0.494493 0.104018
C24   C     C_1   0.825335 0.500360 0.505518 0.100659
C25   C     C_R   0.502992 0.062843 0.373632 -0.111590
C26   C     C_R   0.497175 0.937160 0.626378 -0.115003
Cu1   Cu    Cu3+1 0.500000 0.500020 0.640660 1.042729
Cu2   Cu    Cu3+1 0.500000 0.499980 0.359340 1.041931
H1    H     H_    0.042717 0.353063 0.320299 0.208909
H2    H     H_    0.957278 0.646568 0.679714 0.212705
H3    H     H_    0.941908 0.564474 0.272905 0.197893
H4    H     H_    0.058085 0.435093 0.727113 0.203473
H5    H     H_    0.505391 0.110020 0.274928 0.177968
H6    H     H_    0.494793 0.889984 0.725087 0.171383
H7    H     H_    0.505468 0.886162 0.275504 0.161159
H8    H     H_    0.494721 0.113838 0.724504 0.170825
H9    H     H_    0.389347 0.391155 0.856132 0.216692
H10   H     H_    0.610833 0.608500 0.143797 0.205351
N1    N     N_R   0.500020 0.500030 0.852070 -0.250049
N2    N     N_R   0.499980 0.499970 0.147930 -0.248839
O1    O     O_R   0.500000 0.319660 0.618740 -0.596321
O2    O     O_R   0.500000 0.680340 0.381260 -0.599876
O3    O     O_R   0.499990 0.319630 0.381170 -0.546703
O4    O     O_R   0.500010 0.680370 0.618830 -0.548971
O5    O     O_R   0.379080 0.500000 0.618760 -0.601672
O6    O     O_R   0.620920 0.500000 0.381240 -0.600129
O7    O     O_R   0.379080 0.499970 0.381190 -0.494129
O8    O     O_R   0.620920 0.500030 0.618810 -0.495199
S1    S     S_3+6 0.930686 0.236118 0.566829 0.050665
O9    O     O_2   0.881397 0.241002 0.697615 -0.258511
O10   O     O_2   0.874080 0.188968 0.448175 -0.257958
O11   O     O_3   0.012050 0.141893 0.589360 -0.469422
H11   H     H_    0.985925 0.061580 0.616577 0.414687
S2    S     S_3+6 0.069284 0.763633 0.433355 0.057122
O12   O     O_2   0.126710 0.809776 0.551392 -0.230710
O13   O     O_2   0.118058 0.760142 0.301971 -0.243168
O14   O     O_3   0.988622 0.859473 0.413453 -0.466655
H12   H     H_    0.952054 0.821510 0.338036 0.354710
S3    S     S_3+6 0.344578 0.358984 0.128010 0.021497
O15   O     O_2   0.360791 0.282408 0.254315 -0.280237
O16   O     O_2   0.280105 0.453432 0.158702 -0.280403
O17   O     O_3   0.302764 0.262885 0.003279 -0.556174
H13   H     H_    0.247344 0.234301 0.038214 0.396988
S4    S     S_3+6 0.655050 0.642017 0.871863 0.036855
O18   O     O_2   0.720153 0.548343 0.842125 -0.234215
O19   O     O_2   0.639387 0.717621 0.744602 -0.288468
O20   O     O_3   0.696832 0.738866 0.995846 -0.518133
H14   H     H_    0.655557 0.805097 0.003997 0.338772

loop_
_geom_bond_atom_site_label_1
_geom_bond_atom_site_label_2
_ccdc_geom_bond_type
Cu1   O8    S    
C2    O4    A    
C1    O1    A    
C4    C26   A    
C7    N2    A    
C4    H8    S    
Cu2   O7    S    
C7    C9    A    
O17   H13   S    
C10   H10   S    
C8    N1    A    
Cu1   O1    S    
Cu2   O3    S    
C11   O7    A    
C3    H7    S    
C12   O8    A    
S1    O11   S    
S4    O18   D    
Cu1   O5    S    
C25   H5    S    
C21   C23   S    
C7    S3    S    
C3    C5    A    
S3    O15   D    
S4    O19   D    
C9    N1    A    
Cu2   O6    S    
O14   H12   S    
C17   C23   T    
C2    O2    A    
C16   C19   S    
C13   S1    S    
C19   H4    S    
C14   C21   S    
Cu2   O2    S    
C14   S2    S    
C20   C22   S    
C13   C22   S    
C15   H1    S    
C14   C16   S    
C13   C15   S    
C15   C20   S    
C20   H3    S    
C22   C24   S    
C11   O5    A    
C6    C25   A    
S3    O16   D    
C13   C19   S    
C16   H2    S    
O20   H14   S    
C8    S4    S    
S4    O20   S    
C14   C20   S    
C15   C21   S    
C3    C25   A    
O11   H11   S    
C18   C24   T    
C12   O6    A    
C4    C6    A    
S1    O10   D    
C12   C18   S    
Cu1   Cu2   S    
S1    O9    D    
Cu2   N2    S    
S2    O12   D    
C11   C17   S    
C10   N2    A    
C16   C22   S    
S3    O17   S    
C26   H6    S    
Cu1   O4    S    
C1    O3    A    
C8    C10   A    
C2    C5    S    
C9    H9    S    
C5    C26   A    
Cu1   N1    S    
S2    O13   D    
C19   C21   S    
S2    O14   S    
C1    C6    S    
