data_mof_unit_2087.cif
_audit_creation_date              2013-03-05T15:58:06-0500
_audit_creation_method            fapswitch 2.2
_symmetry_space_group_name_H-M    P1
_symmetry_Int_Tables_number       1
_space_group_crystal_system       triclinic
_cell_length_a                    15.162041
_cell_length_b                    13.794833
_cell_length_c                    10.911651
_cell_angle_alpha                 88.01893
_cell_angle_beta                  88.285188
_cell_angle_gamma                 91.156003
_cell_volume                      2279.35768763

loop_
_atom_site_label
_atom_site_type_symbol
_atom_site_description
_atom_site_fract_x
_atom_site_fract_y
_atom_site_fract_z
_atom_type_partial_charge
O1    O     O_R   0.370250 0.582280 0.500040 -0.586556
O2    O     O_R   0.370250 0.417720 0.500040 -0.605439
C1    C     C_R   0.328774 0.499009 0.501164 0.804783
O3    O     O_R   0.499970 0.582270 0.317700 -0.596184
O4    O     O_R   0.499970 0.417730 0.317700 -0.552117
C2    C     C_R   0.501484 0.501136 0.258824 0.862755
Cu1   Cu    Cu3+1 0.499990 0.597420 0.500010 0.929543
Cu2   Cu    Cu3+1 0.499990 0.402580 0.500010 0.948646
O5    O     O_R   0.629730 0.582260 0.499980 -0.598704
O6    O     O_R   0.629730 0.417740 0.499980 -0.556853
O7    O     O_R   0.500000 0.582270 0.682320 -0.593087
O8    O     O_R   0.500000 0.417730 0.682320 -0.601684
C3    C     C_R   0.671690 0.500855 0.504025 0.838511
C4    C     C_R   0.500559 0.498540 0.739177 0.803892
C5    C     C_3   0.427737 0.562060 0.063601 -0.032596
C6    C     C_3   0.486103 0.393281 0.072736 -0.070567
H1    H     H_    0.367507 0.515658 0.082803 0.143076
H2    H     H_    0.419162 0.372088 0.110865 0.160703
C7    C     C_3   0.438970 0.570136 0.923304 -0.406380
C8    C     C_3   0.478477 0.395746 0.931259 -0.443364
H3    H     H_    0.373424 0.556212 0.882820 0.144198
H4    H     H_    0.408724 0.379619 0.908101 0.159507
H5    H     H_    0.458702 0.644822 0.891565 0.220947
H6    H     H_    0.517228 0.337507 0.888627 0.209335
C9    C     C_3   0.603678 0.537653 0.061028 0.575318
C10   C     C_3   0.507514 0.501152 0.118875 -0.096060
C11   C     C_3   0.506999 0.497018 0.875058 0.017177
C12   C     C_3   0.604906 0.523587 0.913761 0.193126
C13   C     C_R   0.820764 0.578552 0.450467 0.078774
C14   C     C_R   0.769521 0.504241 0.512206 -0.065000
C15   C     C_R   0.811975 0.434078 0.584003 -0.298631
C16   C     C_R   0.904753 0.431835 0.586890 0.122487
C17   C     C_R   0.954487 0.509468 0.529228 -0.037251
C18   C     C_R   0.911595 0.588523 0.472641 0.097402
C19   C     C_R   0.949337 0.353988 0.644758 0.184328
C20   C     C_R   0.042122 0.352770 0.638573 -0.196207
C21   C     C_R   0.091180 0.427514 0.576701 0.077705
C22   C     C_R   0.047427 0.507016 0.524133 0.020518
C23   C     C_R   0.096442 0.582989 0.462564 0.071261
C24   C     C_R   0.053647 0.667335 0.425839 -0.211057
C25   C     C_R   0.962436 0.672531 0.434299 0.169233
C26   C     C_R   0.183543 0.424776 0.567767 -0.292355
C27   C     C_R   0.231941 0.498346 0.501807 -0.071948
C28   C     C_R   0.187714 0.574798 0.442362 0.135596
H7    H     H_    0.772313 0.379835 0.634600 0.159245
H8    H     H_    0.076333 0.292522 0.680703 0.143299
H9    H     H_    0.217887 0.365686 0.612338 0.148768
H10   H     H_    0.091333 0.731353 0.393905 0.162797
C29   C     C_R   0.429267 0.789877 0.551669 -0.015399
C30   C     C_R   0.421367 0.205047 0.515537 -0.044090
N1    N     N_R   0.499930 0.743810 0.499950 -0.189907
N2    N     N_R   0.499930 0.256190 0.499950 -0.196706
C31   C     C_R   0.564468 0.799336 0.439757 0.241276
C32   C     C_R   0.576539 0.204439 0.497369 0.349689
C33   C     C_R   0.572279 0.900193 0.460092 -0.005212
C34   C     C_R   0.574198 0.105058 0.468776 -0.035714
C35   C     C_R   0.496362 0.948503 0.499422 -0.026750
C36   C     C_R   0.495908 0.051380 0.497016 -0.037057
C37   C     C_R   0.422124 0.893385 0.543531 -0.037163
C38   C     C_R   0.417954 0.101141 0.523889 -0.032246
C39   C     C_R   0.651555 0.954311 0.434129 0.169469
C40   C     C_R   0.650836 0.056558 0.428969 0.156747
C41   C     C_R   0.339757 0.046100 0.557400 0.192879
C42   C     C_R   0.344312 0.942959 0.578958 0.182360
H11   H     H_    0.376137 0.745302 0.592208 0.155972
H12   H     H_    0.362106 0.245127 0.530490 0.159684
C43   C     C_3   0.395440 0.660848 0.112092 -0.765599
H13   H     H_    0.417685 0.725146 0.055136 0.269555
H14   H     H_    0.322504 0.663046 0.105273 0.193587
H15   H     H_    0.410001 0.675315 0.207507 0.258982
C44   C     C_3   0.541144 0.304397 0.114034 -0.721519
H16   H     H_    0.612258 0.312196 0.093450 0.263792
H17   H     H_    0.531390 0.282915 0.212022 0.260730
H18   H     H_    0.518234 0.239431 0.065518 0.195056
C45   C     C_3   0.235911 0.640911 0.347872 -0.876208
H19   H     H_    0.290834 0.601554 0.305047 0.234902
H20   H     H_    0.192984 0.660969 0.270686 0.224972
H21   H     H_    0.260932 0.707426 0.391011 0.242692
C46   C     C_3   0.923599 0.771537 0.418021 -0.883810
H22   H     H_    0.973441 0.830107 0.431452 0.231357
H23   H     H_    0.898436 0.782733 0.324375 0.248065
H24   H     H_    0.871512 0.779959 0.489753 0.244345
C47   C     C_3   0.596685 0.765897 0.318330 -0.664463
H25   H     H_    0.647964 0.813426 0.272157 0.231509
H26   H     H_    0.621085 0.692340 0.326865 0.271301
H27   H     H_    0.539532 0.766135 0.257690 0.252071
C48   C     C_3   0.651901 0.235195 0.575315 -0.802955
H28   H     H_    0.679022 0.172086 0.626731 0.199829
H29   H     H_    0.706252 0.268384 0.517285 0.242805
H30   H     H_    0.628689 0.284547 0.646969 0.240650
C49   C     C_3   0.739285 0.904739 0.431799 -0.899915
H31   H     H_    0.786644 0.943485 0.489553 0.248125
H32   H     H_    0.732180 0.830443 0.472761 0.234464
H33   H     H_    0.767181 0.902944 0.336748 0.244336
C50   C     C_3   0.729985 0.112509 0.372590 -0.840336
H34   H     H_    0.756926 0.074857 0.291805 0.243011
H35   H     H_    0.711622 0.185517 0.337200 0.247137
H36   H     H_    0.782355 0.119424 0.440897 0.232570
C51   C     C_3   0.252412 0.097460 0.566747 -0.902418
H37   H     H_    0.194583 0.047815 0.560380 0.246129
H38   H     H_    0.247867 0.136950 0.653580 0.227237
H39   H     H_    0.246215 0.149432 0.487667 0.224858
C52   C     C_3   0.268190 0.885672 0.641473 -0.889937
H40   H     H_    0.219951 0.931621 0.688994 0.246702
H41   H     H_    0.233946 0.841371 0.573592 0.229614
H42   H     H_    0.293159 0.837407 0.715611 0.222223
N3    N     N_R   0.620787 0.641616 0.085819 0.085531
O9    O     O_R   0.700165 0.671451 0.109638 -0.375245
O10   O     O_R   0.567494 0.708028 0.049250 -0.434157
N4    N     N_R   0.676764 0.482226 0.117421 0.076204
O11   O     O_R   0.757849 0.498110 0.077823 -0.349665
O12   O     O_R   0.666159 0.435257 0.222338 -0.416034
C53   C     C_3   0.643225 0.615766 0.840414 -0.677521
H43   H     H_    0.707036 0.639743 0.877836 0.264542
H44   H     H_    0.658324 0.600299 0.742921 0.208416
H45   H     H_    0.598163 0.677708 0.838980 0.250393
C54   C     C_3   0.667954 0.441737 0.870115 -0.799386
H46   H     H_    0.661804 0.373962 0.925604 0.232418
H47   H     H_    0.655179 0.422849 0.774460 0.193269
H48   H     H_    0.738475 0.465157 0.868347 0.270335
C55   C     C_3   0.785541 0.628825 0.338972 -0.681030
H49   H     H_    0.836176 0.632739 0.263120 0.264378
H50   H     H_    0.729583 0.587244 0.304017 0.280008
H51   H     H_    0.764612 0.702196 0.360836 0.213791
C56   C     C_3   0.899745 0.270582 0.710331 -0.876996
H52   H     H_    0.857332 0.232783 0.644991 0.230903
H53   H     H_    0.945131 0.216522 0.750108 0.233669
H54   H     H_    0.858132 0.298090 0.786547 0.242010

loop_
_geom_bond_atom_site_label_1
_geom_bond_atom_site_label_2
_geom_bond_distance
_ccdc_geom_bond_type
C42   C52   1.516822 S    
C48   H28   1.111869 S    
C7    H5    1.107976 S    
C50   H34   1.110110 S    
C27   C28   1.410662 A    
C46   H24   1.105817 S    
C50   H36   1.110133 S    
Cu1   Cu2   2.687784 S    
C2    C10   1.527059 S    
C9    C12   1.624846 S    
C5    C7    1.535195 S    
C18   C25   1.422456 A    
C1    C27   1.467844 S    
C37   C42   1.425658 A    
C21   C22   1.407310 A    
C29   H11   1.078230 S    
C38   C41   1.426339 A    
C20   C21   1.401093 A    
C7    H3    1.115405 S    
C12   C54   1.571314 S    
C54   H47   1.106207 S    
C32   C48   1.507509 S    
O7    C4    1.292390 A    
C35   C37   1.408713 A    
C36   C38   1.407162 A    
C24   H10   1.083639 S    
C21   C26   1.402254 A    
C19   C56   1.509011 S    
O5    C3    1.301858 A    
N4    O11   1.302673 A    
C55   H51   1.098716 S    
C41   C51   1.516912 S    
C8    H6    1.111574 S    
C29   N1    1.373432 A    
C13   C55   1.497251 S    
C56   H54   1.110753 S    
C30   N2    1.375222 A    
N3    O9    1.300600 A    
C20   H8    1.084614 S    
C4    C11   1.488262 S    
C7    C11   1.550678 S    
Cu2   N2    2.019430 S    
Cu2   O8    2.007428 S    
C53   H45   1.104742 S    
C40   C50   1.516562 S    
N3    O10   1.294346 A    
C6    C44   1.558370 S    
O3    Cu1   2.007432 S    
N2    C32   1.375693 A    
C31   C33   1.419594 A    
C6    C10   1.617183 S    
C22   C23   1.411401 A    
C32   C34   1.416453 A    
C43   H13   1.106357 S    
C16   C19   1.420166 A    
C3    C14   1.488559 S    
O3    C2    1.309877 A    
C54   H48   1.110145 S    
C23   C24   1.396138 A    
C44   H17   1.104431 S    
C5    C10   1.607005 S    
C9    C10   1.634367 S    
C13   C18   1.410212 A    
C41   C42   1.437461 A    
C53   H44   1.110279 S    
O1    C1    1.297900 A    
C19   C20   1.406887 A    
C28   C45   1.513885 S    
Cu1   O7    1.993058 S    
C45   H19   1.104119 S    
C13   C14   1.413191 A    
C49   H32   1.105800 S    
C45   H20   1.110617 S    
C51   H37   1.106952 S    
C14   C15   1.402776 A    
C6    C8    1.550768 S    
C5    C43   1.561459 S    
C51   H39   1.110057 S    
C17   C18   1.414064 A    
C52   H41   1.110495 S    
C30   H12   1.075713 S    
C55   H49   1.111106 S    
C9    N4    1.494567 S    
Cu2   O6    1.973999 S    
C24   C25   1.386717 A    
C47   H26   1.088967 S    
C8    H4    1.114557 S    
C33   C35   1.405135 A    
C56   H52   1.110558 S    
C34   C40   1.416966 A    
C47   H25   1.105144 S    
O4    Cu2   1.993063 S    
C26   C27   1.405101 A    
C49   H31   1.110543 S    
C9    N3    1.487708 S    
C46   H23   1.108308 S    
C53   H43   1.110090 S    
C43   H14   1.111537 S    
C5    H1    1.115027 S    
C51   H38   1.110199 S    
O1    Cu1   1.973974 S    
C15   C16   1.408936 A    
O2    Cu2   1.982356 S    
O8    C4    1.294374 A    
O6    C3    1.302705 A    
C25   C46   1.505182 S    
C44   H18   1.111463 S    
C50   H35   1.109869 S    
C23   C28   1.402227 A    
C8    C11   1.554133 S    
C17   C22   1.409722 A    
C29   C37   1.434047 A    
C31   C47   1.489823 S    
C43   H15   1.094929 S    
C30   C38   1.432910 A    
C16   C17   1.415568 A    
C48   H29   1.105971 S    
O2    C1    1.296932 A    
Cu1   N1    2.019422 S    
C44   H16   1.097157 S    
C54   H46   1.096981 S    
C49   H33   1.109574 S    
C35   C36   1.418672 A    
O4    C2    1.297700 A    
C33   C39   1.418147 A    
C34   C36   1.406828 A    
C52   H42   1.110091 S    
C26   H9    1.084894 S    
C39   C40   1.409931 A    
C45   H21   1.110821 S    
N4    O12   1.299906 A    
C55   H50   1.099636 S    
C12   C53   1.570680 S    
C46   H22   1.111553 S    
Cu1   O5    1.982393 S    
C47   H27   1.105915 S    
C6    H2    1.114926 S    
C15   H7    1.076923 S    
C48   H30   1.108449 S    
C52   H40   1.106495 S    
C56   H53   1.110974 S    
N1    C31   1.368261 A    
C39   C49   1.507810 S    
C11   C12   1.594540 S    
