data_mof_unit_3837.cif
_audit_creation_date              2012-12-11T16:23:55-0500
_audit_creation_method            fapswitch 2.2
_symmetry_space_group_name_H-M    P1
_symmetry_Int_Tables_number       1
_space_group_crystal_system       triclinic
_cell_length_a                    14.749702
_cell_length_b                    14.767871
_cell_length_c                    33.298494
_cell_angle_alpha                 96.054475
_cell_angle_beta                  96.14607
_cell_angle_gamma                 61.204709
_cell_volume                      6307.61749061

loop_
_atom_site_label
_atom_site_type_symbol
_atom_type_description
_atom_site_fract_x
_atom_site_fract_y
_atom_site_fract_z
_atom_type_partial_charge
C1    C     C_R   0.391045 0.699631 0.446134 0.541922
C2    C     C_R   0.334361 0.357139 0.307553 0.004988
C3    C     C_R   0.429822 0.287823 0.325281 -0.177790
C4    C     C_R   0.449275 0.292836 0.366869 -0.189326
C5    C     C_R   0.394336 0.256167 0.165263 -0.108490
C6    C     C_R   0.385094 0.236006 0.123628 -0.123874
C7    C     C_R   0.210294 0.380305 0.121025 -0.124434
C8    C     C_R   0.219749 0.400158 0.162703 -0.107758
C9    C     C_R   0.310552 0.336076 0.184896 0.038430
C10   C     C_1   0.315438 0.346726 0.228061 -0.017519
C11   C     C_1   0.321673 0.352510 0.264338 0.012719
C12   C     C_R   0.405919 0.386321 0.433949 0.571215
C13   C     C_R   0.291538 0.295537 0.101359 0.020217
C14   C     C_R   0.755752 0.373514 0.409981 0.021579
C15   C     C_R   0.789173 0.435094 0.393431 -0.124586
C16   C     C_R   0.817999 0.414603 0.353684 -0.110016
C17   C     C_R   0.814162 0.332042 0.329844 0.035163
C18   C     C_R   0.790040 0.264792 0.347569 -0.122823
C19   C     C_R   0.760976 0.285410 0.387360 -0.133516
C20   C     C_R   0.833852 0.312421 0.204602 0.346799
C21   C     C_R   0.825603 0.322515 0.286005 0.348886
C22   C     C_R   0.835067 0.390584 0.142135 -0.118096
C23   C     C_R   0.700600 0.410065 0.447476 0.545356
C24   C     C_R   0.865330 0.379244 0.102974 -0.128861
C25   C     C_R   0.909022 0.198093 0.099152 -0.130468
C26   C     C_R   0.878628 0.209486 0.138414 -0.119323
C27   C     C_R   0.846099 0.304690 0.160885 0.034568
C28   C     C_R   0.907244 0.281786 0.081892 0.022080
C29   C     C_R   0.371601 0.754514 0.409158 0.022775
C30   C     C_R   0.275891 0.789270 0.386768 -0.140204
C31   C     C_R   0.265768 0.816535 0.347114 -0.125792
C32   C     C_R   0.350826 0.810825 0.329432 0.035946
C33   C     C_R   0.443288 0.786114 0.353202 -0.118225
C34   C     C_R   0.393441 0.701144 0.561297 0.546437
C35   C     C_R   0.453662 0.758022 0.392743 -0.128757
C36   C     C_R   0.341903 0.829697 0.204496 0.348446
C37   C     C_R   0.345919 0.821727 0.285703 0.348099
C38   C     C_R   0.256184 0.834153 0.135531 -0.119822
C39   C     C_R   0.237019 0.864254 0.095959 -0.129336
C40   C     C_R   0.381127 0.901638 0.104965 -0.131192
C41   C     C_R   0.400451 0.871267 0.144585 -0.119676
C42   C     C_R   0.334985 0.842006 0.160781 0.035437
C43   C     C_R   0.296136 0.903035 0.080988 0.022058
C44   C     C_R   0.369163 0.369194 0.584303 0.025484
C45   C     C_R   0.407078 0.388893 0.548882 0.549423
C46   C     C_R   0.284993 0.450523 0.603747 -0.133190
C47   C     C_R   0.263219 0.439816 0.642069 -0.127749
C48   C     C_R   0.324804 0.347449 0.661433 0.039829
C49   C     C_R   0.402845 0.263019 0.640437 -0.117695
C50   C     C_R   0.425093 0.273934 0.602194 -0.130003
C51   C     C_R   0.310603 0.336599 0.785301 0.385360
C52   C     C_R   0.314790 0.342569 0.704505 0.331535
C53   C     C_R   0.211540 0.392711 0.847635 0.228279
C54   C     C_R   0.204068 0.377952 0.887676 -0.128396
C55   C     C_R   0.383519 0.245075 0.891338 -0.130962
C56   C     C_R   0.701083 0.413780 0.562748 0.544201
C57   C     C_R   0.392723 0.258122 0.851162 0.235499
C58   C     C_R   0.305797 0.331490 0.828901 0.048548
C59   C     C_R   0.287968 0.300250 0.908858 -0.069221
C60   C     C_R   0.753229 0.381314 0.603109 0.019473
C61   C     C_R   0.778000 0.448357 0.629473 -0.124159
C62   C     C_R   0.805820 0.428673 0.670315 -0.112823
C63   C     C_R   0.809666 0.341713 0.685212 0.040822
C64   C     C_R   0.791277 0.271350 0.658799 -0.103875
C65   C     C_R   0.763478 0.290786 0.617947 -0.123737
C66   C     C_R   0.890926 0.212322 0.822331 -0.103364
C67   C     C_R   0.373371 0.367603 0.391734 -0.007632
C68   C     C_R   0.918925 0.200167 0.863608 -0.123159
C69   C     C_R   0.866067 0.383433 0.874225 -0.132718
C70   C     C_R   0.837504 0.395460 0.832982 -0.125905
C71   C     C_R   0.853053 0.309361 0.806828 0.037801
C72   C     C_1   0.837349 0.319361 0.763892 -0.025735
C73   C     C_1   0.825546 0.328569 0.727948 -0.022546
C74   C     C_R   0.910269 0.284981 0.889737 0.019141
C75   C     C_R   0.376203 0.753308 0.602246 -0.024939
C76   C     C_R   0.283549 0.780855 0.620171 -0.106079
C77   C     C_R   0.275423 0.806043 0.661845 0.291266
C78   C     C_R   0.273889 0.434064 0.374300 0.288229
C79   C     C_R   0.358799 0.809096 0.685442 0.048646
C80   C     C_R   0.448725 0.788379 0.667356 -0.165380
C81   C     C_R   0.457637 0.760298 0.626005 -0.145449
C82   C     C_R   0.398571 0.884149 0.833142 -0.120678
C83   C     C_R   0.377583 0.912639 0.873785 -0.129359
C84   C     C_R   0.230292 0.879983 0.862976 -0.125944
C85   C     C_R   0.251641 0.851305 0.822375 -0.102953
C86   C     C_R   0.334071 0.855977 0.807231 0.038250
C87   C     C_1   0.347358 0.838931 0.764601 -0.012888
C88   C     C_1   0.354439 0.826018 0.728589 0.017535
C89   C     C_R   0.254739 0.430190 0.331759 0.305733
C90   C     C_R   0.291237 0.913911 0.888835 0.019939
C91   C     C_R   0.963466 0.264227 0.045534 0.547021
C92   C     C_R   0.272759 0.259642 0.059921 0.545651
C93   C     C_R   0.259091 0.959757 0.043809 0.546527
C94   C     C_R   0.962681 0.267562 0.930722 0.540883
C95   C     C_R   0.270813 0.263879 0.945315 0.550349
C96   C     C_R   0.256195 0.965127 0.928947 0.542129
Cr1   Cr    Cr6+3 0.576280 0.580550 0.506370 1.015584
Cr2   Cr    Cr6+3 0.346780 0.572400 0.496520 1.023562
Cr3   Cr    Cr6+3 0.576960 0.347070 0.497150 1.014381
Cr4   Cr    Cr6+3 0.087320 0.083240 0.984860 1.017505
Cr5   Cr    Cr6+3 0.087720 0.316210 0.996740 1.015277
Cr6   Cr    Cr6+3 0.317350 0.090340 0.995890 1.012752
H1    H     H_    0.449002 0.170361 0.109347 0.130073
H2    H     H_    0.861705 0.445477 0.090192 0.131136
H3    H     H_    0.838345 0.466592 0.341074 0.148596
H4    H     H_    0.787515 0.199873 0.330051 0.132809
H5    H     H_    0.808111 0.465543 0.158410 0.138092
H6    H     H_    0.940515 0.122105 0.083494 0.131744
H7    H     H_    0.886795 0.142188 0.151939 0.136900
H8    H     H_    0.210551 0.789745 0.399011 0.113258
H9    H     H_    0.528201 0.732548 0.409409 0.132530
H10   H     H_    0.171763 0.863206 0.078008 0.131126
H11   H     H_    0.465080 0.206574 0.182381 0.117353
H12   H     H_    0.192713 0.837567 0.329785 0.130574
H13   H     H_    0.428490 0.930516 0.094142 0.130012
H14   H     H_    0.462645 0.876863 0.163185 0.135574
H15   H     H_    0.239945 0.524760 0.590568 0.127841
H16   H     H_    0.489738 0.209674 0.587692 0.130933
H17   H     H_    0.129927 0.422484 0.900974 0.152825
H18   H     H_    0.201420 0.505600 0.657266 0.121049
H19   H     H_    0.450883 0.190370 0.654425 0.135757
H20   H     H_    0.490899 0.231390 0.306712 0.137128
H21   H     H_    0.449961 0.188165 0.908242 0.143810
H22   H     H_    0.902954 0.145262 0.802293 0.119707
H23   H     H_    0.794380 0.203639 0.670069 0.120318
H24   H     H_    0.744721 0.237717 0.598520 0.129727
H25   H     H_    0.770506 0.518870 0.619098 0.128722
H26   H     H_    0.858577 0.450135 0.893538 0.130851
H27   H     H_    0.526232 0.241166 0.379286 0.150867
H28   H     H_    0.820249 0.483438 0.690569 0.109193
H29   H     H_    0.425759 0.938846 0.892813 0.124771
H30   H     H_    0.462577 0.887928 0.821625 0.098505
H31   H     H_    0.513552 0.789891 0.685508 0.117761
H32   H     H_    0.219221 0.777369 0.602408 0.137452
H33   H     H_    0.201403 0.829407 0.802438 0.127745
H34   H     H_    0.163164 0.880421 0.873564 0.132384
H35   H     H_    0.154761 0.462442 0.177818 0.117040
H36   H     H_    0.137260 0.427533 0.104707 0.130326
H37   H     H_    0.787055 0.502876 0.410288 0.136314
N1    N     N_R   0.827726 0.396203 0.227754 -0.223190
N2    N     N_R   0.257021 0.430019 0.727347 -0.247796
N3    N     N_R   0.370126 0.252115 0.722830 -0.238837
N4    N     N_R   0.367550 0.249145 0.762403 -0.200550
N5    N     N_R   0.823360 0.401293 0.267608 -0.219968
N6    N     N_R   0.831439 0.238660 0.262885 -0.231394
N7    N     N_R   0.836232 0.233379 0.222955 -0.231167
N8    N     N_R   0.264613 0.825087 0.221394 -0.232805
N9    N     N_R   0.266740 0.820839 0.261169 -0.236995
N10   N     N_R   0.423496 0.825992 0.268830 -0.226943
N11   N     N_R   0.421184 0.830598 0.229017 -0.228342
N12   N     N_R   0.254648 0.427042 0.766982 -0.171577
O1    O     O_R   0.679450 0.499830 0.463150 -0.518127
O2    O     O_R   0.356040 0.477400 0.534170 -0.500810
O3    O     O_R   0.495910 0.323070 0.537100 -0.518362
O4    O     O_R   0.663920 0.359620 0.542290 -0.501020
O5    O     O_3   0.500010 0.500010 0.500010 -0.243662
O6    O     O_R   0.170070 0.978950 0.027680 -0.518643
O7    O     O_R   0.001760 0.175230 0.026640 -0.500577
O8    O     O_R   0.984760 0.333570 0.037150 -0.518795
O9    O     O_R   0.183410 0.309240 0.041890 -0.501106
O10   O     O_R   0.340240 0.172500 0.045430 -0.519032
O11   O     O_R   0.309670 0.000990 0.032050 -0.501480
O12   O     O_R   0.480650 0.664000 0.464630 -0.500808
O13   O     O_R   0.168330 0.982130 0.939200 -0.519098
O14   O     O_R   0.000140 0.178170 0.944610 -0.501153
O15   O     O_R   0.983010 0.336750 0.948660 -0.520485
O16   O     O_R   0.181800 0.312190 0.959860 -0.500334
O17   O     O_R   0.338500 0.175680 0.956950 -0.518828
O18   O     O_R   0.308050 0.003930 0.950020 -0.502943
O19   O     O_3   0.164130 0.163270 0.992500 -0.238388
O20   O     O_R   0.323930 0.675950 0.455370 -0.533032
O21   O     O_R   0.354700 0.475360 0.451930 -0.465356
O22   O     O_R   0.494470 0.320860 0.448390 -0.527168
O23   O     O_R   0.662580 0.357570 0.460050 -0.504163
O24   O     O_R   0.680900 0.502040 0.551870 -0.518323
O25   O     O_R   0.481990 0.666040 0.546870 -0.497839
O26   O     O_R   0.325370 0.678160 0.544080 -0.522656
H38   H     H_    0.736212 0.236130 0.399411 0.127030
H39   H     H_    0.509781 0.782339 0.340571 0.138092
H40   H     H_    0.205744 0.809831 0.146915 0.133547
O27   O     O_3   0.125273 0.465275 0.826573 -0.545640
C97   C     C_3   0.061197 0.420806 0.812086 -0.108487
H41   H     H_    0.032445 0.400287 0.837397 0.116543
H42   H     H_    0.102181 0.351429 0.791249 0.126845
H43   H     H_    0.992660 0.478427 0.794718 0.145221
O28   O     O_3   0.487381 0.202989 0.833829 -0.539457
C98   C     C_3   0.518003 0.096095 0.831245 -0.100651
H44   H     H_    0.453502 0.079876 0.819078 0.118290
H45   H     H_    0.549889 0.062442 0.861069 0.101930
H46   H     H_    0.580817 0.056248 0.810041 0.152293
H47   H     H_    0.953307 0.123218 0.874523 0.131306
H48   H     H_    0.807967 0.470973 0.821224 0.108519
H49   H     H_    0.530146 0.739076 0.613126 0.139048
O29   O     O_3   0.185427 0.829123 0.679528 -0.564266
C99   C     C_3   0.184072 0.735839 0.683983 -0.118955
H50   H     H_    0.254032 0.681786 0.702114 0.132288
H51   H     H_    0.176949 0.697615 0.654079 0.103793
H52   H     H_    0.115327 0.753892 0.700514 0.151599
O30   O     O_3   0.194759 0.497414 0.399303 -0.536933
C100  C     C_3   0.167440 0.602314 0.396299 -0.062892
H53   H     H_    0.232167 0.613813 0.387854 0.101489
H54   H     H_    0.144039 0.643798 0.426253 0.140447
H55   H     H_    0.099308 0.638611 0.374543 0.141959
O31   O     O_3   0.156460 0.493199 0.314842 -0.540135
C101  C     C_3   0.157044 0.573592 0.295398 -0.122388
H56   H     H_    0.211184 0.600987 0.310822 0.089659
H57   H     H_    0.078006 0.640873 0.295371 0.140087
H58   H     H_    0.175277 0.549456 0.263319 0.137457

loop_
_geom_bond_atom_site_label_1
_geom_bond_atom_site_label_2
_ccdc_geom_bond_type
C92   O10   A    
Cr6   O19   S    
C66   C68   A    
C23   O1    A    
C40   C41   A    
Cr1   O24   S    
C55   C59   A    
C33   H39   S    
C41   C42   A    
C74   C94   S    
C36   C42   S    
N8    N9    A    
C96   O18   A    
C87   C88   T    
C95   O17   A    
C94   O15   A    
C60   C61   A    
N6    N7    A    
C70   H48   S    
C7    C8    A    
C12   O21   A    
C23   O23   A    
C85   C86   A    
C25   C28   A    
C83   H29   S    
C26   C27   A    
C29   C30   A    
C59   C95   S    
C30   H8    S    
C5    C6    A    
C38   C42   A    
C100  H55   S    
C30   C31   A    
C40   H13   S    
C68   C74   A    
C15   C16   A    
Cr3   O3    S    
C18   C19   A    
Cr1   O5    S    
Cr5   O16   S    
Cr4   O7    S    
C62   H28   S    
C97   H41   S    
C98   H46   S    
C32   C37   S    
C43   C93   S    
Cr4   O6    S    
C40   C43   A    
C66   C71   A    
Cr5   O9    S    
C100  H53   S    
C91   O7    A    
Cr3   O4    S    
Cr5   O15   S    
C70   C71   A    
C9    C10   S    
C31   H12   S    
C91   O8    A    
C3    H20   S    
C34   C75   S    
C72   C73   T    
C99   H52   S    
Cr2   O21   S    
Cr6   O18   S    
C101  H57   S    
O29   C99   S    
Cr2   O2    S    
C51   N12   A    
O30   C100  S    
C14   C15   A    
Cr1   O25   S    
C54   H17   S    
C69   C70   A    
C67   C78   A    
C84   C90   A    
C56   O4    A    
C2    C11   S    
C94   O14   A    
C79   C88   S    
C53   C54   A    
C44   C46   A    
C20   N7    A    
C15   H37   S    
C54   C59   A    
C77   C79   A    
C78   C89   A    
C12   C67   S    
Cr2   O5    S    
C38   H40   S    
C56   O24   A    
Cr4   O19   S    
C24   C28   A    
Cr5   O19   S    
C84   C85   A    
C69   H26   S    
C61   H25   S    
C76   H32   S    
C86   C87   S    
C16   C17   A    
C65   H24   S    
C39   C43   A    
C99   H50   S    
C63   C73   S    
C68   H47   S    
Cr1   O12   S    
C25   C26   A    
O27   C97   S    
C1    O20   A    
C52   N3    A    
C80   H31   S    
C96   O13   A    
C46   H15   S    
Cr4   O14   S    
C24   H2    S    
C97   H43   S    
C21   N6    A    
C14   C23   S    
C2    C89   A    
C75   C76   A    
C18   H4    S    
C5    C9    A    
C62   C63   A    
C53   O27   S    
C4    C67   A    
C36   N8    A    
C47   C48   A    
Cr3   O22   S    
C7    C13   A    
Cr6   O11   S    
C49   H19   S    
Cr3   O5    S    
C1    C29   S    
C17   C18   A    
C8    C9    A    
C69   C74   A    
Cr4   O13   S    
C51   C58   S    
C6    H1    S    
C76   C77   A    
Cr2   O26   S    
C93   O6    A    
C19   H38   S    
Cr5   O8    S    
C57   O28   S    
C16   H3    S    
C85   H33   S    
Cr2   O20   S    
C39   H10   S    
C60   C65   A    
C49   C50   A    
C22   C27   A    
C55   C57   A    
C13   C92   S    
C66   H22   S    
C22   C24   A    
C45   O2    A    
C78   O30   S    
C41   H14   S    
C82   H30   S    
C3    C4    A    
C55   H21   S    
C35   H9    S    
C44   C45   S    
N2    N12   A    
C101  H58   S    
C44   C50   A    
C83   C90   A    
C101  H56   S    
C46   C47   A    
C84   H34   S    
Cr6   O17   S    
C5    H11   S    
C50   H16   S    
C14   C19   A    
C31   C32   A    
C75   C81   A    
N1    N5    A    
C21   N5    A    
C37   N10   A    
C80   C81   A    
C95   O16   A    
C7    H36   S    
C53   C58   A    
C90   C96   S    
C4    H27   S    
C20   C27   S    
C51   N4    A    
C29   C35   A    
C52   N2    A    
C92   O9    A    
C32   C33   A    
C20   N1    A    
C2    C3    A    
C98   H44   S    
C77   O29   S    
C82   C86   A    
N10   N11   A    
C64   C65   A    
C6    C13   A    
C36   N11   A    
C57   C58   A    
C38   C39   A    
Cr3   O23   S    
C93   O11   A    
Cr6   O10   S    
C48   C49   A    
C63   C64   A    
C33   C35   A    
Cr1   O1    S    
C28   C91   S    
C26   H7    S    
C37   N9    A    
C61   C62   A    
C97   H42   S    
C98   H45   S    
C34   O25   A    
C10   C11   T    
C81   H49   S    
C79   C80   A    
C56   C60   S    
C48   C52   S    
C89   O31   S    
C71   C72   S    
O31   C101  S    
C1    O12   A    
C100  H54   S    
C64   H23   S    
C47   H18   S    
N3    N4    A    
C8    H35   S    
C34   O26   A    
C45   O3    A    
C82   C83   A    
O28   C98   S    
C22   H5    S    
C25   H6    S    
C12   O22   A    
C99   H51   S    
C17   C21   S    
