data_mof_unit_3674.cif
_audit_creation_date              2012-12-10T16:52:05-0500
_audit_creation_method            fapswitch 2.2
_symmetry_space_group_name_H-M    P1
_symmetry_Int_Tables_number       1
_space_group_crystal_system       triclinic
_cell_length_a                    7.858849
_cell_length_b                    8.537823
_cell_length_c                    14.888558
_cell_angle_alpha                 92.040061
_cell_angle_beta                  85.231943
_cell_angle_gamma                 93.69762
_cell_volume                      992.995588716

loop_
_atom_site_label
_atom_site_type_symbol
_atom_type_description
_atom_site_fract_x
_atom_site_fract_y
_atom_site_fract_z
_atom_type_partial_charge
C1    C     C_R   0.545413 0.794303 0.497536 0.968050
C2    C     C_R   0.454587 0.205697 0.502464 0.968051
C3    C     C_R   0.612808 0.774745 0.956241 -0.202703
C4    C     C_R   0.387192 0.225255 0.043759 -0.202703
C5    C     C_2   0.569168 0.958074 0.496240 -0.299909
C6    C     C_2   0.430832 0.041926 0.503759 -0.299909
C7    C     C_R   0.501236 0.501781 0.672440 0.926161
C8    C     C_R   0.498764 0.498219 0.327560 0.926161
C9    C     C_R   0.446458 0.357108 0.186286 0.223882
C10   C     C_R   0.553542 0.642892 0.813713 0.223882
C11   C     C_R   0.496935 0.495309 0.232374 -0.096871
C12   C     C_R   0.503065 0.504691 0.767626 -0.096871
C13   C     C_R   0.552387 0.632017 0.188497 -0.271256
C14   C     C_R   0.447613 0.367983 0.811503 -0.271256
C15   C     C_R   0.556355 0.635900 0.095256 0.087367
C16   C     C_R   0.443645 0.364100 0.904744 0.087367
C17   C     C_R   0.499884 0.498842 0.046957 0.021908
C18   C     C_R   0.500116 0.501158 0.953042 0.021908
C19   C     C_R   0.444349 0.359087 0.092584 0.053041
C20   C     C_R   0.555651 0.640913 0.907416 0.053041
C21   C     C_R   0.615056 0.772992 0.049262 -0.025220
C22   C     C_R   0.384943 0.227008 0.950738 -0.025220
H1    H     H_    0.592313 0.734927 0.228133 0.168141
H2    H     H_    0.407687 0.265073 0.771867 0.168141
H3    H     H_    0.658498 0.881568 0.922666 0.198725
H4    H     H_    0.341502 0.118432 0.077333 0.198725
H5    H     H_    0.699914 0.009013 0.489218 0.209592
H6    H     H_    0.300086 0.990987 0.510782 0.209592
N1    N     N_2   0.950330 0.457950 0.475660 0.072732
N2    N     N_2   0.049670 0.542050 0.524340 0.072732
O1    O     O_R   0.389250 0.738570 0.505970 -0.606704
O2    O     O_R   0.610750 0.261430 0.494030 -0.606704
O3    O     O_R   0.678390 0.711620 0.490370 -0.593012
O4    O     O_R   0.321610 0.288380 0.509630 -0.593012
O5    O     O_R   0.355420 0.513510 0.639950 -0.598492
O6    O     O_R   0.644580 0.486490 0.360050 -0.598492
O7    O     O_R   0.644560 0.486560 0.624350 -0.583929
O8    O     O_R   0.355440 0.513440 0.375650 -0.583929
Zn1   Zn    Zn3+2 0.306940 0.517990 0.510420 1.090174
Zn2   Zn    Zn3+2 0.693060 0.482010 0.489580 1.090174
Br1   Br    Br    0.390047 0.166813 0.252503 -0.495339
Br2   Br    Br    0.609953 0.833187 0.747497 -0.495339
C23   C     C_1   0.682924 0.912817 0.095024 0.198247
N3    N     N_1   0.738207 0.024581 0.131264 -0.133383
C24   C     C_1   0.317076 0.087183 0.904976 0.198247
N4    N     N_1   0.261793 0.975419 0.868736 -0.133383
Br3   Br    Br    0.037156 0.302392 0.395977 -0.311203
Br4   Br    Br    0.962844 0.697608 0.604023 -0.311203

loop_
_geom_bond_atom_site_label_1
_geom_bond_atom_site_label_2
_ccdc_geom_bond_type
O5    Zn1   S    
C23   N3    T    
N1    N2    D    
C10   Br2   S    
C11   C13   A    
C9    Br1   S    
C13   C15   A    
C1    O1    A    
C2    O4    A    
O2    Zn2   S    
C17   C18   A    
C7    O7    A    
C1    O3    A    
C3    C20   A    
C16   C18   A    
C5    H5    S    
C24   N4    T    
C9    C11   A    
C2    C6    S    
C10   C12   A    
N1    Br3   S    
C8    C11   S    
C1    C5    S    
N1    Zn2   S    
N2    Br4   S    
C17   C19   A    
O1    Zn1   S    
N2    Zn1   S    
O7    Zn2   S    
C18   C20   A    
C8    O8    A    
C5    C6    D    
C14   C16   A    
C7    C12   S    
C3    C21   A    
O3    Zn2   S    
C4    H4    S    
O4    Zn1   S    
C12   C14   A    
C15   C21   A    
C3    H3    S    
C4    C22   A    
C13   H1    S    
C2    O2    A    
C22   C24   S    
C8    O6    A    
C14   H2    S    
C15   C17   A    
O6    Zn2   S    
C16   C22   A    
C21   C23   S    
C4    C19   A    
C7    O5    A    
C9    C19   A    
C6    H6    S    
C10   C20   A    
O8    Zn1   S    
