data_mof_unit_2020.cif
_audit_creation_date              2012-12-10T18:58:14-0500
_audit_creation_method            fapswitch 2.2
_symmetry_space_group_name_H-M    P1
_symmetry_Int_Tables_number       1
_space_group_crystal_system       triclinic
_cell_length_a                    10.637321
_cell_length_b                    9.857217
_cell_length_c                    15.831488
_cell_angle_alpha                 89.985353
_cell_angle_beta                  90.034987
_cell_angle_gamma                 90.446649
_cell_volume                      1659.95008042

loop_
_atom_site_label
_atom_site_type_symbol
_atom_type_description
_atom_site_fract_x
_atom_site_fract_y
_atom_site_fract_z
_atom_type_partial_charge
C1    C     C_R   0.872027 0.502582 0.499717 -0.199081
C2    C     C_R   0.536070 0.381887 0.956001 0.137530
C3    C     C_R   0.500472 0.500008 0.912954 -0.066779
C4    C     C_R   0.499526 0.499991 0.087046 -0.066779
C5    C     C_1   0.500727 0.499964 0.823869 0.093566
C6    C     C_1   0.499272 0.500036 0.176131 0.093566
C7    C     C_1   0.499260 0.500041 0.251018 -0.119343
C8    C     C_1   0.500740 0.499959 0.748982 -0.119343
C9    C     C_R   0.576161 0.072499 0.553743 -0.032207
C10   C     C_R   0.423838 0.927501 0.446257 -0.032206
C11   C     C_R   0.423830 0.071288 0.446261 -0.038017
C12   C     C_R   0.127973 0.497418 0.500283 -0.199080
C13   C     C_R   0.576170 0.928712 0.553739 -0.038017
C14   C     C_R   0.065224 0.473481 0.423394 -0.041899
C15   C     C_R   0.934776 0.526520 0.576606 -0.041899
C16   C     C_R   0.934168 0.473522 0.423472 -0.048972
C17   C     C_R   0.065832 0.526478 0.576528 -0.048973
C18   C     C_2   0.138426 0.457117 0.343580 0.492346
C19   C     C_2   0.861573 0.542889 0.656419 0.492341
C20   C     C_2   0.860209 0.439492 0.346021 0.549225
C21   C     C_2   0.139791 0.560505 0.653980 0.549232
C22   C     C_R   0.260610 0.499397 0.499935 0.813509
C23   C     C_R   0.739390 0.500603 0.500065 0.813506
C24   C     C_R   0.499469 0.500015 0.339361 0.865667
C25   C     C_R   0.500531 0.499984 0.660639 0.865665
C26   C     C_R   0.464392 0.618114 0.955765 0.135413
C27   C     C_R   0.535606 0.381886 0.044235 0.135413
C28   C     C_R   0.463928 0.618113 0.043999 0.137531
H1    H     H_    0.637102 0.127360 0.596747 0.151358
H2    H     H_    0.362897 0.872640 0.403253 0.151359
H3    H     H_    0.362868 0.125188 0.403280 0.141250
H4    H     H_    0.637131 0.874812 0.596720 0.141249
H5    H     H_    0.226391 0.402256 0.343746 0.046248
H6    H     H_    0.773607 0.597745 0.656252 0.046250
H7    H     H_    0.772253 0.490540 0.333392 0.024629
H8    H     H_    0.227745 0.509452 0.666610 0.024627
I1    I     I_    0.409949 0.794970 0.113421 -0.178708
I2    I     I_    0.590049 0.205030 0.886579 -0.178712
I3    I     I_    0.410980 0.794908 0.885975 -0.158695
I4    I     I_    0.589017 0.205091 0.114025 -0.158699
N1    N     N_R   0.500000 0.857200 0.500000 -0.090907
N2    N     N_R   0.500000 0.142800 0.500000 -0.090907
O1    O     O_R   0.316770 0.614620 0.499990 -0.604671
O2    O     O_2   0.896036 0.490090 0.722170 -0.509529
O3    O     O_2   0.894011 0.350272 0.297805 -0.506163
O4    O     O_2   0.105994 0.649730 0.702194 -0.506158
O5    O     O_R   0.683230 0.385380 0.500010 -0.604672
O6    O     O_R   0.683230 0.614620 0.500010 -0.621940
O7    O     O_R   0.316770 0.385380 0.499990 -0.621941
O8    O     O_R   0.499980 0.614630 0.378020 -0.603366
O9    O     O_R   0.500020 0.385370 0.621980 -0.603366
O10   O     O_R   0.500020 0.614630 0.621980 -0.611643
O11   O     O_R   0.499980 0.385370 0.378020 -0.611644
O12   O     O_2   0.103966 0.509926 0.277831 -0.509527
Zn1   Zn    Zn3+2 0.500000 0.653120 0.500000 0.981183
Zn2   Zn    Zn3+2 0.500000 0.346880 0.500000 0.981181

loop_
_geom_bond_atom_site_label_1
_geom_bond_atom_site_label_2
_ccdc_geom_bond_type
C12   C17   A    
O6    Zn1   S    
C25   O9    A    
C6    C7    T    
C1    C15   A    
C5    C8    T    
O7    Zn2   S    
C2    I2    S    
C13   H4    S    
C26   C28   A    
C22   O1    A    
O10   Zn1   S    
C9    H1    S    
C27   I4    S    
C16   C20   S    
O8    Zn1   S    
C13   N1    A    
C2    C3    A    
C25   O10   A    
C11   H3    S    
C21   H8    S    
C10   N1    A    
C15   C19   S    
C8    C25   S    
C9    N2    A    
C2    C27   A    
C28   I1    S    
C22   O7    A    
O1    Zn1   S    
C4    C28   A    
C12   C14   A    
C1    C23   S    
C24   O8    A    
C18   H5    S    
C14   C16   A    
C26   I3    S    
C23   O5    A    
C10   C11   A    
C18   O12   D    
C7    C24   S    
C12   C22   S    
C4    C27   A    
C19   O2    D    
C11   N2    A    
C4    C6    S    
C21   O4    D    
C1    C16   A    
O11   Zn2   S    
C10   H2    S    
C15   C17   A    
C14   C18   S    
N1    Zn1   S    
C9    C13   A    
C23   O6    A    
N2    Zn2   S    
C24   O11   A    
C20   H7    S    
C3    C26   A    
C17   C21   S    
C20   O3    D    
O5    Zn2   S    
C3    C5    S    
C19   H6    S    
O9    Zn2   S    
