data_mof_unit_4209.cif
_audit_creation_date              2012-12-11T16:22:49-0500
_audit_creation_method            fapswitch 2.2
_symmetry_space_group_name_H-M    P1
_symmetry_Int_Tables_number       1
_space_group_crystal_system       triclinic
_cell_length_a                    16.894984
_cell_length_b                    16.89178
_cell_length_c                    19.345772
_cell_angle_alpha                 117.823134
_cell_angle_beta                  62.425491
_cell_angle_gamma                 100.510466
_cell_volume                      4324.12818543

loop_
_atom_site_label
_atom_site_type_symbol
_atom_type_description
_atom_site_fract_x
_atom_site_fract_y
_atom_site_fract_z
_atom_type_partial_charge
C1    C     C_R   0.055283 0.751437 0.994626 -0.154254
C2    C     C_R   0.251058 0.524459 0.826708 -0.139710
C3    C     C_R   0.184159 0.489328 0.087027 -0.123277
C4    C     C_R   0.763539 0.422972 0.166266 -0.258903
C5    C     C_R   0.993528 0.339251 0.757371 -0.147726
C6    C     C_R   0.258384 0.538823 0.063944 0.059424
C7    C     C_R   0.949677 0.261378 0.754446 0.097898
C8    C     C_R   0.257270 0.466886 0.744153 0.041763
C9    C     C_R   0.014211 0.226714 0.019187 0.027251
C10   C     C_R   0.862767 0.919585 0.490596 -0.161176
C11   C     C_R   0.891405 0.839877 0.415585 -0.169851
C12   C     C_R   0.765784 0.445891 0.244090 -0.127564
C13   C     C_R   0.920683 0.839258 0.334648 0.138613
C14   C     C_R   0.910888 0.917610 0.330761 -0.170311
C15   C     C_R   0.881277 0.997675 0.406396 -0.057669
C16   C     C_R   0.805500 0.563806 0.964977 -0.130642
C17   C     C_R   0.863217 0.999947 0.485820 0.141894
C18   C     C_R   0.944271 0.135447 0.538307 0.768489
C19   C     C_R   0.968137 0.195193 0.603889 -0.327778
C20   C     C_R   0.918092 0.203813 0.688577 0.044240
C21   C     C_R   0.839205 0.157474 0.708733 -0.106471
C22   C     C_R   0.814379 0.098137 0.643245 -0.250624
C23   C     C_R   0.724038 0.551861 0.025444 0.052804
C24   C     C_R   0.869050 0.083450 0.556893 -0.109206
C25   C     C_R   0.598035 0.313630 0.355577 -0.188306
C26   C     C_R   0.660291 0.336277 0.289737 -0.161926
C27   C     C_R   0.708279 0.414318 0.309884 0.182531
C28   C     C_R   0.956079 0.672200 0.248832 -0.125064
C29   C     C_R   0.698321 0.465321 0.395192 -0.099877
C30   C     C_R   0.636601 0.442688 0.460624 -0.194670
C31   C     C_R   0.582975 0.369133 0.442055 0.117984
C32   C     C_R   0.497994 0.388617 0.594329 -0.175429
C33   C     C_R   0.418044 0.417773 0.669541 -0.158779
C34   C     C_R   0.965368 0.758090 0.255345 0.019963
C35   C     C_R   0.338869 0.423215 0.664884 0.138806
C36   C     C_R   0.339173 0.390364 0.583433 -0.159724
C37   C     C_R   0.418907 0.361566 0.508517 -0.156960
C38   C     C_R   0.499590 0.365495 0.513941 0.114523
C39   C     C_R   0.637374 0.595758 0.061116 0.128844
C40   C     C_R   0.738832 0.485092 0.041334 -0.117940
C41   C     C_R   0.325846 0.565872 0.097695 0.127949
C42   C     C_R   0.404532 0.537841 0.162159 -0.213282
C43   C     C_R   0.329499 0.528138 0.147366 -0.163718
C44   C     C_R   0.392899 0.622760 0.072653 -0.270298
C45   C     C_R   0.250308 0.567907 0.011357 -0.137471
C46   C     C_R   0.470332 0.628181 0.082478 0.185375
C47   C     C_R   0.477567 0.582098 0.124289 0.183697
C48   C     C_R   0.560665 0.570561 0.117277 -0.270806
C49   C     C_R   0.628405 0.651705 0.029362 -0.170051
C50   C     C_R   0.544519 0.669263 0.041475 -0.217417
C51   C     C_R   0.021381 0.021765 0.783150 -0.034594
C52   C     C_R   0.023169 0.751430 0.173008 -0.109877
C53   C     C_R   0.039032 0.826741 0.912005 -0.071886
C54   C     C_R   0.143894 0.885582 0.810260 0.690279
C55   C     C_R   0.127319 0.830388 0.851312 -0.101136
C56   C     C_R   0.925965 0.260899 0.833123 -0.129135
C57   C     C_R   0.967782 0.878407 0.930479 0.089853
C58   C     C_R   0.984928 0.927911 0.882520 -0.019740
C59   C     C_R   0.073748 0.931960 0.823310 -0.081393
C60   C     C_R   0.091128 0.980599 0.775582 -0.230798
C61   C     C_R   0.933800 0.016427 0.839306 0.724689
C62   C     C_R   0.915497 0.971516 0.889695 -0.346965
C63   C     C_R   0.842723 0.491856 0.241208 0.667931
C64   C     C_R   0.977230 0.681682 0.918384 -0.177348
C65   C     C_R   0.018569 0.760587 0.947449 0.109474
C66   C     C_3   0.204825 0.772181 0.824359 -0.320604
C67   C     C_R   0.171015 0.456024 0.750793 -0.126954
C68   C     C_3   0.264653 0.826352 0.869437 -0.213443
C69   C     C_3   0.333474 0.765478 0.854085 -0.949113
C70   C     C_3   0.874386 0.881476 0.001685 -0.405485
C71   C     C_3   0.853920 0.971959 0.082373 -0.244649
C72   C     C_3   0.759690 0.976823 0.152623 -0.908831
C73   C     C_R   0.043908 0.310431 0.060506 -0.069510
C74   C     C_R   0.964238 0.242067 0.985641 -0.122833
F1    F     F_    0.000683 0.121609 0.455592 -0.713841
F2    F     F_    0.866047 0.055005 0.844985 -0.736817
F3    F     F_    0.228658 0.889604 0.752834 -0.718091
F4    F     F_    0.884470 0.501451 0.289857 -0.736555
H1    H     H_    0.104088 0.793913 0.014678 0.106379
H2    H     H_    0.897271 0.780522 0.420991 0.127531
H3    H     H_    0.929948 0.918010 0.269247 0.115427
H4    H     H_    0.720300 0.375438 0.140937 0.136763
H5    H     H_    0.879999 0.058930 0.401870 0.146610
H6    H     H_    0.029160 0.230631 0.587086 0.157679
H7    H     H_    0.798084 0.165131 0.774273 0.148156
H8    H     H_    0.756169 0.058796 0.658816 0.157828
H9    H     H_    0.557654 0.256235 0.339881 0.123808
H10   H     H_    0.668485 0.294509 0.223954 0.121192
H11   H     H_    0.733757 0.526312 0.412719 0.156795
H12   H     H_    0.879670 0.217283 0.858425 0.158975
H13   H     H_    0.625226 0.487821 0.526842 0.125125
H14   H     H_    0.559508 0.390867 0.599666 0.122122
H15   H     H_    0.818833 0.609913 0.937230 0.093882
H16   H     H_    0.419177 0.439675 0.731303 0.116070
H17   H     H_    0.279272 0.392922 0.577408 0.113913
H18   H     H_    0.418204 0.344998 0.447554 0.120586
H19   H     H_    0.565695 0.532111 0.146852 0.119591
H20   H     H_    0.686041 0.676154 0.989519 0.116003
H21   H     H_    0.408828 0.503319 0.195599 0.131876
H22   H     H_    0.539360 0.706747 0.010928 0.129989
H23   H     H_    0.150862 0.414399 0.699728 0.098609
H24   H     H_    0.277637 0.486256 0.170026 0.122298
H25   H     H_    0.390148 0.655483 0.037304 0.118549
H26   H     H_    0.158441 0.985321 0.730640 0.209173
H27   H     H_    0.914335 0.652172 0.299639 0.152252
H28   H     H_    0.846275 0.970280 0.932495 0.171047
H29   H     H_    0.691204 0.457222 0.083985 0.100732
H30   H     H_    0.045268 0.805661 0.154533 0.100769
H31   H     H_    0.955678 0.659954 0.867822 0.108549
H32   H     H_    0.288238 0.618122 0.991020 0.090281
H33   H     H_    0.299375 0.718606 0.883512 0.255797
H34   H     H_    0.080727 0.325190 0.098011 0.106079
H35   H     H_    0.375005 0.726473 0.783454 0.273310
H36   H     H_    0.377826 0.806727 0.884691 0.256714
H37   H     H_    0.300225 0.876068 0.844065 0.241052
H38   H     H_    0.223512 0.863599 0.940404 0.183101
H39   H     H_    0.181573 0.712661 0.837308 0.188289
H40   H     H_    0.245329 0.744113 0.752836 0.215955
H41   H     H_    0.709485 0.969331 0.128223 0.263019
H42   H     H_    0.752178 0.923165 0.172864 0.263023
H43   H     H_    0.746972 0.042771 0.210089 0.255045
H44   H     H_    0.902760 0.980937 0.108766 0.200634
H45   H     H_    0.926037 0.193651 0.954202 0.134531
H46   H     H_    0.860235 0.028097 0.065652 0.205949
H47   H     H_    0.823365 0.867313 0.976867 0.181155
H48   H     H_    0.866397 0.828776 0.022905 0.194443
H49   H     H_    0.305230 0.547168 0.845413 0.099250
H50   H     H_    0.161564 0.467118 0.137036 0.103719
H51   H     H_    0.007108 0.368788 0.714172 0.099055
H52   H     H_    0.849616 0.919407 0.550904 0.139065
N1    N     N_R   0.034930 0.670790 0.995440 -0.041720
N2    N     N_R   0.867000 0.509260 0.948460 -0.040012
N3    N     N_R   0.003780 0.616410 0.165900 -0.037370
N4    N     N_R   0.825670 0.461520 0.995440 -0.039603
N5    N     N_R   0.045120 0.664150 0.118920 -0.043728
N6    N     N_R   0.884940 0.497570 0.165910 -0.099744
N7    N     N_R   0.985840 0.628110 0.948460 -0.038264
N8    N     N_R   0.174330 0.538480 0.004560 -0.041411
N9    N     N_R   0.954880 0.335850 0.881080 -0.044369
N10   N     N_R   0.115060 0.502430 0.834090 -0.039940
N11   N     N_R   0.014160 0.371890 0.051540 -0.045670
N12   N     N_R   0.965070 0.329210 0.004560 -0.044872
N13   N     N_R   0.164150 0.545120 0.881070 -0.041464
N14   N     N_R   0.133000 0.490740 0.051540 -0.040433
N15   N     N_R   0.996220 0.383590 0.834100 -0.039591
N16   N     N_R   0.835850 0.454880 0.118930 -0.066743
Ni1   Ni    Ni4+2 0.103690 0.603690 0.000000 0.206362
Ni2   Ni    Ni4+2 0.896310 0.396310 0.000000 0.214361
Ni3   Ni    Ni4+2 0.991110 0.505800 0.892250 0.209869
Ni4   Ni    Ni4+2 0.008890 0.494200 0.107750 0.268803

loop_
_geom_bond_atom_site_label_1
_geom_bond_atom_site_label_2
_ccdc_geom_bond_type
C25   C31   A    
C66   C68   S    
C58   C62   A    
C18   F1    S    
C2    N13   A    
C6    C45   A    
C72   H43   S    
C27   C29   A    
C69   H33   S    
C71   H44   S    
C35   C36   A    
C51   C61   A    
N10   N13   A    
C3    C6    A    
C33   H16   S    
C29   H11   S    
C64   H31   S    
C73   N11   A    
N13   Ni1   S    
C48   H19   S    
C69   H35   S    
C26   C27   A    
C29   C30   A    
C18   C24   A    
C36   C37   A    
C30   C31   A    
C10   C17   A    
C23   C40   A    
C25   H9    S    
C72   H41   S    
C15   C17   A    
C18   C19   A    
N14   Ni4   S    
C49   H20   S    
C54   C55   A    
N11   N12   A    
C19   C20   A    
C68   C69   S    
C6    C41   S    
C1    C65   A    
N1    Ni1   S    
C70   C71   S    
C32   C38   A    
C57   C70   S    
C4    C12   A    
C53   C65   S    
C42   C43   A    
N8    Ni1   S    
C64   N7    A    
C54   F3    S    
C2    H49   S    
C70   H48   S    
C5    H51   S    
C74   H45   S    
C74   N12   A    
C28   C34   A    
C59   C60   A    
C21   C22   A    
N2    Ni3   S    
C41   C43   A    
N7    Ni3   S    
C9    C73   A    
C7    C56   A    
C44   H25   S    
C44   C46   A    
N11   Ni4   S    
N16   Ni2   S    
C54   C59   A    
C53   C55   A    
C61   F2    S    
C69   H36   S    
C21   H7    S    
N9    Ni2   S    
C17   C24   S    
C5    N15   A    
N3    Ni4   S    
C12   C27   S    
C28   N3    A    
N12   Ni2   S    
C71   H46   S    
C10   C11   A    
C5    C7    A    
C56   N9    A    
C53   C57   A    
C3    H50   S    
C15   H5    S    
C25   C26   A    
C40   N4    A    
C66   H39   S    
C37   H18   S    
C8    C35   S    
C10   H52   S    
C37   C38   A    
N1    N7    A    
C47   C48   A    
C28   H27   S    
C4    N16   A    
C72   H42   S    
C16   H15   S    
C60   H26   S    
C67   N10   A    
C68   H38   S    
C40   H29   S    
C70   H47   S    
N2    N4    A    
C39   C49   A    
C49   C50   A    
C16   C23   A    
N5    Ni1   S    
C1    H1    S    
C41   C44   A    
C22   C24   A    
C9    C74   A    
C19   H6    S    
C55   C66   S    
C67   H23   S    
C73   H34   S    
C12   C63   A    
C46   C47   A    
N9    N15   A    
C45   H32   S    
C34   C52   A    
C2    C8    A    
C3    N14   A    
C30   H13   S    
C1    N1    A    
N6    Ni4   S    
C62   H28   S    
N4    Ni2   S    
C46   C50   A    
C50   H22   S    
C31   C38   S    
C32   C33   A    
C58   C59   A    
C43   H24   S    
C71   C72   S    
N8    N14   A    
C42   H21   S    
C63   N6    A    
C11   C13   A    
C36   H17   S    
C57   C58   A    
C32   H14   S    
C23   C39   S    
C64   C65   A    
C56   H12   S    
C45   N8    A    
C33   C35   A    
C42   C47   A    
C22   H8    S    
C61   C62   A    
C16   N2    A    
N15   Ni3   S    
C11   H2    S    
C68   H37   S    
C13   C34   S    
C4    H4    S    
C20   C21   A    
C52   H30   S    
C8    C67   A    
C26   H10   S    
C7    C20   S    
C66   H40   S    
N3    N5    A    
C52   N5    A    
C14   C15   A    
C51   C60   A    
C14   H3    S    
C13   C14   A    
N10   Ni3   S    
N6    N16   A    
C39   C48   A    
C63   F4    S    
