data_mof_unit_2387.cif
_audit_creation_date              2012-10-26T20:58:20-0400
_audit_creation_method            fapswitch 2.2
_symmetry_space_group_name_H-M    P1
_symmetry_Int_Tables_number       1
_space_group_crystal_system       triclinic
_cell_length_a                    10.616074
_cell_length_b                    14.702333
_cell_length_c                    14.74392
_cell_angle_alpha                 65.019818
_cell_angle_beta                  103.201195
_cell_angle_gamma                 102.772002
_cell_volume                      2010.49661395

loop_
_atom_site_label
_atom_site_type_symbol
_atom_type_description
_atom_site_fract_x
_atom_site_fract_y
_atom_site_fract_z
_atom_type_partial_charge
C1    C     C_R   0.479711 0.119896 0.312315 0.571491
C2    C     C_R   0.478346 0.533260 0.947461 0.017661
C3    C     C_R   0.428198 0.492191 0.873153 -0.143285
C4    C     C_R   0.493181 0.507456 0.123585 -0.142742
C5    C     C_R   0.394633 0.388158 0.900230 -0.138242
C6    C     C_R   0.502420 0.611264 0.095862 -0.138861
C7    C     C_R   0.717962 0.284706 0.667735 -0.157368
C8    C     C_R   0.283277 0.715935 0.331282 -0.159016
C9    C     C_R   0.683590 0.202937 0.638598 0.042388
C10   C     C_R   0.316561 0.797150 0.361273 0.040724
C11   C     C_R   0.519220 0.285554 0.508740 0.056601
C12   C     C_R   0.522864 0.880186 0.687634 0.574744
C13   C     C_R   0.481770 0.714945 0.490449 0.044265
C14   C     C_R   0.549836 0.371805 0.534243 0.003495
C15   C     C_R   0.452093 0.629169 0.464222 -0.000074
C16   C     C_R   0.259553 0.000477 0.500054 0.542105
C17   C     C_R   0.740448 0.999518 0.499955 0.555571
C18   C     C_R   0.651141 0.369032 0.616326 0.039990
C19   C     C_R   0.350917 0.632012 0.382048 0.038928
C20   C     C_R   0.483545 0.459372 0.482559 0.023514
C21   C     C_R   0.519021 0.541922 0.515428 0.021377
C22   C     C_R   0.619846 0.534286 0.598433 -0.143444
C23   C     C_R   0.511521 0.292224 0.176469 0.210451
C24   C     C_R   0.383351 0.467321 0.399103 -0.144224
C25   C     C_R   0.684629 0.449860 0.647218 -0.128730
C26   C     C_R   0.318407 0.551678 0.350429 -0.133230
C27   C     C_3   0.016601 0.011168 0.408044 -0.127749
C28   C     C_3   0.983397 0.988825 0.591971 -0.124559
C29   C     C_3   0.962291 0.087798 0.430144 -0.122518
C30   C     C_3   0.037706 0.912196 0.569872 -0.120434
C31   C     C_3   0.877140 0.998886 0.499742 0.046817
C32   C     C_3   0.122860 0.001106 0.500274 0.045127
C33   C     C_3   0.929136 0.922204 0.477630 -0.110482
C34   C     C_R   0.535544 0.708944 0.824517 0.218407
C35   C     C_3   0.070862 0.077788 0.522387 -0.114645
C36   C     C_R   0.464222 0.188293 0.204665 0.037941
C37   C     C_R   0.529179 0.812215 0.795078 0.041179
C38   C     C_R   0.381610 0.217249 0.028695 -0.151440
C39   C     C_R   0.519445 0.782284 0.968143 -0.152873
C40   C     C_R   0.400266 0.151250 0.130109 -0.187756
C41   C     C_R   0.523049 0.848646 0.867598 -0.189400
C42   C     C_R   0.472295 0.360959 0.077040 0.022981
C43   C     C_R   0.509032 0.639346 0.921858 0.026309
C44   C     C_R   0.416627 0.321956 0.001545 0.023135
C45   C     C_R   0.511216 0.677785 0.995775 0.021475
C46   C     C_R   0.485678 0.466883 0.050722 0.016602
Cu1   Cu    Cu3+1 0.465750 0.918270 0.475680 0.948593
Cu2   Cu    Cu3+1 0.534250 0.081730 0.524320 0.954164
H1    H     H_    0.928118 0.159506 0.372932 0.125404
H2    H     H_    0.352536 0.409456 0.368931 0.094679
H3    H     H_    0.033525 0.020447 0.332839 0.107234
H4    H     H_    0.966484 0.979545 0.667178 0.109190
H5    H     H_    0.868446 0.858459 0.459359 0.122959
H6    H     H_    0.131548 0.141529 0.540667 0.121596
H7    H     H_    0.351964 0.359452 0.841609 0.113696
H8    H     H_    0.503190 0.639533 0.153069 0.118331
H9    H     H_    0.335869 0.186739 0.971855 0.114472
H10   H     H_    0.518080 0.812255 0.023575 0.117070
H11   H     H_    0.761622 0.447641 0.710421 0.110029
H12   H     H_    0.071858 0.840486 0.627093 0.115797
H13   H     H_    0.241884 0.554138 0.286887 0.110334
H14   H     H_    0.627245 0.622017 0.801642 0.314290
H15   H     H_    0.664230 0.381736 0.205771 0.320088
H16   H     H_    0.521170 0.928431 0.846626 0.132960
H17   H     H_    0.365975 0.071139 0.150015 0.127783
H18   H     H_    0.405969 0.540084 0.793944 0.166722
H19   H     H_    0.483324 0.459159 0.201551 0.160987
H20   H     H_    0.559076 0.720690 0.550034 0.156921
H21   H     H_    0.442032 0.279906 0.449008 0.126706
H22   H     H_    0.265307 0.862413 0.321591 0.120657
H23   H     H_    0.734346 0.137438 0.678664 0.122854
H24   H     H_    0.795808 0.281771 0.730534 0.090987
H25   H     H_    0.205617 0.718981 0.268343 0.091039
H26   H     H_    0.651448 0.592505 0.628084 0.116689
N1    N     N_R   0.585750 0.204560 0.560800 -0.230911
N2    N     N_R   0.414250 0.795440 0.439200 -0.236463
O1    O     O_R   0.454850 0.022100 0.338110 -0.529020
O2    O     O_3   0.604406 0.322833 0.244425 -0.704081
O3    O     O_R   0.545150 0.977900 0.661890 -0.530801
O4    O     O_R   0.512700 0.160150 0.379180 -0.439969
O5    O     O_R   0.487300 0.839850 0.620820 -0.445149
O6    O     O_R   0.287930 0.931000 0.479440 -0.509089
O7    O     O_R   0.712070 0.069000 0.520560 -0.499203
O8    O     O_R   0.345780 0.069050 0.520520 -0.519170
O9    O     O_R   0.654220 0.930950 0.479480 -0.510287
O10   O     O_3   0.578596 0.680241 0.760105 -0.730295

loop_
_geom_bond_atom_site_label_1
_geom_bond_atom_site_label_2
_ccdc_geom_bond_type
C30   C32   S    
C6    C45   A    
C27   C29   S    
C34   C37   A    
C1    O1    A    
C14   C18   A    
C39   C41   A    
C29   H1    S    
C27   C33   S    
C15   C19   A    
H14   O10   S    
C23   C42   A    
C17   O9    A    
Cu1   O9    S    
Cu2   O3    S    
C26   H13   S    
C24   C26   A    
Cu1   N2    S    
C34   O10   S    
C11   C14   A    
C12   O3    A    
C16   O8    A    
C42   C46   A    
Cu1   O6    S    
C12   C37   S    
C19   C26   A    
C10   N2    A    
C20   C24   A    
C28   C35   S    
C22   C25   A    
C30   H12   S    
C31   C33   S    
C39   C45   A    
C21   C22   A    
C35   H6    S    
C33   H5    S    
Cu2   N1    S    
C18   C25   A    
C42   C44   A    
C27   H3    S    
C24   H2    S    
C8    C19   A    
C32   C35   S    
C14   C20   A    
C36   C40   A    
C4    C6    A    
C7    H24   S    
C4    C46   A    
C39   H10   S    
C2    C46   A    
Cu2   O8    S    
C17   O7    A    
C38   C44   A    
C38   H9    S    
Cu1   Cu2   S    
C13   N2    A    
C2    C43   A    
C7    C18   A    
C16   O6    A    
C43   C45   A    
C10   H22   S    
C5    C44   A    
C40   H17   S    
C13   C15   A    
C17   C31   S    
C3    H18   S    
Cu1   O1    S    
C7    C9    A    
C30   C33   S    
C27   C32   S    
C5    H7    S    
C28   C31   S    
C34   C43   A    
C9    H23   S    
C6    H8    S    
C3    C5    A    
C4    H19   S    
C11   H21   S    
C16   C32   S    
C9    N1    A    
C29   C35   S    
Cu2   O7    S    
Cu2   O4    S    
C28   C30   S    
C2    C3    A    
C29   C31   S    
C11   N1    A    
C38   C40   A    
C28   H4    S    
C8    H25   S    
C12   O5    A    
Cu1   O5    S    
C23   O2    S    
C37   C41   A    
C15   C21   A    
C20   C21   A    
C8    C10   A    
C23   C36   A    
C1    O4    A    
C22   H26   S    
C25   H11   S    
C41   H16   S    
H15   O2    S    
C1    C36   S    
C13   H20   S    
