data_mof_unit_4091.cif
_audit_creation_date              2012-12-10T16:54:07-0500
_audit_creation_method            fapswitch 2.2
_symmetry_space_group_name_H-M    P1
_symmetry_Int_Tables_number       1
_space_group_crystal_system       triclinic
_cell_length_a                    9.685493
_cell_length_b                    10.937033
_cell_length_c                    13.487474
_cell_angle_alpha                 90.069726
_cell_angle_beta                  72.599835
_cell_angle_gamma                 90.000611
_cell_volume                      1363.35482113

loop_
_atom_site_label
_atom_site_type_symbol
_atom_type_description
_atom_site_fract_x
_atom_site_fract_y
_atom_site_fract_z
_atom_type_partial_charge
C1    C     C_R   0.500419 0.734663 0.498880 0.841270
C2    C     C_R   0.450404 0.474833 0.973052 -0.038001
C3    C     C_R   0.476536 0.522894 0.871231 0.055137
C4    C     C_R   0.552074 0.502070 0.027679 0.068963
C5    C     C_R   0.686833 0.556808 0.974879 0.179372
C6    C     C_R   0.709595 0.603211 0.875417 -0.241194
C7    C     C_R   0.601575 0.594325 0.827793 -0.167953
C8    C     C_R   0.518895 0.487144 0.135251 -0.258325
C9    C     C_R   0.761522 0.546809 0.130677 -0.182336
C10   C     C_R   0.378012 0.496975 0.814446 -0.105215
C11   C     C_2   0.613800 0.066930 0.498917 -0.150103
C12   C     C_R   0.422748 0.504275 0.700100 0.797431
C13   C     C_2   0.494730 0.133382 0.506872 -0.314507
C14   C     C_2   0.611762 0.933003 0.503582 -0.157544
C15   C     C_2   0.500234 0.866610 0.493881 -0.313613
C16   C     C_2   0.053144 0.570932 0.559564 -0.068301
C17   C     C_2   0.899522 0.575990 0.554859 -0.058874
C18   C     C_R   0.499325 0.265333 0.501382 0.861196
C19   C     C_R   0.577383 0.501037 0.300209 0.807468
C20   C     C_R   0.792837 0.573394 0.025358 -0.201463
C21   C     C_R   0.622068 0.508771 0.186819 -0.058928
C22   C     C_R   0.244324 0.443239 0.865028 -0.297599
C23   C     C_R   0.217805 0.396420 0.964453 -0.129964
C24   C     C_R   0.324164 0.401052 0.014753 0.391505
Cu1   Cu    Cu3+1 0.361370 0.499980 0.499980 0.950360
Cu2   Cu    Cu3+1 0.638630 0.500020 0.500020 0.947175
H1    H     H_    0.842824 0.564026 0.169352 0.162961
H2    H     H_    0.389139 0.092458 0.519879 0.148049
H3    H     H_    0.706853 0.888301 0.513637 0.163687
H4    H     H_    0.406186 0.907567 0.479822 0.150072
H5    H     H_    0.081669 0.631189 0.614306 0.146656
H6    H     H_    0.128632 0.448855 0.445394 0.202180
H7    H     H_    0.829439 0.645888 0.600640 0.138123
H8    H     H_    0.910057 0.431284 0.461742 0.196475
H9    H     H_    0.807686 0.653035 0.836787 0.132601
H10   H     H_    0.897651 0.611593 0.984446 0.139578
H11   H     H_    0.409734 0.466033 0.181100 0.206584
H12   H     H_    0.165433 0.426266 0.824166 0.179189
H13   H     H_    0.119520 0.344833 0.998272 0.168648
H14   H     H_    0.617419 0.645017 0.756611 0.151549
H15   H     H_    0.716972 0.111561 0.490149 0.168864
N1    N     N_2   0.152660 0.501340 0.501130 -0.279406
N2    N     N_2   0.846520 0.501370 0.501160 -0.279579
O1    O     O_R   0.382960 0.678040 0.499980 -0.578165
O2    O     O_R   0.617100 0.678080 0.500020 -0.581862
O3    O     O_R   0.325800 0.499940 0.650950 -0.578664
O4    O     O_R   0.559930 0.499980 0.650990 -0.575867
O5    O     O_R   0.382900 0.321920 0.499980 -0.575811
O6    O     O_R   0.617040 0.321960 0.500020 -0.575071
O7    O     O_R   0.440070 0.500020 0.349010 -0.578786
O8    O     O_R   0.674200 0.500060 0.349050 -0.577374
O9    O     O_3   0.306553 0.322571 0.097382 -0.753188
H16   H     H_    0.403037 0.288353 0.092909 0.322602

loop_
_geom_bond_atom_site_label_1
_geom_bond_atom_site_label_2
_ccdc_geom_bond_type
Cu1   N1    S    
C24   O9    S    
C2    C4    A    
C23   C24   A    
C17   N2    D    
C13   H2    S    
C6    C7    A    
C1    C15   S    
C16   N1    D    
C6    H9    S    
C9    C20   A    
Cu1   O3    S    
C19   O7    A    
C4    C8    A    
C9    C21   A    
C2    C3    A    
C3    C10   A    
Cu2   O8    S    
C10   C22   A    
C16   H5    S    
C11   C13   D    
Cu1   O5    S    
C1    O2    A    
C17   H7    S    
C13   C18   S    
C12   O4    A    
C23   H13   S    
C10   C12   S    
Cu1   O1    S    
C19   C21   S    
Cu2   N2    S    
C11   H15   S    
C3    C7    A    
C2    C24   A    
C5    C6    A    
C11   C14   S    
C8    H11   S    
C14   H3    S    
C20   H10   S    
C19   O8    A    
O9    H16   S    
C9    H1    S    
C15   H4    S    
C12   O3    A    
Cu2   O6    S    
C5    C20   A    
Cu2   O4    S    
C22   C23   A    
C16   C17   S    
H6    N1    S    
C1    O1    A    
Cu2   O2    S    
Cu1   Cu2   S    
C14   C15   D    
C7    H14   S    
Cu1   O7    S    
H8    N2    S    
C18   O6    A    
C18   O5    A    
C4    C5    A    
C22   H12   S    
C8    C21   A    
