data_mof_unit_196.cif
_audit_creation_date              2012-12-10T18:46:13-0500
_audit_creation_method            fapswitch 2.2
_symmetry_space_group_name_H-M    P1
_symmetry_Int_Tables_number       1
_space_group_crystal_system       triclinic
_cell_length_a                    9.833348
_cell_length_b                    10.663595
_cell_length_c                    13.127559
_cell_angle_alpha                 90.212406
_cell_angle_beta                  69.78143
_cell_angle_gamma                 90.554276
_cell_volume                      1291.65910259

loop_
_atom_site_label
_atom_site_type_symbol
_atom_type_description
_atom_site_fract_x
_atom_site_fract_y
_atom_site_fract_z
_atom_type_partial_charge
C1    C     C_R   0.499865 0.740675 0.501505 0.870476
C2    C     C_R   0.430636 0.475925 0.985295 0.092437
C3    C     C_R   0.461267 0.442046 0.876062 0.063352
C4    C     C_R   0.543177 0.467067 0.029131 -0.041815
C5    C     C_R   0.670579 0.398740 0.972325 0.106373
C6    C     C_R   0.688200 0.347869 0.870932 -0.199145
C7    C     C_R   0.585271 0.369711 0.823061 -0.169346
C8    C     C_R   0.536084 0.527180 0.125958 0.404961
C9    C     C_R   0.755830 0.423387 0.123087 -0.294131
C10   C     C_R   0.366826 0.481896 0.822756 -0.108179
C11   C     C_R   0.602628 0.935385 0.540997 -0.208875
C12   C     C_R   0.419533 0.493345 0.704472 0.845318
C13   C     C_R   0.594748 0.063049 0.558660 -0.000257
C14   C     C_R   0.478766 0.128903 0.542687 -0.220189
C15   C     C_R   0.355492 0.061699 0.539203 -0.013482
C16   C     C_R   0.368444 0.935109 0.518399 -0.250263
C17   C     C_R   0.493799 0.873404 0.515090 -0.076383
C18   C     C_R   0.960900 0.431046 0.424230 0.593163
C19   C     C_R   0.106759 0.433597 0.423764 -0.172731
C20   C     C_R   0.037598 0.566333 0.576033 -0.069882
C21   C     C_R   0.894005 0.566765 0.575741 -0.157326
C22   C     C_R   0.491878 0.261396 0.516817 0.861229
C23   C     C_R   0.580493 0.501797 0.295665 0.904561
C24   C     C_R   0.778028 0.380857 0.018427 -0.211169
C25   C     C_R   0.630863 0.490882 0.178521 -0.153985
C26   C     C_R   0.227925 0.524697 0.883699 -0.173726
C27   C     C_R   0.186683 0.534597 0.995918 -0.180345
C28   C     C_R   0.287560 0.512805 0.046572 -0.139726
H1    H     H_    0.832520 0.399341 0.162159 0.205027
H2    H     H_    0.277487 0.883500 0.509777 0.198889
H3    H     H_    0.191303 0.383337 0.362537 0.131771
H4    H     H_    0.064721 0.619576 0.636790 0.137204
H5    H     H_    0.812356 0.620706 0.636164 0.162702
H6    H     H_    0.783283 0.293569 0.827549 0.164270
H7    H     H_    0.875036 0.328305 0.976004 0.164576
H8    H     H_    0.152264 0.552250 0.844554 0.159247
H9    H     H_    0.249823 0.520298 0.133940 0.191986
H10   H     H_    0.077979 0.563791 0.043390 0.158142
H11   H     H_    0.602129 0.326910 0.745107 0.191738
H12   H     H_    0.692273 0.883996 0.550408 0.174854
N1    N     N_R   0.142790 0.500030 0.500030 -0.079751
N2    N     N_R   0.857180 0.499940 0.500010 -0.093613
O1    O     O_R   0.385370 0.683250 0.500010 -0.627178
O2    O     O_R   0.614700 0.683220 0.500010 -0.626171
O3    O     O_R   0.328400 0.499990 0.653620 -0.601642
O4    O     O_R   0.557730 0.499960 0.653620 -0.623576
O5    O     O_R   0.385300 0.316780 0.499990 -0.593724
O6    O     O_R   0.614630 0.316750 0.499990 -0.553314
O7    O     O_R   0.442270 0.500040 0.346380 -0.578385
O8    O     O_R   0.671600 0.500010 0.346380 -0.582417
Zn1   Zn    Zn3+2 0.346870 0.500020 0.500000 0.988768
Zn2   Zn    Zn3+2 0.653130 0.499980 0.500000 1.004852
C29   C     C_2   0.694686 0.115769 0.610842 0.856601
O9    O     O_2   0.779806 0.200288 0.568886 -0.648630
O10   O     O_R   0.697606 0.060329 0.706414 -0.811451
H13   H     H_    0.774365 0.098559 0.732626 0.336592
C30   C     C_2   0.208509 0.115399 0.566135 0.930510
O11   O     O_2   0.166216 0.195952 0.636390 -0.619526
O12   O     O_R   0.114327 0.066221 0.516985 -0.847673
H14   H     H_    0.013713 0.101931 0.549080 0.359840
O13   O     O_3   0.920534 0.366857 0.346467 -0.633518
C31   C     C_3   0.990378 0.249760 0.318781 0.064263
H15   H     H_    0.009211 0.205232 0.389206 0.191921
H16   H     H_    0.096020 0.262889 0.251907 0.124683
C32   C     C_3   0.895265 0.160920 0.279839 -0.298837
H17   H     H_    0.783127 0.160003 0.339599 0.246821
H18   H     H_    0.891333 0.194243 0.200900 0.206184
C33   C     C_3   0.953138 0.027301 0.265987 -0.936793
H19   H     H_    0.065394 0.025274 0.206432 0.266909
H20   H     H_    0.883089 0.966098 0.235931 0.262908
H21   H     H_    0.952446 0.989847 0.345045 0.283093
O14   O     O_3   0.435704 0.620089 0.171542 -0.659431
C34   C     C_3   0.497328 0.739646 0.135331 0.075194
H22   H     H_    0.420877 0.790712 0.105117 0.174481
H23   H     H_    0.603446 0.737219 0.066726 0.126172
C35   C     C_3   0.514934 0.812804 0.230630 -0.323183
H24   H     H_    0.409285 0.814850 0.298560 0.245369
H25   H     H_    0.595161 0.765110 0.259058 0.197545
C36   C     C_3   0.566493 0.947211 0.198871 -0.950885
H26   H     H_    0.673081 0.947634 0.131945 0.265117
H27   H     H_    0.578643 0.996751 0.269877 0.270030
H28   H     H_    0.486414 0.998310 0.172565 0.270523

loop_
_geom_bond_atom_site_label_1
_geom_bond_atom_site_label_2
_ccdc_geom_bond_type
C22   O6    A    
O10   H13   S    
C34   H23   S    
C34   H22   S    
C35   C36   S    
C4    C8    A    
C19   H3    S    
C20   N1    A    
C9    C25   A    
C29   O9    D    
C26   C27   A    
C35   H25   S    
C3    C7    A    
C18   N2    A    
C5    C6    A    
C30   O12   S    
C21   H5    S    
O3    Zn1   S    
C27   H10   S    
C16   H2    S    
C15   C16   A    
O4    Zn2   S    
C18   C19   A    
C31   H16   S    
C33   H19   S    
C1    O1    A    
C16   C17   A    
O7    Zn1   S    
O8    Zn2   S    
C9    H1    S    
O14   C34   S    
O2    Zn2   S    
C22   O5    A    
O12   H14   S    
C13   C14   A    
C8    C25   A    
C15   C30   S    
O13   C31   S    
C13   C29   S    
C29   O10   S    
C8    O14   S    
C24   H7    S    
C35   H24   S    
C12   O4    A    
C36   H27   S    
C4    C5    A    
C23   O8    A    
O5    Zn1   S    
C32   H18   S    
C21   N2    A    
C2    C4    A    
C31   H15   S    
C1    O2    A    
C32   C33   S    
C18   O13   S    
C10   C12   S    
C26   H8    S    
C34   C35   S    
C20   H4    S    
C11   C17   A    
C31   C32   S    
C12   O3    A    
C36   H28   S    
C9    C24   A    
C6    C7    A    
C1    C17   S    
C14   C22   S    
C2    C3    A    
C3    C10   A    
C11   C13   A    
C10   C26   A    
C30   O11   D    
C5    C24   A    
C28   H9    S    
O1    Zn1   S    
C33   H21   S    
C23   C25   S    
C11   H12   S    
C23   O7    A    
C36   H26   S    
C6    H6    S    
O6    Zn2   S    
C20   C21   A    
C33   H20   S    
C32   H17   S    
C27   C28   A    
C7    H11   S    
C14   C15   A    
C2    C28   A    
N1    Zn1   S    
C19   N1    A    
N2    Zn2   S    
