data_mof_unit_4452.cif
_audit_creation_date              2012-12-11T16:24:27-0500
_audit_creation_method            fapswitch 2.2
_symmetry_space_group_name_H-M    P1
_symmetry_Int_Tables_number       1
_space_group_crystal_system       triclinic
_cell_length_a                    14.741524
_cell_length_b                    14.767508
_cell_length_c                    33.283039
_cell_angle_alpha                 96.073678
_cell_angle_beta                  96.192949
_cell_angle_gamma                 61.197149
_cell_volume                      6300.05309784

loop_
_atom_site_label
_atom_site_type_symbol
_atom_type_description
_atom_site_fract_x
_atom_site_fract_y
_atom_site_fract_z
_atom_type_partial_charge
C1    C     C_R   0.390561 0.700651 0.446411 0.579295
C2    C     C_1   0.311781 0.339081 0.229312 -0.001329
C3    C     C_1   0.316715 0.343697 0.265647 0.022779
C4    C     C_R   0.405753 0.386313 0.434020 0.543536
C5    C     C_R   0.290802 0.293758 0.101958 0.015974
C6    C     C_R   0.758120 0.372281 0.410572 -0.019732
C7    C     C_R   0.802867 0.427184 0.396650 -0.090011
C8    C     C_R   0.836585 0.406419 0.357495 0.241181
C9    C     C_R   0.824476 0.330276 0.331560 0.043467
C10   C     C_R   0.789330 0.268736 0.347031 -0.154543
C11   C     C_R   0.756446 0.289486 0.386195 -0.136321
C12   C     C_R   0.326626 0.347957 0.309022 0.069125
C13   C     C_R   0.841932 0.309337 0.206107 0.335329
C14   C     C_R   0.836321 0.321319 0.287753 0.371667
C15   C     C_R   0.837474 0.388746 0.142916 -0.112975
C16   C     C_R   0.700863 0.409927 0.447560 0.548018
C17   C     C_R   0.865742 0.378118 0.103418 -0.124753
C18   C     C_R   0.915973 0.195420 0.100404 -0.128212
C19   C     C_R   0.888149 0.205949 0.140019 -0.114893
C20   C     C_R   0.853020 0.301777 0.162227 0.033815
C21   C     C_R   0.909583 0.280465 0.082495 0.020693
C22   C     C_R   0.371321 0.756754 0.409673 0.015977
C23   C     C_R   0.411493 0.266890 0.328236 -0.135403
C24   C     C_R   0.270675 0.815395 0.391425 0.232640
C25   C     C_R   0.258884 0.846048 0.351638 0.116157
C26   C     C_R   0.347659 0.818480 0.330545 0.036646
C27   C     C_R   0.446053 0.770593 0.350734 -0.157729
C28   C     C_R   0.393455 0.701312 0.561270 0.546373
C29   C     C_R   0.457749 0.740130 0.389740 -0.177093
C30   C     C_R   0.337185 0.833975 0.205332 0.343641
C31   C     C_R   0.340789 0.830221 0.286764 0.373690
C32   C     C_R   0.246017 0.846427 0.137108 -0.133667
C33   C     C_R   0.229265 0.874769 0.097423 -0.168184
C34   C     C_R   0.432728 0.275614 0.369822 -0.130654
C35   C     C_R   0.388488 0.887729 0.104192 0.223235
C36   C     C_R   0.404461 0.859304 0.144093 -0.077364
C37   C     C_R   0.330749 0.843889 0.161443 -0.005605
C38   C     C_R   0.296411 0.901983 0.081145 0.030307
C39   C     C_R   0.369888 0.369271 0.584880 0.061782
C40   C     C_R   0.406975 0.388613 0.548885 0.565739
C41   C     C_R   0.290479 0.453569 0.605495 -0.160146
C42   C     C_R   0.270634 0.445135 0.644457 -0.132819
C43   C     C_R   0.329634 0.352158 0.663579 0.015361
C44   C     C_R   0.401441 0.264823 0.641653 -0.112900
C45   C     C_R   0.392088 0.251104 0.166269 -0.104044
C46   C     C_R   0.421823 0.272427 0.602408 0.091397
C47   C     C_R   0.320694 0.346561 0.788331 0.348464
C48   C     C_R   0.323297 0.348481 0.707124 0.348707
C49   C     C_R   0.225192 0.408635 0.851453 -0.114423
C50   C     C_R   0.211861 0.390633 0.890334 0.087673
C51   C     C_R   0.385076 0.242885 0.891684 -0.159050
C52   C     C_R   0.701230 0.413683 0.562709 0.543705
C53   C     C_R   0.397232 0.261135 0.853035 -0.132574
C54   C     C_R   0.315459 0.340836 0.831812 0.015490
C55   C     C_R   0.290528 0.303322 0.909901 0.060249
C56   C     C_R   0.383805 0.233000 0.124405 -0.105951
C57   C     C_R   0.753839 0.380733 0.602970 0.021083
C58   C     C_R   0.778272 0.447719 0.629534 -0.124645
C59   C     C_R   0.806548 0.427287 0.670312 -0.110042
C60   C     C_R   0.811183 0.339645 0.684920 0.040496
C61   C     C_R   0.793146 0.269368 0.658297 -0.110409
C62   C     C_R   0.764907 0.289540 0.617509 -0.122182
C63   C     C_R   0.886530 0.212772 0.822735 -0.110217
C64   C     C_R   0.369467 0.366108 0.392695 -0.001981
C65   C     C_R   0.914052 0.201413 0.864116 -0.126759
C66   C     C_R   0.872221 0.382207 0.873421 -0.125877
C67   C     C_R   0.209156 0.377632 0.121826 -0.124674
C68   C     C_R   0.844611 0.393347 0.832100 -0.112386
C69   C     C_R   0.854593 0.307992 0.806563 0.041716
C70   C     C_1   0.839079 0.316830 0.763562 -0.021970
C71   C     C_1   0.827245 0.325913 0.727607 -0.022165
C72   C     C_R   0.910552 0.285227 0.889644 0.020757
C73   C     C_R   0.376274 0.754740 0.602015 0.021220
C74   C     C_R   0.280969 0.789599 0.619175 -0.122105
C75   C     C_R   0.271488 0.818759 0.660405 -0.110864
C76   C     C_R   0.279748 0.444150 0.373739 -0.089396
C77   C     C_R   0.356837 0.813758 0.684895 0.041009
C78   C     C_R   0.217650 0.395437 0.163730 -0.101612
C79   C     C_R   0.450071 0.785338 0.667712 -0.111534
C80   C     C_R   0.459744 0.756321 0.626421 -0.127586
C81   C     C_R   0.396831 0.884662 0.832689 -0.110856
C82   C     C_R   0.377004 0.912165 0.873500 -0.123924
C83   C     C_R   0.228342 0.881578 0.862811 -0.125956
C84   C     C_R   0.248464 0.853984 0.822049 -0.110943
C85   C     C_R   0.330949 0.858241 0.806749 0.040126
C86   C     C_1   0.343249 0.842303 0.764003 -0.022242
C87   C     C_1   0.350501 0.830148 0.727965 -0.021929
C88   C     C_R   0.257825 0.435764 0.331809 0.123395
C89   C     C_R   0.307905 0.330207 0.186026 0.036391
C90   C     C_R   0.290496 0.914129 0.888692 0.021049
C91   C     C_R   0.963807 0.264050 0.045653 0.544865
C92   C     C_R   0.272653 0.259358 0.060076 0.541446
C93   C     C_R   0.259544 0.959267 0.043811 0.567603
C94   C     C_R   0.962710 0.267586 0.930699 0.542189
C95   C     C_R   0.270887 0.264228 0.945326 0.558431
C96   C     C_R   0.256150 0.965060 0.928935 0.541902
Cl1   Cl    Cl    0.892517 0.478355 0.342376 -0.579488
Cl2   Cl    Cl    0.158730 0.851461 0.417578 -0.593055
Cl3   Cl    Cl    0.484500 0.908415 0.085873 -0.595361
Cr1   Cr    Cr6+3 0.576280 0.580550 0.506370 1.024070
Cr2   Cr    Cr6+3 0.346780 0.572400 0.496520 1.063146
Cr3   Cr    Cr6+3 0.576960 0.347070 0.497150 1.041725
Cr4   Cr    Cr6+3 0.087320 0.083240 0.984860 1.015393
Cr5   Cr    Cr6+3 0.087720 0.316210 0.996740 1.043107
Cr6   Cr    Cr6+3 0.317350 0.090340 0.995890 1.079915
H1    H     H_    0.447987 0.167859 0.110022 0.169022
H2    H     H_    0.462416 0.200543 0.183411 0.128461
H3    H     H_    0.515237 0.750086 0.335419 0.167302
H4    H     H_    0.189153 0.832195 0.149300 0.151860
H5    H     H_    0.472438 0.854054 0.162055 0.172153
H6    H     H_    0.248186 0.528573 0.592721 0.138155
H7    H     H_    0.213484 0.513376 0.660418 0.140120
H8    H     H_    0.445251 0.191283 0.655475 0.130571
H9    H     H_    0.464305 0.198874 0.310734 0.126582
H10   H     H_    0.162118 0.472291 0.835882 0.129380
H11   H     H_    0.447806 0.176789 0.906146 0.137150
H12   H     H_    0.723137 0.245173 0.396268 0.149139
H13   H     H_    0.468943 0.209200 0.839014 0.139841
H14   H     H_    0.943867 0.125585 0.875591 0.128800
H15   H     H_    0.894305 0.146303 0.803143 0.111700
H16   H     H_    0.796807 0.201180 0.669356 0.112692
H17   H     H_    0.746417 0.236487 0.597908 0.134267
H18   H     H_    0.770104 0.518723 0.619378 0.129412
H19   H     H_    0.819614 0.467465 0.819821 0.111324
H20   H     H_    0.868670 0.448185 0.892234 0.131306
H21   H     H_    0.502191 0.214140 0.383563 0.144829
H22   H     H_    0.820643 0.482013 0.690757 0.113424
H23   H     H_    0.858924 0.445220 0.090172 0.141336
H24   H     H_    0.426147 0.937172 0.892566 0.131798
H25   H     H_    0.461015 0.887938 0.821070 0.113835
H26   H     H_    0.516516 0.781377 0.686494 0.111483
H27   H     H_    0.534322 0.729367 0.614203 0.128615
H28   H     H_    0.215325 0.789213 0.601235 0.135694
H29   H     H_    0.197227 0.833308 0.802137 0.114002
H30   H     H_    0.161079 0.882461 0.873507 0.128556
H31   H     H_    0.198907 0.840952 0.673492 0.112580
H32   H     H_    0.229878 0.514070 0.391073 0.148231
H33   H     H_    0.152283 0.457086 0.178888 0.132978
H34   H     H_    0.780375 0.209056 0.327937 0.147166
H35   H     H_    0.136463 0.425679 0.105422 0.136084
H36   H     H_    0.807610 0.489376 0.415538 0.165575
H37   H     H_    0.117651 0.861619 0.331566 0.276083
H38   H     H_    0.117504 0.973444 0.349901 0.272057
H39   H     H_    0.474968 0.125226 0.579026 0.229558
H40   H     H_    0.568340 0.155510 0.598646 0.226348
H41   H     H_    0.106638 0.533397 0.910570 0.221475
H42   H     H_    0.055614 0.457127 0.889559 0.228239
H43   H     H_    0.129604 0.579495 0.332845 0.250908
H44   H     H_    0.118640 0.489461 0.300685 0.266627
H45   H     H_    0.808907 0.464090 0.158982 0.149591
H46   H     H_    0.949200 0.119165 0.084934 0.134467
H47   H     H_    0.899518 0.137803 0.153875 0.143780
H48   H     H_    0.535868 0.696772 0.403131 0.159564
H49   H     H_    0.159315 0.882108 0.080470 0.143824
N1    N     N_R   0.813921 0.400821 0.227851 -0.215205
N2    N     N_R   0.417930 0.834530 0.269571 -0.225204
N3    N     N_R   0.415786 0.837115 0.229652 -0.221930
N4    N     N_R   0.246257 0.427344 0.767823 -0.237119
N5    N     N_3   0.157378 0.904446 0.332432 -0.572099
N6    N     N_3   0.497864 0.182568 0.581241 -0.596683
N7    N     N_3   0.116332 0.458153 0.908660 -0.596237
N8    N     N_3   0.169558 0.518032 0.311964 -0.597827
N9    N     N_R   0.247964 0.428627 0.728008 -0.234029
N10   N     N_R   0.397534 0.267793 0.727655 -0.235323
N11   N     N_R   0.396041 0.266690 0.767424 -0.232888
N12   N     N_R   0.810446 0.406796 0.267813 -0.141467
N13   N     N_R   0.863147 0.229907 0.266026 -0.225224
N14   N     N_R   0.866668 0.223886 0.225994 -0.223208
N15   N     N_R   0.260388 0.829158 0.222542 -0.219664
N16   N     N_R   0.262507 0.826651 0.262432 -0.168709
O1    O     O_R   0.679450 0.499830 0.463150 -0.517348
O2    O     O_R   0.340240 0.172500 0.045430 -0.484169
O3    O     O_R   0.309670 0.000990 0.032050 -0.430870
O4    O     O_R   0.480650 0.664000 0.464630 -0.513589
O5    O     O_R   0.168330 0.982130 0.939200 -0.521331
O6    O     O_R   0.000140 0.178170 0.944610 -0.503981
O7    O     O_R   0.983010 0.336750 0.948660 -0.505877
O8    O     O_R   0.181800 0.312190 0.959860 -0.455797
O9    O     O_R   0.338500 0.175680 0.956950 -0.532394
O10   O     O_R   0.308050 0.003930 0.950020 -0.498580
O11   O     O_3   0.164130 0.163270 0.992500 -0.255506
O12   O     O_R   0.356040 0.477400 0.534170 -0.516610
O13   O     O_R   0.323930 0.675950 0.455370 -0.444552
O14   O     O_R   0.354700 0.475360 0.451930 -0.499436
O15   O     O_R   0.494470 0.320860 0.448390 -0.514767
O16   O     O_R   0.662580 0.357570 0.460050 -0.497192
O17   O     O_R   0.680900 0.502040 0.551870 -0.518049
O18   O     O_R   0.481990 0.666040 0.546870 -0.503601
O19   O     O_R   0.325370 0.678160 0.544080 -0.509195
O20   O     O_R   0.495910 0.323070 0.537100 -0.470339
O21   O     O_R   0.663920 0.359620 0.542290 -0.500290
O22   O     O_3   0.500010 0.500010 0.500010 -0.255443
O23   O     O_R   0.170070 0.978950 0.027680 -0.533555
O24   O     O_R   0.001760 0.175230 0.026640 -0.502798
O25   O     O_R   0.984760 0.333570 0.037150 -0.515811
O26   O     O_R   0.183410 0.309240 0.041890 -0.506656

loop_
_geom_bond_atom_site_label_1
_geom_bond_atom_site_label_2
_ccdc_geom_bond_type
C30   N3    A    
C66   C68   A    
C63   C65   A    
C80   H27   S    
Cr6   O2    S    
C27   C29   A    
C18   C21   A    
C41   C42   A    
C5    C56   A    
C35   C36   A    
C62   H17   S    
H37   N5    S    
C5    C67   A    
Cr2   O22   S    
C28   O19   A    
C68   H19   S    
C81   C82   A    
C1    O13   A    
C7    C8    A    
C39   C41   A    
C48   N9    A    
C53   C54   A    
C12   C23   A    
C84   H29   S    
C58   H18   S    
Cr3   O16   S    
C49   H10   S    
C24   Cl2   S    
C75   H31   S    
C36   C37   A    
C22   C29   A    
Cr2   O19   S    
C28   O18   A    
C21   C91   S    
C47   N11   A    
N1    N12   A    
C59   H22   S    
C49   C54   A    
C74   H28   S    
C96   O5    A    
C61   H16   S    
C18   C19   A    
N15   N16   A    
C42   H7    S    
C13   N1    A    
C3    C12   S    
Cr5   O25   S    
Cr5   O7    S    
Cr5   O8    S    
C63   C69   A    
C45   C56   A    
C8    C9    A    
C25   N5    S    
Cr3   O22   S    
C70   C71   T    
Cr4   O24   S    
H39   N6    S    
C45   C89   A    
C43   C48   S    
C76   C88   A    
C83   H30   S    
C61   C62   A    
Cr2   O13   S    
C72   C94   S    
Cr5   O11   S    
C46   N6    S    
C59   C60   A    
N13   N14   A    
Cr6   O3    S    
C50   N7    S    
N10   N11   A    
Cr1   O22   S    
C67   C78   A    
Cr6   O9    S    
C35   Cl3   S    
C28   C73   S    
C78   H33   S    
Cr4   O5    S    
C44   C46   A    
C19   H47   S    
C40   O12   A    
C77   C79   A    
C78   C89   A    
C64   C76   A    
C15   C20   A    
H41   N7    S    
C66   C72   A    
C1    O4    A    
Cr3   O15   S    
C74   C75   A    
C12   C88   A    
C57   C62   A    
Cr1   O17   S    
C24   C25   A    
C55   C95   S    
H42   N7    S    
C6    C11   A    
C91   O24   A    
C33   H49   S    
C68   C69   A    
C13   N14   A    
C60   C71   S    
C25   C26   A    
C85   C86   S    
C6    C16   S    
C52   O17   A    
C17   C21   A    
C30   C37   S    
C60   C61   A    
C51   C53   A    
C52   O21   A    
C4    O15   A    
C2    C89   S    
C8    Cl1   S    
C30   N15   A    
Cr5   O26   S    
C91   O25   A    
C95   O8    A    
C1    C22   S    
C83   C84   A    
C34   H21   S    
C23   C34   A    
C79   H26   S    
C35   C38   A    
C34   C64   A    
Cr3   O21   S    
C26   C27   A    
C9    C14   S    
C32   C37   A    
C84   C85   A    
C82   H24   S    
H38   N5    S    
C67   H35   S    
C75   C77   A    
C56   H1    S    
Cr2   O14   S    
N4    N9    A    
C47   C54   S    
C95   O9    A    
C32   H4    S    
C44   H8    S    
C39   C46   A    
C43   C44   A    
Cr1   O4    S    
C45   H2    S    
C22   C24   A    
C14   N12   A    
C42   C43   A    
Cr6   O10   S    
C18   H46   S    
C11   H12   S    
C73   C74   A    
C7    H36   S    
C52   C57   S    
C86   C87   T    
C29   H48   S    
C9    C10   A    
H40   N6    S    
C83   C90   A    
N2    N3    A    
C13   C20   S    
Cr1   O18   S    
C53   H13   S    
C76   H32   S    
C93   O23   A    
C50   C55   A    
C92   O26   A    
C17   H23   S    
C90   C96   S    
C6    C7    A    
C48   N10   A    
C31   N16   A    
C65   C72   A    
Cr4   O11   S    
C4    C64   S    
C51   H11   S    
C82   C90   A    
C66   H20   S    
H43   N8    S    
C32   C33   A    
C96   O10   A    
C19   C20   A    
C2    C3    T    
C58   C59   A    
C16   O16   A    
C23   H9    S    
C36   H5    S    
C63   H15   S    
C16   O1    A    
C57   C58   A    
C27   H3    S    
C92   O2    A    
C88   N8    S    
C38   C93   S    
C93   O3    A    
Cr4   O6    S    
Cr3   O20   S    
C73   C80   A    
C51   C55   A    
C10   H34   S    
C69   C70   S    
C65   H14   S    
C5    C92   S    
C10   C11   A    
C81   H25   S    
C79   C80   A    
C39   C40   S    
C31   N2    A    
C26   C31   S    
C40   O20   A    
C77   C87   S    
C49   C50   A    
C41   H6    S    
C33   C38   A    
H44   N8    S    
Cr4   O23   S    
Cr6   O11   S    
C14   N13   A    
C15   C17   A    
C94   O7    A    
C15   H45   S    
C81   C85   A    
Cr2   O12   S    
C4    O14   A    
C94   O6    A    
Cr1   O1    S    
C47   N4    A    
