data_mof_unit_4722.cif
_audit_creation_date              2012-12-10T18:54:27-0500
_audit_creation_method            fapswitch 2.2
_symmetry_space_group_name_H-M    P1
_symmetry_Int_Tables_number       1
_space_group_crystal_system       triclinic
_cell_length_a                    10.70718
_cell_length_b                    9.801654
_cell_length_c                    23.015401
_cell_angle_alpha                 89.987057
_cell_angle_beta                  91.319884
_cell_angle_gamma                 90.004992
_cell_volume                      2414.7810599

loop_
_atom_site_label
_atom_site_type_symbol
_atom_type_description
_atom_site_fract_x
_atom_site_fract_y
_atom_site_fract_z
_atom_type_partial_charge
C1    C     C_R   0.259750 0.499999 0.500111 0.847494
C2    C     C_R   0.614982 0.605689 0.696069 0.397154
C3    C     C_R   0.398299 0.635305 0.242177 -0.274519
C4    C     C_R   0.622175 0.628499 0.755355 -0.270964
C5    C     C_R   0.448979 0.538097 0.205555 0.053396
C6    C     C_R   0.559174 0.543815 0.793282 0.056264
C7    C     C_R   0.064108 0.376032 0.504748 -0.191188
C8    C     C_R   0.935850 0.623683 0.493918 -0.220721
C9    C     C_R   0.936327 0.375983 0.504461 -0.195515
C10   C     C_R   0.063595 0.623848 0.494718 -0.223618
C11   C     C_R   0.872584 0.499833 0.499088 -0.004677
C12   C     C_R   0.740220 0.499961 0.499490 0.847271
C13   C     C_R   0.127369 0.499988 0.499915 -0.000398
C14   C     C_R   0.601673 0.071977 0.520430 -0.081097
C15   C     C_R   0.398319 0.928011 0.479656 -0.058246
C16   C     C_R   0.398181 0.072011 0.479791 -0.079176
C17   C     C_R   0.601480 0.927923 0.520669 -0.054454
C18   C     C_R   0.492632 0.500170 0.388712 0.970534
C19   C     C_R   0.506540 0.500181 0.611191 0.989672
C20   C     C_R   0.651287 0.595501 0.887788 0.512377
C21   C     C_R   0.364290 0.599479 0.110880 0.516798
C22   C     C_R   0.430701 0.616077 0.871955 0.598719
C23   C     C_R   0.494582 0.412673 0.228237 0.418733
C24   C     C_R   0.585509 0.587514 0.126668 0.583477
C25   C     C_R   0.412527 0.638050 0.931400 -0.167126
C26   C     C_R   0.606212 0.615901 0.067881 -0.168425
C27   C     C_R   0.517593 0.630846 0.969470 -0.080131
C28   C     C_R   0.501351 0.627201 0.029883 -0.083907
C29   C     C_R   0.638480 0.618691 0.947261 -0.069529
C30   C     C_R   0.379823 0.626514 0.051907 -0.070079
C31   C     C_R   0.292450 0.658655 0.954461 0.501893
C32   C     C_R   0.727814 0.627305 0.045273 0.503025
C33   C     C_R   0.276739 0.647169 0.014271 -0.240505
C34   C     C_R   0.495214 0.426381 0.772266 0.414309
C35   C     C_R   0.742821 0.622800 0.985204 -0.239188
C36   C     C_3   0.180445 0.813421 0.899857 0.164510
C37   C     C_3   0.100146 0.897837 0.940527 -0.441079
C38   C     C_3   0.079262 0.042070 0.917406 -0.895001
C39   C     C_3   0.847815 0.761731 0.106070 0.181448
C40   C     C_3   0.923203 0.855227 0.066890 -0.444161
C41   C     C_3   0.950561 0.992165 0.096006 -0.898181
C42   C     C_3   0.456950 0.255745 0.155541 0.071022
C43   C     C_3   0.512152 0.128093 0.127674 -0.322344
C44   C     C_3   0.417526 0.057490 0.087120 -0.968288
C45   C     C_R   0.503707 0.395927 0.289125 0.354586
C46   C     C_3   0.512654 0.266651 0.844838 0.058780
C47   C     C_3   0.437867 0.163990 0.880035 -0.322585
C48   C     C_3   0.522937 0.072814 0.917400 -0.973618
C49   C     C_3   0.482148 0.162963 0.305445 0.162426
C50   C     C_3   0.344553 0.181566 0.322696 -0.465604
C51   C     C_3   0.275242 0.045748 0.322203 -0.912113
C52   C     C_3   0.442779 0.174436 0.699484 0.160084
C53   C     C_3   0.578542 0.147037 0.681811 -0.490272
C54   C     C_3   0.610830 0.996184 0.687704 -0.854039
C55   C     C_3   0.230525 0.666234 0.355840 0.108247
C56   C     C_R   0.480707 0.407592 0.711582 0.347271
C57   C     C_3   0.126518 0.683816 0.309435 -0.396180
C58   C     C_3   0.998702 0.651184 0.333981 -0.884166
C59   C     C_3   0.787755 0.632375 0.640455 0.099011
C60   C     C_3   0.895076 0.647414 0.685296 -0.389175
C61   C     C_3   0.018543 0.598956 0.660597 -0.872823
C62   C     C_R   0.466293 0.503337 0.325702 -0.356737
C63   C     C_R   0.534401 0.503233 0.673826 -0.346949
C64   C     C_R   0.401031 0.616059 0.301693 0.407406
H1    H     H_    0.182991 0.651424 0.030829 0.201235
H2    H     H_    0.147048 0.904158 0.983995 0.221663
H3    H     H_    0.169888 0.095862 0.913594 0.263773
H4    H     H_    0.020182 0.099847 0.947868 0.274724
H5    H     H_    0.031041 0.039001 0.874173 0.266464
H6    H     H_    0.899980 0.748981 0.148021 0.195610
H7    H     H_    0.757158 0.811154 0.116606 0.111207
H8    H     H_    0.012857 0.804619 0.056883 0.242146
H9    H     H_    0.869829 0.873613 0.025681 0.217485
H10   H     H_    0.861937 0.045372 0.105912 0.269807
H11   H     H_    0.005150 0.057268 0.066338 0.273136
H12   H     H_    0.836679 0.620120 0.968594 0.209609
H13   H     H_    0.006055 0.976998 0.136878 0.265116
H14   H     H_    0.428946 0.326827 0.120085 0.163151
H15   H     H_    0.372314 0.225864 0.179914 0.123243
H16   H     H_    0.595378 0.157189 0.102445 0.236962
H17   H     H_    0.542627 0.055126 0.162134 0.215285
H18   H     H_    0.334284 0.025192 0.111573 0.270582
H19   H     H_    0.460797 0.965510 0.067826 0.264605
H20   H     H_    0.387808 0.127325 0.051369 0.274852
H21   H     H_    0.565513 0.332619 0.875890 0.161537
H22   H     H_    0.580343 0.210039 0.817747 0.124956
H23   H     H_    0.682841 0.126499 0.536877 0.118199
H24   H     H_    0.373577 0.220249 0.908742 0.235545
H25   H     H_    0.380963 0.098841 0.850070 0.215663
H26   H     H_    0.586581 0.013407 0.889562 0.267255
H27   H     H_    0.465306 0.000197 0.942380 0.262071
H28   H     H_    0.579132 0.135436 0.948584 0.277048
H29   H     H_    0.523519 0.081027 0.333152 0.178678
H30   H     H_    0.487433 0.125254 0.260276 0.151339
H31   H     H_    0.340107 0.226455 0.366798 0.245472
H32   H     H_    0.295794 0.251396 0.291624 0.203175
H33   H     H_    0.279500 0.997554 0.278603 0.269460
H34   H     H_    0.317035 0.873582 0.463449 0.118869
H35   H     H_    0.175831 0.062667 0.332869 0.259581
H36   H     H_    0.317350 0.976219 0.355229 0.292631
H37   H     H_    0.381086 0.105327 0.673514 0.164096
H38   H     H_    0.428363 0.145454 0.745261 0.160788
H39   H     H_    0.591202 0.178456 0.636099 0.255387
H40   H     H_    0.644712 0.206211 0.709866 0.201469
H41   H     H_    0.600532 0.962295 0.733410 0.255571
H42   H     H_    0.709014 0.979377 0.674918 0.272675
H43   H     H_    0.548480 0.934304 0.658854 0.292177
H44   H     H_    0.206325 0.728619 0.394134 0.160043
H45   H     H_    0.316604 0.126457 0.463809 0.124471
H46   H     H_    0.234756 0.558175 0.370979 0.103451
H47   H     H_    0.126256 0.790523 0.293156 0.235652
H48   H     H_    0.143413 0.614362 0.272299 0.242782
H49   H     H_    0.997159 0.545326 0.351238 0.273263
H50   H     H_    0.925887 0.660704 0.299074 0.280012
H51   H     H_    0.976516 0.723645 0.369374 0.257191
H52   H     H_    0.814436 0.686746 0.600342 0.169878
H53   H     H_    0.774319 0.522995 0.628403 0.102537
H54   H     H_    0.904198 0.756195 0.698369 0.231340
H55   H     H_    0.874854 0.585946 0.724531 0.244840
H56   H     H_    0.682336 0.873336 0.537437 0.132288
H57   H     H_    0.010988 0.490931 0.646318 0.269296
H58   H     H_    0.093631 0.606826 0.694523 0.286388
H59   H     H_    0.044429 0.663386 0.623050 0.260244
H60   H     H_    0.360120 0.729249 0.224394 0.193966
H61   H     H_    0.672831 0.716569 0.771842 0.196030
H62   H     H_    0.112860 0.279548 0.509026 0.153945
H63   H     H_    0.887114 0.720158 0.489577 0.152052
H64   H     H_    0.887985 0.279498 0.508685 0.150841
H65   H     H_    0.111841 0.720525 0.491197 0.145310
H66   H     H_    0.135019 0.813102 0.855959 0.193583
H67   H     H_    0.273644 0.862756 0.894852 0.109965
H68   H     H_    0.008167 0.846936 0.944893 0.243082
N1    N     N_R   0.547342 0.586948 0.852299 -0.326655
N2    N     N_R   0.466328 0.574734 0.146159 -0.326409
N3    N     N_R   0.500000 0.857200 0.500000 -0.075759
N4    N     N_R   0.500000 0.142800 0.500000 -0.074782
O1    O     O_R   0.316770 0.614620 0.500000 -0.643297
O2    O     O_2   0.248285 0.592760 0.132464 -0.574111
O3    O     O_2   0.332737 0.618673 0.834029 -0.507318
O4    O     O_2   0.682990 0.569091 0.164044 -0.504624
O5    O     O_3   0.187276 0.676214 0.919173 -0.592280
O6    O     O_3   0.833999 0.630510 0.080756 -0.594403
O7    O     O_3   0.548742 0.316035 0.192642 -0.596612
O8    O     O_3   0.428828 0.344361 0.809715 -0.599884
O9    O     O_3   0.558098 0.280577 0.313821 -0.595079
O10   O     O_3   0.400792 0.309351 0.688059 -0.603247
O11   O     O_3   0.346727 0.714478 0.335966 -0.630848
O12   O     O_R   0.683230 0.385380 0.500000 -0.632907
O13   O     O_3   0.677155 0.694486 0.660048 -0.634023
O14   O     O_R   0.683230 0.614620 0.500000 -0.640637
O15   O     O_R   0.316770 0.385380 0.500000 -0.636352
O16   O     O_R   0.499970 0.614690 0.416160 -0.573710
O17   O     O_R   0.500030 0.385310 0.583840 -0.603216
O18   O     O_R   0.500030 0.614690 0.583840 -0.578670
O19   O     O_R   0.499970 0.385310 0.416160 -0.587262
O20   O     O_2   0.765755 0.575233 0.866002 -0.568345
Zn1   Zn    Zn3+2 0.500000 0.653120 0.500000 0.969642
Zn2   Zn    Zn3+2 0.500000 0.346880 0.500000 0.954916

loop_
_geom_bond_atom_site_label_1
_geom_bond_atom_site_label_2
_ccdc_geom_bond_type
C25   C31   A    
C51   H33   S    
C23   C45   A    
O14   Zn1   S    
C27   C29   A    
C43   C44   S    
C44   H19   S    
C33   H1    S    
C53   C54   S    
C24   O4    S    
C34   C56   A    
C34   O8    S    
C4    H61   S    
N3    Zn1   S    
C36   C37   S    
C24   C26   A    
C14   H23   S    
C6    N1    S    
C44   H18   S    
C41   H13   S    
C50   H31   S    
C57   H48   S    
C15   N3    A    
C53   H40   S    
C15   C16   A    
C45   C62   A    
C40   H9    S    
C60   H55   S    
C61   H57   S    
O17   Zn2   S    
C62   C64   A    
C17   H56   S    
C41   H10   S    
C46   C47   S    
C19   C63   S    
C59   H52   S    
C48   H27   S    
C17   N3    A    
C58   H49   S    
C31   C33   A    
C60   H54   S    
C49   H30   S    
C40   H8    S    
C32   O6    S    
C54   H41   S    
C46   H21   S    
N4    Zn2   S    
C2    O13   S    
C38   H5    S    
C42   H15   S    
C59   H53   S    
C48   H26   S    
O19   Zn2   S    
C47   H25   S    
C14   C17   A    
C23   O7    S    
C21   O2    S    
C18   O16   A    
C16   H45   S    
C20   C29   A    
C59   O13   S    
C51   H35   S    
C5    N2    S    
C35   H12   S    
C52   H37   S    
C9    H64   S    
C54   H42   S    
C22   N1    A    
C32   C35   A    
C12   O14   A    
O18   Zn1   S    
C4    C6    A    
C36   H67   S    
C39   C40   S    
C26   C32   A    
C18   C62   S    
C46   O8    S    
C3    C5    A    
C43   H16   S    
C3    C64   A    
C22   O3    S    
C22   C25   A    
C6    C34   A    
C61   H58   S    
C31   O5    S    
C2    C4    A    
C36   O5    S    
O15   Zn2   S    
C37   C38   S    
C36   H66   S    
C41   H11   S    
C8    H63   S    
C55   O11   S    
C47   C48   S    
C5    C23   A    
C39   O6    S    
C7    C13   A    
C52   H38   S    
C37   H2    S    
C50   C51   S    
C56   C63   A    
C49   O9    S    
O12   Zn2   S    
C52   C53   S    
C9    C11   A    
C54   H43   S    
C40   C41   S    
C38   H4    S    
C42   H14   S    
C55   C57   S    
C64   O11   S    
C58   H51   S    
C19   O17   A    
C45   O9    S    
C1    C13   S    
C42   C43   S    
C15   H34   S    
C16   N4    A    
C21   N2    A    
C42   O7    S    
C1    O1    A    
C3    H60   S    
C24   N2    A    
C51   H36   S    
C7    C9    A    
O16   Zn1   S    
C52   O10   S    
C20   O20   S    
C30   C33   A    
C20   N1    A    
C44   H20   S    
C10   C13   A    
C11   C12   S    
C25   C27   A    
C21   C30   A    
C29   C35   A    
C26   C28   A    
C37   H68   S    
O1    Zn1   S    
C55   H44   S    
C61   H59   S    
C47   H24   S    
C12   O12   A    
C28   C30   A    
C2    C63   A    
C55   H46   S    
C50   H32   S    
C57   C58   S    
C57   H47   S    
C14   N4    A    
C53   H39   S    
C8    C11   A    
C43   H17   S    
C39   H6    S    
C1    O15   A    
C7    H62   S    
C56   O10   S    
C10   H65   S    
C59   C60   S    
C38   H3    S    
C8    C10   A    
C49   C50   S    
C48   H28   S    
C27   C28   A    
C58   H50   S    
C19   O18   A    
C39   H7    S    
C60   C61   S    
C49   H29   S    
C18   O19   A    
C46   H22   S    
