data_mof_unit_2640.cif
_audit_creation_date              2012-10-26T19:15:19-0400
_audit_creation_method            fapswitch 2.2
_symmetry_space_group_name_H-M    P1
_symmetry_Int_Tables_number       1
_space_group_crystal_system       triclinic
_cell_length_a                    15.963553
_cell_length_b                    10.830727
_cell_length_c                    9.599783
_cell_angle_alpha                 90.097412
_cell_angle_beta                  91.016553
_cell_angle_gamma                 91.947694
_cell_volume                      1658.54818956

loop_
_atom_site_label
_atom_site_type_symbol
_atom_type_description
_atom_site_fract_x
_atom_site_fract_y
_atom_site_fract_z
_atom_type_partial_charge
C1    C     C_R   0.501898 0.262703 0.499762 0.541205
C2    C     C_R   0.514699 0.936331 0.374119 -0.165471
C3    C     C_R   0.506138 0.871385 0.500118 -0.001178
C4    C     C_R   0.341369 0.499827 0.498935 0.543206
C5    C     C_R   0.509165 0.937571 0.625259 -0.047310
C6    C     C_3   0.450886 0.932090 0.746517 -0.244775
C7    C     C_3   0.455676 0.072995 0.745627 0.158220
C8    C     C_R   0.565238 0.554018 0.075451 0.137387
C9    C     C_R   0.440913 0.431329 0.069859 0.117742
C10   C     C_R   0.439642 0.437888 0.921643 0.051204
C11   C     C_R   0.567180 0.548835 0.928834 0.126897
C12   C     C_R   0.046309 0.523465 0.623423 -0.109751
C13   C     C_3   0.605685 0.676066 0.916839 -0.107128
C14   C     C_3   0.594595 0.687319 0.075845 -0.118028
C15   C     C_R   0.500156 0.737626 0.500103 0.541941
C16   C     C_R   0.658606 0.500592 0.501056 0.537081
C17   C     C_R   0.958911 0.524036 0.625042 -0.111866
C18   C     C_R   0.912643 0.504365 0.501338 0.038582
C19   C     C_R   0.953663 0.484619 0.375955 -0.109997
C20   C     C_R   0.041048 0.484066 0.374333 -0.110359
C21   C     C_R   0.087338 0.503285 0.498109 0.038323
C22   C     C_3   0.567663 0.085241 0.917232 -0.005183
C23   C     C_1   0.823053 0.503447 0.502946 -0.073417
C24   C     C_3   0.619157 0.187326 0.991031 -0.368344
C25   C     C_3   0.371628 0.351156 0.134184 -0.266002
C26   C     C_3   0.364398 0.219672 0.075795 -0.451676
C27   C     C_3   0.695812 0.673123 0.857690 -0.266018
C28   C     C_3   0.708990 0.770415 0.744512 -0.438323
C29   C     C_3   0.671458 0.715855 0.171395 -0.262090
C30   C     C_3   0.704291 0.849436 0.155983 -0.466744
C31   C     C_1   0.176924 0.501860 0.496820 -0.069175
C32   C     C_1   0.252095 0.500747 0.496905 -0.040749
C33   C     C_1   0.747868 0.502159 0.502994 -0.050071
C34   C     C_R   0.512146 0.065203 0.623942 0.041104
C35   C     C_R   0.510109 0.130136 0.499080 -0.013624
C36   C     C_R   0.517223 0.064987 0.373592 -0.171859
Cu1   Cu    Cu3+1 0.500000 0.499980 0.640670 0.938938
Cu2   Cu    Cu3+1 0.500000 0.500020 0.359330 0.906555
H1    H     H_    0.081817 0.538428 0.719569 0.105091
H2    H     H_    0.387715 0.893474 0.716242 0.108669
H3    H     H_    0.477553 0.889282 0.840877 0.116064
H4    H     H_    0.394677 0.113332 0.716396 0.114593
H5    H     H_    0.607669 0.045725 0.836077 0.133875
H6    H     H_    0.551756 0.012698 0.995031 0.116270
H7    H     H_    0.582067 0.229228 0.074516 0.162605
H8    H     H_    0.676627 0.148801 0.038257 0.088766
H9    H     H_    0.637536 0.260366 0.915297 0.167099
H10   H     H_    0.345914 0.218148 0.963996 0.162765
H11   H     H_    0.424405 0.172899 0.091943 0.195329
H12   H     H_    0.389731 0.392444 0.861502 0.132619
H13   H     H_    0.315258 0.166283 0.132749 0.125779
H14   H     H_    0.381246 0.336382 0.245080 0.220869
H15   H     H_    0.310755 0.396369 0.118299 0.121364
H16   H     H_    0.664667 0.752918 0.655845 0.174147
H17   H     H_    0.699390 0.864144 0.787065 0.131560
H18   H     H_    0.773889 0.766767 0.705273 0.135015
H19   H     H_    0.745779 0.688408 0.937183 0.141182
H20   H     H_    0.708091 0.581263 0.812580 0.171100
H21   H     H_    0.723273 0.870172 0.047914 0.155214
H22   H     H_    0.655418 0.914630 0.185086 0.142231
H23   H     H_    0.563883 0.736983 0.857809 0.151166
H24   H     H_    0.759542 0.865658 0.226309 0.142995
H25   H     H_    0.651968 0.705493 0.280962 0.190391
H26   H     H_    0.722073 0.649705 0.155528 0.141865
H27   H     H_    0.541838 0.747729 0.100269 0.120518
H28   H     H_    0.927474 0.539418 0.722373 0.100480
H29   H     H_    0.918137 0.469378 0.279866 0.102795
H30   H     H_    0.072440 0.468438 0.277029 0.103751
H31   H     H_    0.520487 0.112558 0.274813 0.130275
H32   H     H_    0.515505 0.888431 0.275458 0.126233
N1    N     N_R   0.500520 0.500930 0.147930 -0.240065
N2    N     N_R   0.500520 0.500890 0.852020 -0.251412
O1    O     O_R   0.500000 0.319640 0.618810 -0.466333
O2    O     O_R   0.500010 0.319680 0.381230 -0.527004
O3    O     O_R   0.380300 0.499950 0.618760 -0.504916
O4    O     O_R   0.380310 0.499990 0.381180 -0.515939
O5    O     O_R   0.499990 0.680320 0.618770 -0.505591
O6    O     O_R   0.500000 0.680360 0.381190 -0.510388
O7    O     O_R   0.619690 0.500010 0.618820 -0.498633
O8    O     O_R   0.619700 0.500050 0.381240 -0.503934
O9    O     O_3   0.492943 0.135511 0.863306 -0.557708

loop_
_geom_bond_atom_site_label_1
_geom_bond_atom_site_label_2
_ccdc_geom_bond_type
C29   H25   S    
C19   C20   A    
C28   H18   S    
C9    C25   S    
Cu2   O4    S    
C21   C31   S    
C17   H28   S    
C29   C30   S    
C24   H7    S    
C25   H15   S    
C18   C19   A    
C5    C6    S    
C15   O6    A    
C34   C35   A    
C7    H4    S    
C4    O3    A    
C22   H6    S    
C22   H5    S    
C23   C33   T    
C6    H3    S    
C30   H22   S    
C12   C17   A    
C19   H29   S    
C9    C10   A    
C26   H10   S    
Cu1   O3    S    
C29   H26   S    
C13   C14   S    
C5    C34   A    
C28   H17   S    
C18   C23   S    
C22   O9    S    
C27   H19   S    
C26   H11   S    
C28   H16   S    
C11   N2    A    
Cu2   O6    S    
C25   C26   S    
Cu1   O5    S    
C12   C21   A    
C16   O8    A    
C35   C36   A    
Cu1   Cu2   S    
C16   C33   S    
Cu1   O7    S    
C31   C32   T    
C30   H21   S    
C17   C18   A    
C4    C32   S    
C7    O9    S    
C30   H24   S    
C7    C34   S    
C22   C24   S    
C1    O2    A    
C14   C29   S    
C10   H12   S    
C3    C15   S    
C36   H31   S    
C1    C35   S    
Cu2   O2    S    
C2    C36   A    
Cu1   O1    S    
Cu2   N1    S    
C8    N1    A    
C8    C14   S    
C24   H9    S    
C20   H30   S    
C9    N1    A    
C3    C5    A    
C27   H20   S    
C6    C7    S    
C16   O7    A    
C24   H8    S    
C12   H1    S    
C2    C3    A    
C25   H14   S    
C1    O1    A    
C26   H13   S    
C11   C13   S    
C15   O5    A    
Cu2   O8    S    
C8    C11   A    
C14   H27   S    
C6    H2    S    
C4    O4    A    
C13   H23   S    
C20   C21   A    
Cu1   N2    S    
C27   C28   S    
C13   C27   S    
C2    H32   S    
C10   N2    A    
