data_mof_unit_4326.cif
_audit_creation_date              2012-12-10T19:09:37-0500
_audit_creation_method            fapswitch 2.2
_symmetry_space_group_name_H-M    P1
_symmetry_Int_Tables_number       1
_space_group_crystal_system       triclinic
_cell_length_a                    9.540593
_cell_length_b                    10.846258
_cell_length_c                    17.023691
_cell_angle_alpha                 88.915966
_cell_angle_beta                  92.840883
_cell_angle_gamma                 90.342402
_cell_volume                      1759.1047432

loop_
_atom_site_label
_atom_site_type_symbol
_atom_type_description
_atom_site_fract_x
_atom_site_fract_y
_atom_site_fract_z
_atom_type_partial_charge
C1    C     C_R   0.499802 0.262539 0.501894 0.804882
C2    C     C_R   0.640101 0.444483 0.779543 -0.218133
C3    C     C_R   0.600972 0.552358 0.140586 0.160592
C4    C     C_R   0.602190 0.535139 0.222452 -0.283198
C5    C     C_R   0.470134 0.540673 0.097160 0.376185
C6    C     C_R   0.477760 0.515434 0.262016 -0.054924
C7    C     C_R   0.348918 0.511804 0.218391 -0.224156
C8    C     C_R   0.345619 0.524667 0.136770 -0.234063
C9    C     C_R   0.623845 0.063109 0.507481 0.123791
C10   C     C_R   0.500134 0.129877 0.510846 -0.104444
C11   C     C_R   0.376159 0.063313 0.525205 -0.216883
C12   C     C_R   0.516019 0.496567 0.650970 0.790966
C13   C     C_R   0.376596 0.933780 0.524927 -0.217284
C14   C     C_R   0.500774 0.869888 0.509860 -0.105387
C15   C     C_R   0.623820 0.938946 0.506141 0.134655
C16   C     C_3   0.760652 0.933341 0.465566 -0.472786
C17   C     C_3   0.761377 0.075186 0.467819 -0.454456
C18   C     C_R   0.071716 0.596762 0.467181 0.258150
C19   C     C_R   0.077321 0.411362 0.539550 -0.082806
C20   C     C_R   0.928439 0.411484 0.539707 -0.082381
C21   C     C_R   0.924012 0.595964 0.466334 0.262897
C22   C     C_3   0.914185 0.633841 0.381679 -0.522353
C23   C     C_R   0.500286 0.737508 0.501255 0.804649
C24   C     C_3   0.072645 0.639153 0.383650 -0.500862
C25   C     C_R   0.483800 0.503915 0.348698 0.809439
C26   C     C_R   0.520552 0.488957 0.737100 -0.023929
C27   C     C_R   0.401578 0.521637 0.777177 -0.234119
C28   C     C_R   0.402923 0.512226 0.858732 -0.159738
C29   C     C_R   0.523741 0.469360 0.901526 0.372040
C30   C     C_R   0.640740 0.433572 0.861408 -0.211839
Cu1   Cu    Cu3+1 0.640670 0.499980 0.500000 0.940504
Cu2   Cu    Cu3+1 0.359330 0.500020 0.500000 0.938088
H1    H     H_    0.701764 0.537384 0.255466 0.147532
H2    H     H_    0.278991 0.884509 0.532859 0.162399
H3    H     H_    0.846482 0.889305 0.503667 0.196181
H4    H     H_    0.746085 0.898850 0.403944 0.188963
H5    H     H_    0.846924 0.113695 0.507986 0.188093
H6    H     H_    0.749555 0.119154 0.407613 0.200483
H7    H     H_    0.135301 0.338286 0.570360 0.134258
H8    H     H_    0.874955 0.338694 0.570776 0.134813
H9    H     H_    0.872293 0.558386 0.344352 0.207115
H10   H     H_    0.864211 0.724931 0.371057 0.192319
H11   H     H_    0.117651 0.570298 0.344955 0.214458
H12   H     H_    0.115259 0.734312 0.377750 0.195765
H13   H     H_    0.733933 0.400075 0.893833 0.137999
H14   H     H_    0.732223 0.416823 0.749667 0.152745
H15   H     H_    0.250873 0.497018 0.246799 0.152722
H16   H     H_    0.309918 0.538561 0.888277 0.146942
H17   H     H_    0.245410 0.519016 0.103787 0.146492
H18   H     H_    0.307626 0.555350 0.745605 0.158980
H19   H     H_    0.278302 0.110695 0.533099 0.158035
N1    N     N_2   0.531915 0.464306 0.984824 -0.249953
N2    N     N_2   0.459190 0.544740 0.014521 -0.265314
N3    N     N_R   0.147870 0.500930 0.499500 -0.184042
N4    N     N_R   0.851960 0.500890 0.499500 -0.183364
O1    O     O_R   0.618810 0.319640 0.500000 -0.583602
O2    O     O_R   0.381230 0.319680 0.499990 -0.587043
O3    O     O_R   0.631790 0.498830 0.613930 -0.583548
O4    O     O_R   0.394210 0.498870 0.613920 -0.585517
O5    O     O_R   0.618770 0.680320 0.500010 -0.576518
O6    O     O_R   0.381190 0.680360 0.500000 -0.586570
O7    O     O_R   0.605790 0.501130 0.386080 -0.581884
O8    O     O_R   0.368210 0.501170 0.386070 -0.582718
C31   C     C_3   0.742398 0.579199 0.104817 -0.388505
C32   C     C_3   0.739659 0.669547 0.034186 -0.768887
H20   H     H_    0.734057 0.618240 0.978115 0.255748
H21   H     H_    0.650613 0.735510 0.035583 0.254751
H22   H     H_    0.839032 0.723582 0.034582 0.221286
H23   H     H_    0.814024 0.622265 0.150853 0.187966
H24   H     H_    0.792902 0.490941 0.088849 0.198324

loop_
_geom_bond_atom_site_label_1
_geom_bond_atom_site_label_2
_ccdc_geom_bond_type
Cu1   O5    S    
C14   C23   S    
C5    C8    A    
C29   C30   A    
C31   H24   S    
Cu1   O1    S    
C18   C21   A    
C9    C10   A    
C30   H13   S    
Cu1   Cu2   S    
C27   H18   S    
C23   O6    A    
C2    C30   A    
C32   H22   S    
C12   O3    A    
C31   C32   S    
C19   C20   A    
C9    C15   A    
C13   H2    S    
C2    C26   A    
C17   H5    S    
C13   C14   A    
C16   H4    S    
C11   C13   A    
Cu1   O7    S    
C9    C17   S    
C26   C27   A    
C22   H10   S    
C19   H7    S    
Cu2   O2    S    
C20   N4    A    
C18   C24   S    
C12   C26   S    
C19   N3    A    
Cu2   N3    S    
C28   C29   A    
C1    O1    A    
Cu2   O6    S    
C6    C7    A    
C1    O2    A    
C25   O7    A    
C16   H3    S    
C3    C31   S    
C23   O5    A    
C24   H12   S    
C22   C24   S    
C6    C25   S    
C11   H19   S    
C10   C11   A    
C18   N3    A    
C3    C4    A    
C22   H9    S    
C3    C5    A    
C7    C8    A    
C17   H6    S    
Cu1   O3    S    
C4    C6    A    
C32   H20   S    
C25   O8    A    
C5    N2    S    
C27   C28   A    
C21   N4    A    
C24   H11   S    
C14   C15   A    
C28   H16   S    
C4    H1    S    
Cu2   O4    S    
Cu1   N4    S    
C21   C22   S    
C31   H23   S    
C12   O4    A    
C20   H8    S    
C8    H17   S    
C2    H14   S    
C1    C10   S    
C15   C16   S    
Cu2   O8    S    
N1    N2    D    
C16   C17   S    
C32   H21   S    
C29   N1    S    
C7    H15   S    
