data_mof_unit_2574.cif
_audit_creation_date              2013-03-05T16:48:45-0500
_audit_creation_method            fapswitch 2.2
_symmetry_space_group_name_H-M    P1
_symmetry_Int_Tables_number       1
_space_group_crystal_system       triclinic
_cell_length_a                    27.517823
_cell_length_b                    8.933794
_cell_length_c                    8.092934
_cell_angle_alpha                 90.067478
_cell_angle_beta                  90.901424
_cell_angle_gamma                 88.153173
_cell_volume                      1988.27524881

loop_
_atom_site_label
_atom_site_type_symbol
_atom_site_description
_atom_site_fract_x
_atom_site_fract_y
_atom_site_fract_z
_atom_type_partial_charge
O1    O     O_R   0.500000 0.285350 0.636850 -0.619724
O2    O     O_R   0.500000 0.714650 0.363150 -0.627790
O3    O     O_R   0.500000 0.714650 0.636850 -0.576887
O4    O     O_R   0.500000 0.285350 0.363150 -0.597585
C1    C     C_R   0.500162 0.217921 0.499943 0.943677
C2    C     C_R   0.500152 0.782049 0.500050 0.987245
O5    O     O_R   0.428760 0.500000 0.636860 -0.593652
O6    O     O_R   0.571240 0.500000 0.363140 -0.580354
O7    O     O_R   0.571240 0.500000 0.636860 -0.594450
O8    O     O_R   0.428760 0.500000 0.363140 -0.575858
C3    C     C_R   0.405543 0.504474 0.498813 0.949173
C4    C     C_R   0.594553 0.499911 0.501820 0.962859
Zn1   Zn    Zn3+2 0.500000 0.500000 0.682780 1.122282
Zn2   Zn    Zn3+2 0.500000 0.500000 0.317220 1.123232
C5    C     C_R   0.182668 0.398140 0.629562 0.560392
C6    C     C_R   0.822199 0.619497 0.605099 0.527335
C7    C     C_R   0.172515 0.655840 0.553492 0.522288
C8    C     C_R   0.828502 0.354421 0.568226 0.539071
O9    O     O_2   0.212929 0.277870 0.652996 -0.465674
O10   O     O_2   0.795325 0.748032 0.589782 -0.475641
O11   O     O_2   0.192506 0.781442 0.496802 -0.477191
O12   O     O_2   0.806410 0.224060 0.539815 -0.480998
N1    N     N_R   0.200941 0.528752 0.573573 -0.349990
N2    N     N_R   0.801358 0.485498 0.572221 -0.342630
C9    C     C_R   0.280982 0.623159 0.640216 -0.136693
C10   C     C_R   0.727851 0.424125 0.410338 -0.147176
C11   C     C_R   0.272388 0.444395 0.417550 -0.138415
C12   C     C_R   0.720418 0.551065 0.673250 -0.135991
C13   C     C_R   0.331071 0.622753 0.618515 0.272465
C14   C     C_R   0.677141 0.426283 0.391117 0.267538
C15   C     C_R   0.322587 0.439831 0.394493 0.257725
C16   C     C_R   0.670463 0.567869 0.650227 0.278936
C17   C     C_R   0.251819 0.533540 0.541798 0.165841
C18   C     C_R   0.749442 0.483989 0.552327 0.159781
C19   C     C_R   0.102985 0.519972 0.644363 -0.185721
C20   C     C_R   0.900294 0.491515 0.642590 -0.182630
C21   C     C_R   0.132895 0.389289 0.662732 -0.133304
C22   C     C_R   0.871303 0.624282 0.651558 -0.152469
C23   C     C_R   0.122923 0.655585 0.591738 -0.135845
C24   C     C_R   0.879097 0.355276 0.597223 -0.142517
C25   C     C_R   0.112270 0.254245 0.713139 0.539556
C26   C     C_R   0.892347 0.758146 0.705276 0.544811
C27   C     C_R   0.092417 0.785037 0.575262 0.520777
C28   C     C_R   0.909219 0.225649 0.579034 0.542338
C29   C     C_R   0.352511 0.525713 0.499255 -0.274506
C30   C     C_R   0.647945 0.500386 0.511172 -0.292689
H1    H     H_    0.249220 0.376515 0.340535 0.180871
H2    H     H_    0.737398 0.598633 0.782138 0.185517
H3    H     H_    0.264369 0.693553 0.734197 0.187008
H4    H     H_    0.750550 0.372125 0.316891 0.188574
C31   C     C_R   0.980265 0.364052 0.666939 0.020337
C32   C     C_R   0.023226 0.646222 0.668828 0.028535
C33   C     C_R   0.972649 0.637300 0.690342 0.009761
C34   C     C_R   0.031165 0.373014 0.689690 0.016068
C35   C     C_R   0.951022 0.497076 0.669953 0.070699
C36   C     C_R   0.052523 0.513419 0.670772 0.073891
C37   C     C_R   0.958483 0.229016 0.623300 -0.347677
C38   C     C_R   0.044409 0.781745 0.627215 -0.363303
C39   C     C_R   0.942668 0.764725 0.719671 -0.329205
C40   C     C_R   0.061583 0.246027 0.719850 -0.359472
H5    H     H_    0.979898 0.127006 0.606292 0.156686
H6    H     H_    0.023171 0.884954 0.617304 0.147441
H7    H     H_    0.957609 0.870917 0.754294 0.164225
H8    H     H_    0.046559 0.138811 0.747159 0.159472
C41   C     C_1   0.500208 0.065155 0.499907 -0.097803
C42   C     C_1   0.500214 0.934804 0.500069 -0.071179
N3    N     N_1   0.500000 0.500000 0.073640 0.024067
N4    N     N_1   0.500000 0.500000 0.926360 0.021365
N5    N     N_R   0.342508 0.342327 0.270210 0.213337
O13   O     O_R   0.329458 0.203744 0.263218 -0.330555
O14   O     O_R   0.364095 0.398979 0.143994 -0.326495
N6    N     N_R   0.643560 0.659913 0.765139 0.237259
O15   O     O_R   0.654918 0.656311 0.921830 -0.331126
O16   O     O_R   0.613754 0.765333 0.710634 -0.372017
N7    N     N_R   0.359508 0.723126 0.716390 0.236132
O17   O     O_R   0.392563 0.801660 0.647108 -0.383558
O18   O     O_R   0.347430 0.753722 0.867856 -0.328887
N8    N     N_R   0.656246 0.347474 0.253877 0.239282
O19   O     O_R   0.623216 0.249412 0.279305 -0.358601
O20   O     O_R   0.676715 0.351114 0.110131 -0.346484
O21   O     O_3   0.141123 0.125313 0.732283 -0.497930
C43   C     C_3   0.140123 0.076452 0.897825 0.109400
H9    H     H_    0.104912 0.024169 0.923503 0.114147
H10   H     H_    0.146240 0.170537 0.985696 0.125962
C44   C     C_3   0.180519 0.958643 0.926358 -0.647596
H11   H     H_    0.216301 0.005938 0.898336 0.294121
H12   H     H_    0.180829 0.921642 0.057299 0.198207
H13   H     H_    0.174598 0.860178 0.845636 0.243868
O22   O     O_3   0.864580 0.887266 0.731722 -0.503575
C45   C     C_3   0.849392 0.889066 0.897326 0.105763
H14   H     H_    0.881213 0.885857 0.983776 0.103687
H15   H     H_    0.826068 0.792386 0.923133 0.146422
C46   C     C_3   0.819849 0.032858 0.928517 -0.650771
H16   H     H_    0.787918 0.039894 0.842867 0.303287
H17   H     H_    0.806789 0.034525 0.057631 0.201944
H18   H     H_    0.842694 0.131375 0.908751 0.226882
O23   O     O_3   0.109355 0.917657 0.513756 -0.517918
C47   C     C_3   0.090788 0.940668 0.351305 0.146012
H19   H     H_    0.052111 0.909011 0.335575 0.098647
H20   H     H_    0.113186 0.874116 0.262755 0.150112
C48   C     C_3   0.093187 0.105777 0.307753 -0.804982
H21   H     H_    0.131350 0.142396 0.315487 0.278684
H22   H     H_    0.078517 0.125199 0.180998 0.172894
H23   H     H_    0.070493 0.173726 0.393392 0.254357
O24   O     O_3   0.891322 0.095684 0.512007 -0.512868
C49   C     C_3   0.906249 0.079723 0.345773 0.149716
H24   H     H_    0.933535 0.161690 0.305375 0.093477
H25   H     H_    0.873813 0.095388 0.263570 0.168671
C50   C     C_3   0.927909 0.922785 0.319720 -0.848164
H26   H     H_    0.900045 0.838065 0.341447 0.274770
H27   H     H_    0.941304 0.911022 0.191628 0.192636
H28   H     H_    0.959102 0.902469 0.405913 0.245031

loop_
_geom_bond_atom_site_label_1
_geom_bond_atom_site_label_2
_geom_bond_distance
_ccdc_geom_bond_type
C38   H6    1.078020 S    
C48   H21   1.110772 S    
N6    O16   1.301585 A    
O3    C2    1.261017 A    
O21   C43   1.410484 S    
C33   C39   1.406382 A    
C16   N6    1.438636 S    
C34   C40   1.407220 A    
C28   O24   1.382691 S    
C11   C17   1.397392 A    
C5    O9    1.349708 S    
C46   H16   1.110801 S    
C2    C42   1.364733 S    
O1    C1    1.260528 A    
C19   C21   1.413227 A    
C22   C26   1.410684 A    
C50   H27   1.109420 S    
N8    O20   1.301368 A    
C49   H24   1.118315 S    
O23   C47   1.415799 S    
C7    C23   1.404130 A    
N5    O14   1.300800 A    
O7    Zn1   2.001017 S    
C5    C21   1.404569 A    
C20   C24   1.412233 A    
C8    C24   1.408520 A    
C27   C38   1.393880 A    
C10   C18   1.398940 A    
N1    C17   1.429428 S    
Zn2   N3    1.971277 S    
C31   C37   1.406512 A    
O3    Zn1   1.953761 S    
C6    O10   1.350398 S    
C43   H10   1.115567 S    
C33   C35   1.412513 A    
C12   C18   1.395356 A    
C6    N2    1.368032 A    
C21   C25   1.413029 A    
O2    C2    1.260360 A    
O5    C3    1.278250 A    
C44   H12   1.110251 S    
C9    C13   1.392114 A    
C34   C36   1.411750 A    
C11   C15   1.396119 A    
N3    N4    1.191927 T    
C12   C16   1.387690 A    
C1    C41   1.364741 S    
O8    Zn2   2.001020 S    
C50   H28   1.108021 S    
N8    O19   1.301377 A    
N6    O15   1.301440 A    
C23   C27   1.412164 A    
C44   H11   1.110675 S    
C43   H9    1.111717 S    
N2    C18   1.435627 S    
C13   C29   1.419223 A    
C19   C23   1.414792 A    
N7    O17   1.300811 A    
C15   N5    1.433684 S    
C45   H15   1.114422 S    
O5    Zn1   1.989531 S    
C28   C37   1.397994 A    
O6    C4    1.283940 A    
C25   O21   1.385204 S    
C7    N1    1.366231 A    
N7    O18   1.301518 A    
C32   C38   1.404175 A    
C4    C30   1.470125 S    
C10   C14   1.401144 A    
C46   H18   1.111106 S    
C47   H20   1.111849 S    
C8    N2    1.369144 A    
C3    C29   1.465579 S    
O1    Zn1   1.952902 S    
C47   C48   1.520716 S    
C32   C33   1.410142 A    
C45   C46   1.520934 S    
C48   H22   1.108265 S    
C44   H13   1.109799 S    
C11   H1    1.083601 S    
C12   H2    1.083709 S    
O6    Zn2   1.989528 S    
C19   C36   1.411362 A    
C8    O12   1.348850 S    
C16   C30   1.419290 A    
C14   C30   1.420039 A    
C27   O23   1.383130 S    
C25   C40   1.400979 A    
O4    C1    1.260838 A    
C26   C39   1.390901 A    
C37   H5    1.079068 S    
C13   N7    1.438021 S    
C48   H23   1.107711 S    
C43   C44   1.521104 S    
O24   C49   1.418483 S    
C39   H7    1.080960 S    
C40   H8    1.079879 S    
C26   O22   1.381308 S    
C5    N1    1.366004 A    
C31   C34   1.414668 A    
C10   H4    1.083170 S    
C20   C35   1.412399 A    
C50   H26   1.110686 S    
C45   H14   1.111859 S    
C49   H25   1.110097 S    
C20   C22   1.410385 A    
C31   C35   1.413981 A    
C41   C42   1.164530 T    
O4    Zn2   1.953762 S    
N5    O13   1.301093 A    
O2    Zn2   1.952902 S    
O7    C4    1.275915 A    
C9    H3    1.083630 S    
O8    C3    1.278935 A    
C14   N8    1.436692 S    
C24   C28   1.411161 A    
C46   H17   1.110244 S    
C47   H19   1.115355 S    
C15   C29   1.415203 A    
C9    C17   1.392563 A    
O22   C45   1.410066 S    
Zn1   N4    1.971277 S    
C32   C36   1.412731 A    
C6    C22   1.398841 A    
C49   C50   1.521467 S    
C7    O11   1.349507 S    
