data_mof_unit_351.cif
_audit_creation_date              2013-03-05T16:05:52-0500
_audit_creation_method            fapswitch 2.2
_symmetry_space_group_name_H-M    P1
_symmetry_Int_Tables_number       1
_space_group_crystal_system       triclinic
_cell_length_a                    15.030808
_cell_length_b                    15.305028
_cell_length_c                    15.772669
_cell_angle_alpha                 90.275849
_cell_angle_beta                  104.625816
_cell_angle_gamma                 82.535262
_cell_volume                      3479.63946824

loop_
_atom_site_label
_atom_site_type_symbol
_atom_site_description
_atom_site_fract_x
_atom_site_fract_y
_atom_site_fract_z
_atom_type_partial_charge
O1    O     O_R   0.383120 0.605620 0.475300 -0.614765
O2    O     O_R   0.531890 0.639510 0.506740 -0.645276
C1    C     C_R   0.442316 0.662760 0.490160 0.863591
O3    O     O_R   0.425580 0.483050 0.607130 -0.619008
O4    O     O_R   0.574360 0.516930 0.638570 -0.594019
C2    C     C_R   0.501173 0.500220 0.661634 0.894196
Zn1   Zn    Zn3+2 0.400660 0.477370 0.479010 0.952938
Zn2   Zn    Zn3+2 0.599340 0.522630 0.520990 0.967028
O5    O     O_R   0.468110 0.360490 0.493260 -0.621931
O6    O     O_R   0.616880 0.394380 0.524700 -0.612303
O7    O     O_R   0.425640 0.483070 0.361430 -0.636150
O8    O     O_R   0.574420 0.516950 0.392870 -0.597746
C3    C     C_R   0.557964 0.337371 0.515178 0.860435
C4    C     C_R   0.498920 0.499601 0.338382 0.904501
C5    C     C_3   0.406610 0.548448 0.926939 -0.238333
C6    C     C_3   0.582501 0.546677 0.972648 -0.361077
C7    C     C_3   0.578205 0.549632 0.069825 -0.187534
H1    H     H_    0.650168 0.512406 0.965906 0.216205
H2    H     H_    0.578453 0.614862 0.946712 0.222765
H3    H     H_    0.561444 0.620051 0.085447 0.201252
C8    C     C_1   0.496758 0.498647 0.249061 -0.127636
C9    C     C_3   0.502037 0.500209 0.917574 0.198685
C10   C     C_3   0.404514 0.548291 0.025495 -0.169652
C11   C     C_3   0.498153 0.498935 0.082410 0.106512
C12   C     C_3   0.513545 0.402780 0.051706 -0.428009
C13   C     C_3   0.511738 0.403052 0.952909 -0.173506
C14   C     C_1   0.496663 0.498397 0.173811 -0.042046
C15   C     C_1   0.503945 0.500655 0.826291 -0.094602
C16   C     C_1   0.503660 0.500685 0.751007 -0.137442
H4    H     H_    0.448731 0.374205 0.917591 0.101414
C17   C     C_R   0.409759 0.755514 0.501599 -0.056298
C18   C     C_R   0.592994 0.245124 0.541552 -0.066131
C19   C     C_R   0.290978 0.871861 0.519737 -0.162814
C20   C     C_R   0.316626 0.785294 0.498065 -0.178909
C21   C     C_R   0.476230 0.812703 0.527090 -0.245578
C22   C     C_R   0.453050 0.897529 0.554541 0.099177
C23   C     C_R   0.358558 0.928510 0.547223 0.111706
C24   C     C_R   0.521278 0.953898 0.583402 0.080713
C25   C     C_R   0.492464 0.045100 0.586738 -0.035407
C26   C     C_R   0.399045 0.073962 0.589734 -0.024574
C27   C     C_R   0.333098 0.015079 0.568641 -0.168207
C28   C     C_R   0.617393 0.922588 0.607273 -0.198696
C29   C     C_R   0.682864 0.980873 0.619562 -0.212485
C30   C     C_R   0.653811 0.070529 0.601428 0.183493
C31   C     C_R   0.557931 0.102788 0.582351 0.070028
C32   C     C_R   0.718557 0.127598 0.597184 -0.183467
C33   C     C_R   0.688266 0.214954 0.568234 -0.166283
C34   C     C_R   0.529186 0.188521 0.547834 -0.248714
H5    H     H_    0.739075 0.258234 0.565418 0.172673
H6    H     H_    0.755962 0.955014 0.636356 0.145496
H7    H     H_    0.218571 0.894310 0.515657 0.149543
H8    H     H_    0.264077 0.741688 0.479604 0.158223
H9    H     H_    0.643339 0.853241 0.617674 0.123322
H10   H     H_    0.792195 0.104051 0.613822 0.151185
N1    N     N_R   0.731690 0.552720 0.548990 -0.130941
N2    N     N_R   0.268300 0.447240 0.450950 -0.130754
C35   C     C_R   0.848087 0.630637 0.641030 -0.136253
C36   C     C_R   0.757699 0.607401 0.617473 0.038967
C37   C     C_R   0.791871 0.519135 0.502400 -0.052342
C38   C     C_R   0.883238 0.541975 0.520893 -0.004642
C39   C     C_R   0.910937 0.598475 0.591612 0.113451
C40   C     C_R   0.948477 0.508579 0.472941 0.052902
C41   C     C_R   0.042174 0.526315 0.500267 0.105284
C42   C     C_R   0.065185 0.586099 0.567760 -0.232489
C43   C     C_R   0.000489 0.622859 0.610634 -0.149889
C44   C     C_R   0.921928 0.461151 0.396295 -0.194684
C45   C     C_R   0.987158 0.419631 0.355185 -0.003050
C46   C     C_R   0.083006 0.419908 0.394976 0.021051
C47   C     C_R   0.110021 0.482098 0.460502 -0.003531
C48   C     C_R   0.152771 0.360998 0.371036 -0.147699
C49   C     C_R   0.245508 0.378280 0.397546 0.089069
C50   C     C_R   0.204431 0.496284 0.484480 -0.042020
H11   H     H_    0.767226 0.473231 0.452796 0.146025
H12   H     H_    0.133094 0.606094 0.589921 0.134572
H13   H     H_    0.849722 0.459583 0.364437 0.191954
H14   H     H_    0.398000 0.617295 0.048466 0.211428
H15   H     H_    0.351871 0.510450 0.889109 0.097549
C51   C     C_2   0.320694 0.509193 0.037317 0.403508
H16   H     H_    0.309328 0.443253 0.015596 0.071778
O9    O     O_2   0.264580 0.551806 0.070636 -0.533828
H17   H     H_    0.579809 0.367723 0.092562 0.211317
H18   H     H_    0.261537 0.036642 0.568931 0.195420
H19   H     H_    0.456342 0.210920 0.522400 0.211815
H20   H     H_    0.546388 0.790551 0.523932 0.149683
C52   C     C_2   0.382302 0.640505 0.885371 0.433541
H21   H     H_    0.332659 0.651265 0.821916 0.070222
O10   O     O_2   0.419096 0.702509 0.920630 -0.562318
C53   C     C_2   0.371609 0.160441 0.625658 0.423005
H22   H     H_    0.424170 0.197416 0.663673 0.051979
O11   O     O_2   0.290095 0.191016 0.614004 -0.534279
H23   H     H_    0.022900 0.669975 0.660074 0.185486
H24   H     H_    0.229400 0.546854 0.528203 0.128017
C54   C     C_2   0.318199 0.321626 0.367272 0.386857
H25   H     H_    0.362662 0.349845 0.334060 0.108732
O12   O     O_2   0.328807 0.241737 0.378907 -0.585389
C55   C     C_2   0.952727 0.386161 0.265676 0.522562
H26   H     H_    0.996826 0.379940 0.220542 0.037294
O13   O     O_2   0.874308 0.366437 0.240833 -0.551455
C56   C     C_2   0.874258 0.689118 0.716625 0.456163
H27   H     H_    0.827878 0.748142 0.722463 0.054262
O14   O     O_2   0.944604 0.669100 0.775209 -0.528189
C57   C     C_2   0.692281 0.639683 0.670123 0.430348
H28   H     H_    0.627010 0.678998 0.640385 0.072136
O15   O     O_2   0.712019 0.623264 0.748878 -0.546241
C58   C     C_2   0.131718 0.277793 0.325507 0.458703
H29   H     H_    0.164819 0.254977 0.274293 0.086477
O16   O     O_2   0.079270 0.232714 0.347040 -0.516398
C59   C     C_2   0.671775 0.515441 0.130052 0.449990
H30   H     H_    0.704963 0.449447 0.123326 0.156334
O17   O     O_2   0.711169 0.562081 0.186517 -0.551635
C60   C     C_2   0.593152 0.343377 0.934685 0.431941
H31   H     H_    0.581035 0.298672 0.880573 0.064691
O18   O     O_2   0.672477 0.346096 0.977966 -0.558947
H32   H     H_    0.458800 0.365042 0.062635 0.155983

loop_
_geom_bond_atom_site_label_1
_geom_bond_atom_site_label_2
_geom_bond_distance
_ccdc_geom_bond_type
C54   H25   1.077764 S    
N1    C37   1.354138 A    
C3    C18   1.464728 S    
C21   C22   1.395552 A    
C11   C14   1.447544 S    
C10   H14   1.115156 S    
C33   H5    1.082989 S    
C5    H15   1.115463 S    
C52   H21   1.085410 S    
Zn1   O7    1.987375 S    
C58   O16   1.221332 D    
C4    C8    1.401017 S    
C15   C16   1.186364 T    
C24   C28   1.416207 A    
C28   H9    1.080415 S    
C24   C25   1.411549 A    
C50   H24   1.074752 S    
O7    C4    1.298041 A    
C51   O9    1.220885 D    
C44   H13   1.078060 S    
C35   C56   1.490595 S    
C7    H3    1.115333 S    
C59   H30   1.084004 S    
C38   C40   1.426681 A    
O5    C3    1.307666 A    
C5    C9    1.566857 S    
C41   C47   1.425104 A    
C46   C47   1.420572 A    
N2    C50   1.352808 A    
C55   O13   1.221502 D    
C10   C11   1.565134 S    
C48   C49   1.410022 A    
C36   C57   1.477407 S    
C37   H11   1.076525 S    
C25   C31   1.418922 A    
C5    C10   1.562761 S    
C44   C45   1.393113 A    
C8    C14   1.186524 T    
C37   C38   1.419418 A    
C54   O12   1.220987 D    
C9    C15   1.447341 S    
C12   H17   1.111522 S    
C18   C34   1.394587 A    
Zn1   N2    2.039190 S    
O3    Zn1   1.963666 S    
Zn2   N1    2.038862 S    
C30   C32   1.403130 A    
C52   O10   1.221332 D    
C7    C11   1.566507 S    
C40   C44   1.403854 A    
C45   C46   1.419297 A    
C11   C12   1.554050 S    
O3    C2    1.296623 A    
C7    C59   1.514314 S    
C25   C26   1.428705 A    
C51   H16   1.084888 S    
C6    C7    1.550521 S    
C12   C13   1.551671 S    
O6    C3    1.303999 A    
C19   C23   1.405090 A    
C38   C39   1.419514 A    
O1    C1    1.306252 A    
C47   C50   1.418499 A    
C57   O15   1.221350 D    
C29   C30   1.392987 A    
C40   C41   1.426374 A    
C56   H27   1.085603 S    
Zn2   O8    1.963665 S    
N2    C49   1.371298 A    
C55   H26   1.084642 S    
C32   H10   1.083700 S    
C19   C20   1.396546 A    
C17   C20   1.401965 A    
C60   O18   1.221034 D    
C1    C17   1.465920 S    
C43   H23   1.080094 S    
C46   C48   1.416366 A    
C26   C27   1.402889 A    
C56   O14   1.220995 D    
C53   O11   1.221496 D    
C13   H4    1.114446 S    
C45   C55   1.488746 S    
C18   C33   1.402395 A    
C17   C21   1.395331 A    
C28   C29   1.389926 A    
C30   C31   1.417326 A    
C31   C34   1.394842 A    
Zn1   O5    1.922479 S    
C32   C33   1.395005 A    
C22   C23   1.413561 A    
C6    C9    1.552459 S    
C60   H31   1.085371 S    
O1    Zn1   1.945414 S    
Zn2   O6    1.945416 S    
O2    Zn2   1.922479 S    
O8    C4    1.296337 A    
C48   C58   1.489518 S    
O4    Zn2   1.987378 S    
C21   H20   1.078400 S    
C29   H6    1.083979 S    
C35   C39   1.410540 A    
C49   C54   1.478847 S    
C19   H7    1.083676 S    
C58   H29   1.084946 S    
C20   H8    1.083055 S    
C34   H19   1.076680 S    
C5    C52   1.517436 S    
C42   C43   1.380480 A    
C26   C53   1.487247 S    
C22   C24   1.411940 A    
O2    C1    1.306271 A    
C12   H32   1.111975 S    
C35   C36   1.407006 A    
O4    C2    1.297682 A    
C6    H2    1.111363 S    
C27   H18   1.084489 S    
C59   O17   1.220953 D    
C10   C51   1.515172 S    
C23   C27   1.394727 A    
C57   H28   1.077742 S    
C41   C42   1.406063 A    
C39   C43   1.402367 A    
C2    C16   1.400679 S    
C53   H22   1.085166 S    
C6    H1    1.111917 S    
C9    C13   1.566401 S    
N1    C36   1.372234 A    
C42   H12   1.075953 S    
C13   C60   1.516242 S    
