data_mof_unit_4495.cif
_audit_creation_date              2012-10-26T19:39:08-0400
_audit_creation_method            fapswitch 2.2
_symmetry_space_group_name_H-M    P1
_symmetry_Int_Tables_number       1
_space_group_crystal_system       triclinic
_cell_length_a                    11.793262
_cell_length_b                    12.76975
_cell_length_c                    7.62119
_cell_angle_alpha                 88.731739
_cell_angle_beta                  109.481609
_cell_angle_gamma                 90.307237
_cell_volume                      1081.75178426

loop_
_atom_site_label
_atom_site_type_symbol
_atom_type_description
_atom_site_fract_x
_atom_site_fract_y
_atom_site_fract_z
_atom_type_partial_charge
C1    C     C_R   0.345059 0.855079 0.453092 0.547640
C2    C     C_2   0.738397 0.768940 0.573680 -0.107604
C3    C     C_2   0.751129 0.217478 0.569809 -0.061870
C4    C     C_2   0.248863 0.782506 0.430094 -0.069631
C5    C     C_2   0.761778 0.731208 0.426373 -0.103681
C6    C     C_2   0.238397 0.268940 0.573680 -0.107604
C7    C     C_2   0.251129 0.717478 0.569809 -0.061871
C8    C     C_2   0.748863 0.282506 0.430094 -0.069632
C9    C     C_R   0.654923 0.144931 0.546888 0.545066
C10   C     C_R   0.652523 0.852290 0.548296 0.540280
C11   C     C_R   0.347539 0.147763 0.451723 0.538042
C12   C     C_R   0.845059 0.355079 0.453092 0.547639
C13   C     C_R   0.154923 0.644931 0.546888 0.545066
C14   C     C_R   0.152523 0.352290 0.548296 0.540280
C15   C     C_R   0.847539 0.647763 0.451723 0.538042
C16   C     C_2   0.261778 0.231208 0.426373 -0.103681
Cu1   Cu    Cu3+1 0.517640 0.000000 0.687200 1.188239
Cu2   Cu    Cu3+1 0.482360 0.000000 0.312800 1.201954
Cu3   Cu    Cu3+1 0.017640 0.500000 0.687200 1.188240
Cu4   Cu    Cu3+1 0.982360 0.500000 0.312800 1.201953
H1    H     H_    0.717739 0.761630 0.285753 0.153633
H2    H     H_    0.802034 0.927312 0.018402 0.333003
H3    H     H_    0.643860 0.457951 0.970717 0.355015
H4    H     H_    0.302034 0.427313 0.018402 0.333005
H5    H     H_    0.282468 0.238552 0.714311 0.153879
H6    H     H_    0.327516 0.713226 0.697650 0.179467
H7    H     H_    0.672536 0.286678 0.302142 0.158438
H8    H     H_    0.217739 0.261630 0.285753 0.153633
H9    H     H_    0.782468 0.738552 0.714311 0.153879
H10   H     H_    0.827516 0.213226 0.697650 0.179467
H11   H     H_    0.172536 0.786677 0.302142 0.158439
H12   H     H_    0.143858 0.957956 0.970709 0.355015
N1    N     N_2   0.455760 0.000000 0.031460 0.034752
N2    N     N_2   0.544240 0.000000 0.968540 0.009936
N3    N     N_2   0.955760 0.500000 0.031460 0.034752
N4    N     N_2   0.044240 0.500000 0.968540 0.009936
O1    O     O_R   0.398880 0.887420 0.621600 -0.469156
O2    O     O_R   0.630920 0.112580 0.694560 -0.433381
O3    O     O_R   0.630920 0.887420 0.694560 -0.512070
O4    O     O_R   0.369080 0.112580 0.305440 -0.481648
O5    O     O_R   0.869080 0.387420 0.305440 -0.438943
O6    O     O_R   0.130920 0.612580 0.694560 -0.433381
O7    O     O_R   0.130920 0.387420 0.694560 -0.512070
O8    O     O_R   0.869080 0.612580 0.305440 -0.481648
O9    O     O_2   0.257914 0.002639 0.715371 -0.288518
O10   O     O_2   0.308404 0.841935 0.909491 -0.280171
O11   O     O_3   0.218753 0.998822 0.023485 -0.496373
O12   O     O_R   0.601120 0.112580 0.378400 -0.474973
O13   O     O_2   0.692550 0.157707 0.090619 -0.250474
O14   O     O_2   0.742086 0.998018 0.285800 -0.303692
O15   O     O_3   0.782239 0.001234 0.978017 -0.482953
O16   O     O_2   0.757914 0.502639 0.715371 -0.288515
O17   O     O_2   0.808404 0.341935 0.909490 -0.280174
O18   O     O_3   0.718753 0.498822 0.023485 -0.496372
O19   O     O_2   0.192550 0.657707 0.090619 -0.250473
O20   O     O_2   0.242086 0.498018 0.285800 -0.303692
O21   O     O_3   0.282239 0.501234 0.978017 -0.482955
O22   O     O_R   0.601120 0.887420 0.378400 -0.481169
O23   O     O_R   0.398880 0.112580 0.621600 -0.485320
O24   O     O_R   0.898880 0.387420 0.621600 -0.469156
O25   O     O_R   0.101120 0.612580 0.378400 -0.474973
O26   O     O_R   0.101120 0.387420 0.378400 -0.481169
O27   O     O_R   0.898880 0.612580 0.621600 -0.485320
O28   O     O_R   0.369080 0.887420 0.305440 -0.438941
S1    S     S_3+6 0.310406 0.959282 0.909594 0.139887
S2    S     S_3+6 0.689771 0.040420 0.090786 0.142395
S3    S     S_3+6 0.810407 0.459282 0.909594 0.139888
S4    S     S_3+6 0.189771 0.540420 0.090787 0.142395

loop_
_geom_bond_atom_site_label_1
_geom_bond_atom_site_label_2
_ccdc_geom_bond_type
C16   H8    S    
C3    H10   S    
N4    S4    S    
C12   O5    A    
C3    C9    S    
N3    S3    S    
Cu3   O24   S    
C6    C14   S    
C11   C16   S    
N3    N4    D    
Cu3   O6    S    
C1    O1    A    
C2    C10   S    
C8    C12   S    
C1    C4    S    
Cu4   O8    S    
N2    S2    S    
Cu4   O5    S    
O15   S2    S    
N1    S1    S    
O18   S3    S    
Cu1   O1    S    
Cu4   O26   S    
C6    H5    S    
O14   S2    D    
Cu2   O28   S    
Cu1   N2    S    
O16   S3    D    
C7    H6    S    
Cu1   O23   S    
C4    C7    D    
C11   O23   A    
C12   O24   A    
C13   O6    A    
C10   O22   A    
O11   S1    S    
C15   O8    A    
N1    N2    D    
Cu3   N4    S    
C2    H9    S    
C14   O7    A    
O9    S1    D    
C11   O4    A    
O17   S3    D    
H12   O11   S    
C5    C15   S    
C2    C5    D    
Cu2   N1    S    
O10   S1    D    
O21   S4    S    
C6    C16   D    
C4    H11   S    
C1    O28   A    
C15   O27   A    
C9    O12   A    
C7    C13   S    
C13   O25   A    
Cu1   O2    S    
H3    O18   S    
Cu1   Cu2   S    
C3    C8    D    
Cu1   O3    S    
Cu4   O25   S    
C8    H7    S    
O19   S4    D    
C10   O3    A    
C9    O2    A    
O13   S2    D    
Cu3   O7    S    
C14   O26   A    
Cu2   O4    S    
O20   S4    D    
Cu4   N3    S    
Cu2   O22   S    
H2    O15   S    
Cu3   Cu4   S    
Cu3   O27   S    
H4    O21   S    
C5    H1    S    
Cu2   O12   S    
