data_mof_unit_4747.cif
_audit_creation_date              2012-12-10T20:59:39-0500
_audit_creation_method            fapswitch 2.2
_symmetry_space_group_name_H-M    P1
_symmetry_Int_Tables_number       1
_space_group_crystal_system       triclinic
_cell_length_a                    15.873272
_cell_length_b                    15.042029
_cell_length_c                    10.911289
_cell_angle_alpha                 89.48569
_cell_angle_beta                  90.073855
_cell_angle_gamma                 90.231763
_cell_volume                      2605.11888883

loop_
_atom_site_label
_atom_site_type_symbol
_atom_type_description
_atom_site_fract_x
_atom_site_fract_y
_atom_site_fract_z
_atom_type_partial_charge
C1    C     C_R   0.338728 0.499895 0.501747 1.036054
C2    C     C_1   0.175309 0.500822 0.509905 0.280845
C3    C     C_1   0.250163 0.500120 0.505879 0.085297
C4    C     C_1   0.748796 0.500844 0.501089 -0.090385
C5    C     C_R   0.425350 0.951759 0.518103 0.386604
C6    C     C_R   0.424339 0.046358 0.509547 0.389346
C7    C     C_R   0.497145 0.501511 0.256617 0.997347
C8    C     C_R   0.501297 0.904857 0.504481 -0.085268
C9    C     C_R   0.500496 0.094786 0.501755 -0.087297
C10   C     C_R   0.576619 0.953546 0.491984 -0.247168
C11   C     C_R   0.576341 0.047313 0.492517 -0.223635
C12   C     C_3   0.586467 0.501402 0.928949 0.616041
C13   C     C_1   0.501192 0.807108 0.502460 0.153540
C14   C     C_1   0.500592 0.192761 0.500933 0.184879
C15   C     C_R   0.660909 0.500212 0.497752 0.935037
C16   C     C_R   0.494509 0.499633 0.742364 1.091245
C17   C     C_3   0.455051 0.601392 0.066514 0.686743
C18   C     C_3   0.440226 0.415632 0.074797 0.616174
C19   C     C_3   0.438067 0.583782 0.924976 0.112642
C20   C     C_3   0.444473 0.413617 0.929531 0.062965
C21   C     C_3   0.582040 0.498985 0.071878 -0.534996
C22   C     C_3   0.489746 0.505547 0.119890 -0.387395
C23   C     C_R   0.954950 0.581969 0.525890 0.340529
C24   C     C_3   0.489768 0.499533 0.877773 -0.526177
C25   C     C_3   0.563955 0.710096 0.154153 0.241059
C26   C     C_3   0.525455 0.797885 0.193718 -0.725799
C27   C     C_3   0.466248 0.255229 0.082278 0.217082
C28   C     C_3   0.481211 0.189362 0.186225 -0.783957
C29   C     C_3   0.894870 0.698126 0.424476 0.173656
C30   C     C_3   0.838527 0.778877 0.439107 -0.754810
C31   C     C_3   0.889142 0.307411 0.602170 0.170803
C32   C     C_3   0.831158 0.227449 0.587747 -0.709833
C33   C     C_3   0.305355 0.078984 0.401946 0.004089
C34   C     C_R   0.954077 0.420462 0.499657 0.328598
C35   C     C_3   0.234499 0.145763 0.393098 -0.539021
C36   C     C_3   0.328045 0.908614 0.658694 0.040849
C37   C     C_3   0.246958 0.856554 0.676787 -0.521035
C38   C     C_R   0.911940 0.501423 0.510757 -0.224422
C39   C     C_R   0.041992 0.420491 0.494400 0.280090
C40   C     C_R   0.042923 0.581355 0.533771 0.264280
C41   C     C_R   0.085816 0.500902 0.513435 -0.276799
C42   C     C_1   0.823256 0.501525 0.505504 0.129987
H1    H     H_    0.635935 0.918950 0.482371 0.171654
H2    H     H_    0.572703 0.836480 0.246597 0.167615
H3    H     H_    0.506855 0.837935 0.112164 0.284140
H4    H     H_    0.506749 0.234708 0.005148 0.187510
H5    H     H_    0.400765 0.248522 0.050912 0.193420
H6    H     H_    0.441065 0.206662 0.265317 0.274448
H7    H     H_    0.465230 0.121027 0.156034 0.194683
H8    H     H_    0.548340 0.191321 0.214978 0.259605
H9    H     H_    0.307748 0.784588 0.139954 0.379700
H10   H     H_    0.267397 0.282318 0.157125 0.386377
H11   H     H_    0.246761 0.714095 0.898740 0.394250
H12   H     H_    0.635566 0.082898 0.484407 0.175367
H13   H     H_    0.363506 0.259847 0.695884 0.400619
H14   H     H_    0.601455 0.708703 0.765569 0.374878
H15   H     H_    0.785544 0.436853 0.851075 0.383415
H16   H     H_    0.116069 0.638090 0.761846 0.373775
H17   H     H_    0.119432 0.359208 0.272240 0.378146
H18   H     H_    0.862251 0.650735 0.362240 0.117144
H19   H     H_    0.955084 0.720036 0.381249 0.179302
H20   H     H_    0.869635 0.828486 0.499062 0.281166
H21   H     H_    0.826334 0.809882 0.348088 0.199414
H22   H     H_    0.777445 0.758550 0.480577 0.249537
H23   H     H_    0.467768 0.639779 0.876154 0.233596
H24   H     H_    0.856092 0.356835 0.660273 0.134888
H25   H     H_    0.947612 0.285421 0.649921 0.180285
H26   H     H_    0.862494 0.175829 0.531936 0.265925
H27   H     H_    0.815825 0.198897 0.679277 0.219463
H28   H     H_    0.771733 0.247978 0.541833 0.253155
H29   H     H_    0.277108 0.011362 0.398468 0.210965
H30   H     H_    0.347033 0.088862 0.320841 0.134230
H31   H     H_    0.260838 0.213759 0.402714 0.316558
H32   H     H_    0.202272 0.140242 0.303081 0.204859
H33   H     H_    0.188151 0.132998 0.467391 0.279947
H34   H     H_    0.492077 0.363915 0.909269 0.193063
H35   H     H_    0.316667 0.978287 0.687837 0.184080
H36   H     H_    0.377587 0.878319 0.718157 0.174532
H37   H     H_    0.258005 0.786107 0.652820 0.325351
H38   H     H_    0.226446 0.860465 0.773805 0.197519
H39   H     H_    0.196581 0.884129 0.616984 0.260852
H40   H     H_    0.622345 0.551168 0.111964 0.201657
H41   H     H_    0.611434 0.438001 0.110633 0.261364
H42   H     H_    0.625883 0.729156 0.114460 0.192436
H43   H     H_    0.584436 0.668180 0.230225 0.112508
H44   H     H_    0.470417 0.786834 0.253703 0.283059
N1    N     N_1   0.500020 0.270550 0.499960 -0.063808
N2    N     N_1   0.500020 0.729450 0.499960 -0.084149
O1    O     O_R   0.378020 0.573650 0.500000 -0.545399
O2    O     O_3   0.488617 0.341982 0.122254 -0.609036
O3    O     O_2   0.281131 0.609010 0.116874 -0.193957
O4    O     O_2   0.371343 0.657631 0.280540 -0.275114
O5    O     O_3   0.356633 0.759739 0.095699 -0.525744
O6    O     O_2   0.327400 0.470795 0.251438 -0.287919
O7    O     O_2   0.263603 0.431546 0.060356 -0.174765
O8    O     O_3   0.314828 0.307085 0.205179 -0.551815
O9    O     O_2   0.338972 0.602576 0.721341 -0.276460
O10   O     O_2   0.264866 0.549220 0.899663 -0.161919
O11   O     O_3   0.308342 0.714754 0.884247 -0.504592
O12   O     O_R   0.378020 0.426350 0.500000 -0.587958
O13   O     O_2   0.297686 0.307968 0.914647 -0.270100
O14   O     O_2   0.315712 0.421685 0.756762 -0.239202
O15   O     O_3   0.408520 0.282287 0.750622 -0.558981
O16   O     O_2   0.720762 0.613904 0.962549 -0.255125
O17   O     O_2   0.688607 0.575154 0.753099 -0.305363
O18   O     O_3   0.599617 0.695415 0.854605 -0.537145
O19   O     O_2   0.630174 0.321496 0.951449 -0.313744
O20   O     O_2   0.652687 0.389440 0.750945 -0.309489
O21   O     O_3   0.753488 0.429300 0.928325 -0.478386
O22   O     O_2   0.157833 0.703965 0.469758 -0.263129
O23   O     O_R   0.499990 0.573670 0.314770 -0.634903
O24   O     O_2   0.043218 0.756438 0.599986 -0.258864
O25   O     O_3   0.157507 0.656134 0.698463 -0.520206
O26   O     O_2   0.152998 0.298595 0.568745 -0.270482
O27   O     O_2   0.040597 0.244224 0.434646 -0.262210
O28   O     O_3   0.158932 0.341230 0.338200 -0.526697
O29   O     O_3   0.910059 0.659758 0.541078 -0.531943
O30   O     O_3   0.908470 0.342663 0.484983 -0.549397
O31   O     O_3   0.349012 0.092056 0.513360 -0.614615
O32   O     O_3   0.351225 0.904670 0.534053 -0.610541
O33   O     O_R   0.499990 0.426330 0.314770 -0.549621
O34   O     O_R   0.621980 0.573680 0.499940 -0.634570
O35   O     O_R   0.621980 0.426320 0.499940 -0.602542
O36   O     O_R   0.500010 0.573660 0.685180 -0.615624
O37   O     O_R   0.500010 0.426340 0.685180 -0.534788
O38   O     O_3   0.519581 0.669403 0.056406 -0.603664
S1    S     S_3+6 0.363532 0.653541 0.144008 0.101908
S2    S     S_3+6 0.334105 0.408802 0.145914 0.112806
S3    S     S_3+6 0.334789 0.608792 0.857248 0.116235
S4    S     S_3+6 0.361348 0.358210 0.839475 0.075727
S5    S     S_3+6 0.649642 0.597843 0.874233 0.058590
S6    S     S_3+6 0.653593 0.406236 0.886301 0.046737
S7    S     S_3+6 0.099699 0.679068 0.573226 0.035134
S8    S     S_3+6 0.097795 0.321588 0.461129 0.024693
Zn1   Zn    Zn3+2 0.500000 0.598370 0.499960 1.068300
Zn2   Zn    Zn3+2 0.500000 0.401630 0.499960 1.119593

loop_
_geom_bond_atom_site_label_1
_geom_bond_atom_site_label_2
_ccdc_geom_bond_type
C19   S3    S    
C31   H24   S    
C35   H32   S    
C34   O30   S    
C8    C13   S    
O1    Zn1   S    
C15   O34   A    
C30   H22   S    
O24   S7    D    
C25   O38   S    
C6    C9    A    
C26   H2    S    
C39   C41   A    
H11   O11   S    
C31   H25   S    
C37   H37   S    
C35   H33   S    
C15   O35   A    
C36   C37   S    
C12   S5    S    
C14   N1    T    
C38   C42   S    
C2    C3    T    
C36   H35   S    
C5    C6    A    
C17   O38   S    
O28   S8    S    
C2    C41   S    
C23   C40   A    
H13   O15   S    
C20   H34   S    
C27   O2    S    
C26   H3    S    
C18   S2    S    
C28   H8    S    
O7    S2    D    
C35   H31   S    
C20   C24   S    
H17   O28   S    
O16   S5    D    
H16   O25   S    
H10   O8    S    
C13   N2    T    
C16   O37   A    
C33   H30   S    
C32   H26   S    
O13   S4    D    
C16   C24   S    
O25   S7    S    
C21   C22   S    
C37   H39   S    
C7    O33   A    
C1    O12   A    
O18   S5    S    
C37   H38   S    
C29   H19   S    
O11   S3    S    
C5    O32   S    
C34   C39   A    
C18   O2    S    
C21   H41   S    
O17   S5    D    
C17   S1    S    
C32   H28   S    
C25   C26   S    
C29   O29   S    
C12   C21   S    
H15   O21   S    
C1    C3    S    
C9    C14   S    
O5    S1    S    
C31   O30   S    
C29   C30   S    
C25   H42   S    
O8    S2    S    
C28   H7    S    
C31   C32   S    
C29   H18   S    
C26   H44   S    
O21   S6    S    
C25   H43   S    
O26   S8    D    
C9    C11   A    
H14   O18   S    
C11   H12   S    
O3    S1    D    
H9    O5    S    
C27   H4    S    
C40   C41   A    
C33   O31   S    
C30   H20   S    
C17   C19   S    
C7    C22   S    
O4    S1    D    
C6    O31   S    
O37   Zn2   S    
C27   H5    S    
C28   H6    S    
C1    O1    A    
C12   S6    S    
O36   Zn1   S    
C10   H1    S    
C34   C38   A    
N1    Zn2   S    
O14   S4    D    
N2    Zn1   S    
C20   S4    S    
O19   S6    D    
C23   O29   S    
C5    C8    A    
C32   H27   S    
O27   S8    D    
O6    S2    D    
C23   C38   A    
C40   S7    S    
C12   C24   S    
C17   C22   S    
O35   Zn2   S    
C4    C15   S    
C18   C22   S    
C19   C24   S    
C16   O36   A    
O9    S3    D    
C36   H36   S    
O23   Zn1   S    
C4    C42   T    
O10   S3    D    
C33   C35   S    
C7    O23   A    
C19   H23   S    
C18   C20   S    
O33   Zn2   S    
C36   O32   S    
O15   S4    S    
O34   Zn1   S    
O20   S6    D    
C10   C11   A    
C33   H29   S    
C21   H40   S    
C8    C10   A    
C27   C28   S    
O22   S7    D    
C30   H21   S    
O12   Zn2   S    
C39   S8    S    
