data_mof_unit_1277.cif
_audit_creation_date              2012-12-11T14:40:23-0500
_audit_creation_method            fapswitch 2.2
_symmetry_space_group_name_H-M    P1
_symmetry_Int_Tables_number       1
_space_group_crystal_system       triclinic
_cell_length_a                    19.628995
_cell_length_b                    10.822029
_cell_length_c                    19.466966
_cell_angle_alpha                 89.965516
_cell_angle_beta                  97.278113
_cell_angle_gamma                 90.025809
_cell_volume                      4101.96164971

loop_
_atom_site_label
_atom_site_type_symbol
_atom_type_description
_atom_site_fract_x
_atom_site_fract_y
_atom_site_fract_z
_atom_type_partial_charge
C1    C     C_R   0.707077 0.000919 0.366435 0.539290
C2    C     C_3   0.259900 0.368460 0.561982 0.048714
C3    C     C_3   0.241587 0.870571 0.437309 0.036156
C4    C     C_3   0.746697 0.919924 0.571287 0.040960
C5    C     C_3   0.772708 0.548178 0.454701 -0.176851
C6    C     C_3   0.242234 0.503956 0.545831 -0.148234
C7    C     C_3   0.219629 0.996938 0.461655 -0.106673
C8    C     C_3   0.773050 0.036824 0.539539 -0.127614
C9    C     C_3   0.830385 0.494258 0.508560 -0.105657
C10   C     C_3   0.181266 0.460744 0.493213 -0.106853
C11   C     C_3   0.292971 0.014549 0.500626 -0.123905
C12   C     C_R   0.290126 0.993343 0.632635 0.521994
C13   C     C_3   0.700406 0.054629 0.498057 -0.129517
C14   C     C_3   0.810707 0.363110 0.484044 0.266641
C15   C     C_3   0.199351 0.325740 0.509987 0.257101
C16   C     C_3   0.314224 0.887714 0.475736 0.269424
C17   C     C_3   0.675406 0.936202 0.530808 0.254113
C18   C     C_3   0.758863 0.351274 0.536236 -0.093377
C19   C     C_3   0.247206 0.320165 0.453631 -0.090004
C20   C     C_3   0.291336 0.823022 0.538793 -0.091463
C21   C     C_3   0.697010 0.856058 0.472388 -0.091521
C22   C     C_3   0.778513 0.481859 0.560470 0.009159
C23   C     C_R   0.209133 0.495769 0.367234 0.509576
C24   C     C_3   0.229298 0.455581 0.437525 0.016579
C25   C     C_3   0.269726 0.949824 0.563331 0.029565
C26   C     C_3   0.722570 0.973706 0.440051 0.016261
C27   C     C_3   0.531943 0.257588 0.964151 0.266909
C28   C     C_3   0.493679 0.286659 0.025889 0.273853
C29   C     C_3   0.006450 0.786615 0.974001 0.274167
C30   C     C_3   0.968154 0.757671 0.035759 0.266812
C31   C     C_3   0.566970 0.146191 0.002172 0.178176
C32   C     C_3   0.434557 0.201583 0.997339 0.177401
C33   C     C_3   0.065516 0.701531 0.002646 0.176720
C34   C     C_R   0.793790 0.504111 0.634355 0.550733
C35   C     C_3   0.933065 0.646246 0.997846 0.178604
C36   C     C_3   0.529304 0.175347 0.064274 -0.019006
C37   C     C_3   0.472182 0.173468 0.935231 -0.018657
C38   C     C_3   0.027859 0.673554 0.064773 -0.018132
C39   C     C_3   0.970761 0.675266 0.935722 -0.017084
C40   C     C_R   0.559434 0.183020 0.348374 0.519761
C41   C     C_R   0.439013 0.183215 0.651539 0.512001
C42   C     C_R   0.064226 0.683745 0.348450 0.518486
C43   C     C_R   0.966369 0.679990 0.662965 0.547236
C44   C     C_3   0.469589 0.089636 0.036090 -0.158777
C45   C     C_3   0.701692 0.405625 0.483227 -0.153923
C46   C     C_3   0.507406 0.060617 0.972546 -0.149466
C47   C     C_3   0.992573 0.560668 0.027566 -0.149180
C48   C     C_3   0.030419 0.589556 0.963999 -0.159912
C49   C     C_1   0.757172 0.406520 0.898956 0.103941
C50   C     C_1   0.217081 0.478482 0.084516 0.064856
C51   C     C_1   0.282988 0.978509 0.915474 0.064000
C52   C     C_1   0.742847 0.906592 0.101056 0.102723
C53   C     C_1   0.735298 0.361407 0.025951 0.115330
C54   C     C_1   0.238477 0.446091 0.955784 0.083191
C55   C     C_1   0.261563 0.946192 0.044208 0.084021
C56   C     C_3   0.308368 0.363975 0.506203 -0.172204
C57   C     C_1   0.764680 0.861447 0.974061 0.115870
C58   C     C_1   0.745132 0.381769 0.956448 0.128711
C59   C     C_1   0.226893 0.465072 0.025090 0.084355
C60   C     C_1   0.273173 0.965140 0.974904 0.083868
C61   C     C_1   0.754875 0.881839 0.043570 0.128452
C62   C     C_1   0.728791 0.342412 0.085666 0.080988
C63   C     C_1   0.249541 0.417750 0.898366 0.075696
C64   C     C_1   0.250475 0.917838 0.101630 0.077949
C65   C     C_1   0.771170 0.842428 0.914349 0.082242
C66   C     C_R   0.740101 0.365298 0.361414 0.554696
C67   C     C_3   0.218078 0.806498 0.500187 -0.211467
C68   C     C_R   0.272947 0.318135 0.631125 0.517157
C69   C     C_R   0.227564 0.819538 0.368813 0.513199
C70   C     C_R   0.759151 0.868900 0.640417 0.572148
C71   C     C_R   0.722868 0.949478 0.164996 0.564713
C72   C     C_R   0.295370 0.998510 0.845297 0.549535
C73   C     C_R   0.204659 0.498512 0.154676 0.550875
C74   C     C_R   0.777138 0.449455 0.835004 0.566532
C75   C     C_R   0.559599 0.182321 0.135589 0.571989
C76   C     C_R   0.440913 0.181957 0.864465 0.581133
C77   C     C_R   0.059109 0.682033 0.135541 0.580518
C78   C     C_3   0.769270 0.840482 0.513023 -0.177915
C79   C     C_R   0.940428 0.682245 0.864418 0.569219
C80   C     C_R   0.722804 0.312039 0.156137 0.549232
C81   C     C_R   0.262771 0.364633 0.833945 0.559711
C82   C     C_R   0.237235 0.864659 0.166058 0.565155
C83   C     C_R   0.777174 0.812039 0.843890 0.549656
C84   C     C_1   0.465010 0.175236 0.586774 0.030349
C85   C     C_1   0.531642 0.174996 0.412206 0.022825
C86   C     C_1   0.995656 0.672571 0.599601 0.007473
C87   C     C_1   0.044968 0.676931 0.416689 -0.006812
C88   C     C_1   0.509928 0.171713 0.466961 0.028331
C89   C     C_3   0.753707 0.416674 0.430813 0.047007
C90   C     C_1   0.485754 0.171833 0.531537 0.033485
C91   C     C_1   0.030717 0.673390 0.474918 -0.035568
C92   C     C_1   0.013872 0.671178 0.542959 -0.027629
C93   C     C_3   0.720979 0.537578 0.508718 -0.133535
C94   C     C_3   0.290341 0.500601 0.488600 -0.127296
C95   C     C_3   0.196462 0.933557 0.526116 -0.076607
C96   C     C_3   0.794867 0.957823 0.479864 -0.081248
Cl1   Cl    Cl    0.875465 0.251591 0.473167 -0.552598
Cl2   Cl    Cl    0.480778 0.441117 0.054262 -0.436399
Cl3   Cl    Cl    0.019488 0.941031 0.945501 -0.438283
Cl4   Cl    Cl    0.923783 0.871565 0.079468 -0.487143
Cl5   Cl    Cl    0.132411 0.219825 0.522373 -0.572365
Cl6   Cl    Cl    0.396272 0.862053 0.447799 -0.523066
Cl7   Cl    Cl    0.595710 0.922148 0.564893 -0.531341
Cl8   Cl    Cl    0.653938 0.105526 0.000952 -0.656587
Cl9   Cl    Cl    0.346660 0.235097 0.998617 -0.637518
Cl10  Cl    Cl    0.153436 0.735003 0.001361 -0.641100
Cl11  Cl    Cl    0.846070 0.605609 0.999067 -0.658065
Cl12  Cl    Cl    0.576363 0.371379 0.920302 -0.486354
Cr1   Cr    Cr6+3 0.765830 0.160660 0.268180 1.101662
Cr2   Cr    Cr6+3 0.384070 0.324050 0.751550 1.087946
Cr3   Cr    Cr6+3 0.115930 0.824050 0.248450 1.094256
Cr4   Cr    Cr6+3 0.884070 0.824050 0.751550 1.092104
Cr5   Cr    Cr6+3 0.234170 0.160660 0.731820 1.093248
Cr6   Cr    Cr6+3 0.265830 0.660660 0.268180 1.092442
Cr7   Cr    Cr6+3 0.734170 0.660660 0.731820 1.095471
Cr8   Cr    Cr6+3 0.612110 0.009150 0.248770 1.078005
Cr9   Cr    Cr6+3 0.387890 0.009150 0.751230 1.080202
Cr10  Cr    Cr6+3 0.112110 0.509150 0.248770 1.072811
Cr11  Cr    Cr6+3 0.887890 0.509150 0.751230 1.068769
Cr12  Cr    Cr6+3 0.615930 0.324050 0.248450 1.087130
H1    H     H_    0.648533 0.369543 0.471553 0.121614
H2    H     H_    0.240453 0.576260 0.585955 0.139449
H3    H     H_    0.189223 0.063413 0.426931 0.180185
H4    H     H_    0.807372 0.102802 0.570549 0.170917
H5    H     H_    0.324938 0.099212 0.502712 0.097210
H6    H     H_    0.670853 0.141734 0.489994 0.096048
H7    H     H_    0.883389 0.530585 0.520422 0.139518
H8    H     H_    0.128506 0.498155 0.486914 0.140049
H9    H     H_    0.750679 0.277160 0.573406 0.135705
H10   H     H_    0.249555 0.247810 0.413693 0.142356
H11   H     H_    0.321401 0.752182 0.570870 0.157107
H12   H     H_    0.360869 0.324615 0.512834 0.109857
H13   H     H_    0.665514 0.782564 0.444102 0.158073
H14   H     H_    0.443905 0.021100 0.066632 0.173860
H15   H     H_    0.512838 0.967880 0.949510 0.186801
H16   H     H_    0.987074 0.467969 0.050695 0.186388
H17   H     H_    0.056061 0.520953 0.933529 0.171822
H18   H     H_    0.185215 0.723127 0.497310 0.096061
H19   H     H_    0.800970 0.756435 0.523272 0.111463
H20   H     H_    0.683965 0.608261 0.522085 0.163417
H21   H     H_    0.327056 0.573915 0.477686 0.171301
H22   H     H_    0.148460 0.951736 0.549007 0.195416
H23   H     H_    0.843887 0.965851 0.457348 0.190811
H24   H     H_    0.777773 0.626812 0.419064 0.137870
O1    O     O_R   0.783230 0.287800 0.346510 -0.454335
O2    O     O_R   0.454570 0.285140 0.836900 -0.419984
O3    O     O_R   0.045430 0.785140 0.163100 -0.420869
O4    O     O_R   0.954570 0.785140 0.836900 -0.448385
O5    O     O_R   0.677850 0.374730 0.185500 -0.486438
O6    O     O_R   0.322150 0.374730 0.814500 -0.485054
O7    O     O_R   0.177850 0.874730 0.185500 -0.485062
O8    O     O_R   0.822150 0.874730 0.814500 -0.486507
O9    O     O_3   0.664630 0.164620 0.255130 -0.356133
O10   O     O_3   0.335370 0.164620 0.744870 -0.368568
O11   O     O_3   0.164630 0.664620 0.255130 -0.371357
O12   O     O_R   0.216770 0.287800 0.653490 -0.448783
O13   O     O_3   0.835370 0.664620 0.744870 -0.343221
O14   O     O_R   0.760130 0.037060 0.338610 -0.476290
O15   O     O_R   0.239870 0.037060 0.661390 -0.480081
O16   O     O_R   0.260130 0.537060 0.338610 -0.488566
O17   O     O_R   0.739870 0.537060 0.661390 -0.489173
O18   O     O_R   0.666620 0.921370 0.332440 -0.507120
O19   O     O_R   0.333380 0.921370 0.667560 -0.497523
O20   O     O_R   0.166620 0.421370 0.332440 -0.483729
O21   O     O_R   0.833380 0.421370 0.667560 -0.491521
O22   O     O_R   0.557170 0.082420 0.312350 -0.470757
O23   O     O_R   0.283230 0.787800 0.346510 -0.449094
O24   O     O_R   0.442830 0.082420 0.687650 -0.455952
O25   O     O_R   0.057170 0.582420 0.312350 -0.474746
O26   O     O_R   0.942830 0.582420 0.687650 -0.503279
O27   O     O_R   0.548310 0.285980 0.316250 -0.483991
O28   O     O_R   0.451690 0.285980 0.683750 -0.482222
O29   O     O_R   0.048310 0.785980 0.316250 -0.468923
O30   O     O_R   0.951690 0.785980 0.683750 -0.488520
O31   O     O_R   0.680520 0.375500 0.327470 -0.520614
O32   O     O_R   0.319480 0.375500 0.672530 -0.513510
O33   O     O_R   0.180520 0.875500 0.327470 -0.512360
O34   O     O_R   0.716770 0.787800 0.653490 -0.471831
O35   O     O_R   0.819480 0.875500 0.672530 -0.506317
O36   O     O_R   0.780350 0.286970 0.193350 -0.478455
O37   O     O_R   0.219650 0.286970 0.806650 -0.501001
O38   O     O_R   0.280350 0.786970 0.193350 -0.495625
O39   O     O_R   0.719650 0.786970 0.806650 -0.474127
O40   O     O_R   0.757460 0.036290 0.196640 -0.490489
O41   O     O_R   0.242540 0.036290 0.803360 -0.460507
O42   O     O_R   0.257460 0.536290 0.196640 -0.457944
O43   O     O_R   0.742540 0.536290 0.803360 -0.491138
O44   O     O_R   0.663740 0.920540 0.179290 -0.495073
O45   O     O_R   0.554500 0.081650 0.170370 -0.481466
O46   O     O_R   0.336260 0.920540 0.820710 -0.494258
O47   O     O_R   0.163740 0.420540 0.179290 -0.492017
O48   O     O_R   0.836260 0.420540 0.820710 -0.494314
O49   O     O_R   0.445500 0.081650 0.829630 -0.499408
O50   O     O_R   0.054500 0.581650 0.170370 -0.501077
O51   O     O_R   0.945500 0.581650 0.829630 -0.489128
O52   O     O_R   0.545430 0.285140 0.163100 -0.441117

loop_
_geom_bond_atom_site_label_1
_geom_bond_atom_site_label_2
_ccdc_geom_bond_type
C19   C56   S    
C45   C93   S    
Cr4   O30   S    
Cr8   O45   S    
C8    C13   S    
C87   C91   T    
C47   H16   S    
C14   C18   S    
C20   C67   S    
C8    C96   S    
C81   O37   A    
C71   O44   A    
C4    C8    S    
C34   O17   A    
C35   C47   S    
C78   H19   S    
C4    C70   S    
C73   O42   A    
C68   O32   A    
Cr8   O9    S    
Cr6   O23   S    
Cr9   O19   S    
C56   C94   S    
Cr8   O44   S    
Cr10  O20   S    
Cr12  O5    S    
C9    H7    S    
C48   H17   S    
C63   C81   S    
C50   C59   T    
C80   O36   A    
Cr8   O18   S    
C1    O14   A    
C75   O45   A    
C23   O20   A    
C3    C7    S    
C10   C15   S    
C31   C36   S    
C43   O30   A    
C9    C22   S    
C65   C83   S    
C20   C25   S    
C11   C25   S    
Cr9   O24   S    
C28   Cl2   S    
C81   O6    A    
C41   O24   A    
C30   Cl4   S    
C79   O51   A    
C30   C38   S    
C4    C78   S    
C11   C16   S    
C21   H13   S    
C67   H18   S    
C66   O1    A    
C69   O33   A    
C46   H15   S    
C15   C19   S    
Cr5   O37   S    
C29   C33   S    
C78   C96   S    
C6    C94   S    
C31   C46   S    
C21   C78   S    
C64   C82   S    
C23   C24   S    
Cr4   O8    S    
C34   O21   A    
Cr1   O9    S    
Cr11  O21   S    
C40   O22   A    
C82   O7    A    
Cr11  O13   S    
C75   O52   A    
C19   H10   S    
C76   O2    A    
C18   C22   S    
C55   C60   S    
C55   C64   T    
C67   C95   S    
C94   H21   S    
Cr8   O22   S    
C2    C6    S    
C84   C90   T    
C10   H8    S    
Cr1   O14   S    
C72   O46   A    
C43   O26   A    
C44   C46   S    
C70   O35   A    
C7    C11   S    
C66   C89   S    
C54   C59   S    
C26   C96   S    
C80   O5    A    
C22   C34   S    
C41   O28   A    
Cr1   O1    S    
Cr4   O13   S    
C29   Cl3   S    
C27   C31   S    
C28   C32   S    
Cr9   O49   S    
Cr11  O48   S    
C76   O49   A    
C50   C73   S    
C57   C65   T    
C91   C92   S    
C9    C14   S    
C8    H4    S    
C5    H24   S    
Cr10  O25   S    
C10   C24   S    
Cr6   O38   S    
C41   C84   S    
Cr5   O15   S    
C49   C58   T    
Cr4   O4    S    
C39   C79   S    
C40   C85   S    
Cr7   O17   S    
C35   C39   S    
C77   O50   A    
C69   O23   A    
C14   C89   S    
C5    C9    S    
C29   C30   S    
Cr2   O10   S    
C36   C75   S    
C24   C94   S    
Cr7   O43   S    
Cr10  O47   S    
Cr12  O31   S    
Cr7   O39   S    
C47   C48   S    
C16   C20   S    
C42   O25   A    
Cr5   O41   S    
C23   O16   A    
C29   C39   S    
C32   C44   S    
C83   O39   A    
Cr10  O11   S    
Cr12  O52   S    
C32   C37   S    
C15   Cl5   S    
C2    C15   S    
C44   H14   S    
Cr6   O16   S    
C38   C47   S    
C56   H12   S    
C95   H22   S    
Cr4   O35   S    
C74   O48   A    
C4    C17   S    
C30   C35   S    
Cr1   O40   S    
C16   Cl6   S    
C37   C76   S    
Cr7   O13   S    
C1    O18   A    
C25   C95   S    
C73   O47   A    
C32   Cl9   S    
C1    C26   S    
C22   C93   S    
C70   O34   A    
C66   O31   A    
C36   C44   S    
C51   C72   S    
C13   H6    S    
Cr5   O12   S    
C18   C45   S    
Cr6   O11   S    
C27   C28   S    
C45   C89   S    
C14   Cl1   S    
Cr3   O33   S    
C83   O8    A    
C85   C88   T    
C62   C80   S    
C33   C48   S    
C77   O3    A    
C88   C90   S    
C3    C69   S    
Cr3   O29   S    
C43   C86   S    
C71   O40   A    
Cr5   O10   S    
C3    C67   S    
C33   Cl10  S    
C7    H3    S    
Cr2   O6    S    
C42   O29   A    
Cr3   O7    S    
C6    C10   S    
Cr10  O50   S    
C5    C93   S    
C53   C58   S    
Cr12  O27   S    
C57   C61   S    
C79   O4    A    
C51   C60   T    
C38   C77   S    
Cr2   O32   S    
C7    C95   S    
C82   O38   A    
C2    C68   S    
C33   C38   S    
Cr6   O42   S    
C13   C17   S    
C12   C25   S    
C52   C61   T    
C45   H1    S    
C31   Cl8   S    
C19   C24   S    
C17   Cl7   S    
C52   C71   S    
C86   C92   T    
C96   H23   S    
Cr1   O36   S    
Cr3   O11   S    
C27   Cl12  S    
C27   C37   S    
C21   C26   S    
Cr12  O9    S    
Cr11  O51   S    
C12   O15   A    
C13   C26   S    
C17   C21   S    
C72   O41   A    
Cr7   O34   S    
C35   Cl11  S    
Cr9   O46   S    
C74   O43   A    
Cr11  O26   S    
C11   H5    S    
C28   C36   S    
C53   C62   T    
C54   C63   T    
Cr9   O10   S    
C93   H20   S    
Cr3   O3    S    
C6    H2    S    
C49   C74   S    
C18   H9    S    
C2    C56   S    
C42   C87   S    
C20   H11   S    
C37   C46   S    
Cr2   O2    S    
C68   O12   A    
C40   O27   A    
C5    C89   S    
C3    C16   S    
C39   C48   S    
C12   O19   A    
Cr2   O28   S    
