data_mof_unit_1410.cif
_audit_creation_date              2013-03-05T16:02:43-0500
_audit_creation_method            fapswitch 2.2
_symmetry_space_group_name_H-M    P1
_symmetry_Int_Tables_number       1
_space_group_crystal_system       triclinic
_cell_length_a                    23.566286
_cell_length_b                    11.711033
_cell_length_c                    10.455975
_cell_angle_alpha                 90.002147
_cell_angle_beta                  89.996122
_cell_angle_gamma                 89.648322
_cell_volume                      2885.64367605

loop_
_atom_site_label
_atom_site_type_symbol
_atom_site_description
_atom_site_fract_x
_atom_site_fract_y
_atom_site_fract_z
_atom_type_partial_charge
O1    O     O_R   0.500000 0.337200 0.605810 -0.567349
O2    O     O_R   0.500000 0.662800 0.394190 -0.571959
O3    O     O_R   0.500000 0.662800 0.605810 -0.567707
O4    O     O_R   0.500000 0.337200 0.394190 -0.571877
C1    C     C_R   0.499742 0.283310 0.499965 0.811424
C2    C     C_R   0.500296 0.716689 0.499968 0.811144
O5    O     O_R   0.417880 0.500000 0.605840 -0.572586
O6    O     O_R   0.582120 0.500000 0.394160 -0.577004
O7    O     O_R   0.582120 0.500000 0.605840 -0.573158
O8    O     O_R   0.417880 0.500000 0.394160 -0.577079
C3    C     C_R   0.390585 0.498375 0.500089 0.839032
C4    C     C_R   0.609413 0.501678 0.500077 0.840231
Cu1   Cu    Cu3+1 0.500000 0.500000 0.625300 0.977774
Cu2   Cu    Cu3+1 0.500000 0.500000 0.374700 0.980375
C5    C     C_R   0.881447 0.606240 0.483048 0.690574
C6    C     C_R   0.118562 0.394695 0.485115 0.648055
C7    C     C_R   0.880251 0.402648 0.466000 0.683891
C8    C     C_R   0.119783 0.598081 0.465253 0.687848
N1    N     N_R   0.852343 0.505288 0.477234 -0.421711
N2    N     N_R   0.147664 0.495543 0.477759 -0.417982
C9    C     C_R   0.939698 0.398349 0.468099 -0.022373
C10   C     C_R   0.060334 0.602405 0.467066 -0.022533
C11   C     C_R   0.940831 0.606539 0.474962 -0.026621
C12   C     C_R   0.059192 0.394294 0.476691 -0.021764
C13   C     C_R   0.970096 0.501423 0.470970 -0.005077
C14   C     C_R   0.029932 0.499363 0.471129 0.002851
C15   C     C_R   0.969330 0.293886 0.468855 -0.111687
C16   C     C_R   0.030706 0.706865 0.466314 -0.117570
C17   C     C_R   0.971556 0.708932 0.472440 -0.122830
C18   C     C_R   0.028473 0.291882 0.475348 -0.137864
O9    O     O_2   0.852981 0.705698 0.497764 -0.500481
O10   O     O_2   0.147020 0.295480 0.501828 -0.527518
O11   O     O_2   0.850469 0.305214 0.453703 -0.500242
O12   O     O_2   0.149590 0.695379 0.451965 -0.500639
H1    H     H_    0.946910 0.213442 0.467224 0.195396
H2    H     H_    0.053129 0.787287 0.463748 0.195451
H3    H     H_    0.950016 0.790881 0.474314 0.194853
H4    H     H_    0.050017 0.209965 0.478391 0.191863
C19   C     C_R   0.236021 0.544444 0.591899 0.391099
C20   C     C_R   0.764042 0.456643 0.591861 0.388256
C21   C     C_R   0.241060 0.441438 0.388606 0.362419
C22   C     C_R   0.758828 0.558928 0.388160 0.394285
C23   C     C_R   0.295375 0.561449 0.586630 -0.066930
C24   C     C_R   0.704714 0.439288 0.586737 -0.066972
C25   C     C_R   0.299622 0.424012 0.409102 -0.011513
C26   C     C_R   0.700264 0.576272 0.408821 -0.015820
C27   C     C_R   0.327846 0.494545 0.499172 -0.191179
C28   C     C_R   0.672145 0.505769 0.499090 -0.193686
C29   C     C_R   0.208636 0.494020 0.485871 0.059542
C30   C     C_R   0.791354 0.506775 0.485546 0.049098
C31   C     C_1   0.499729 0.161961 0.499789 -0.182361
C32   C     C_1   0.500378 0.838036 0.499793 -0.182423
C33   C     C_1   0.499889 0.059715 0.499666 -0.000427
C34   C     C_1   0.500256 0.940283 0.499666 -0.000454
N3    N     N_1   0.500000 0.500000 0.186410 -0.139386
N4    N     N_1   0.500000 0.500000 0.813590 -0.143273
C35   C     C_1   0.500000 0.500000 0.072026 0.110637
C36   C     C_1   0.500000 0.500000 0.927970 0.101810
S1    S     S_3+6 0.196393 0.582213 0.731331 0.039016
O13   O     O_2   0.181229 0.706976 0.725639 -0.266098
O14   O     O_2   0.142967 0.513391 0.741606 -0.249871
O15   O     O_3   0.235928 0.557162 0.862460 -0.502276
H5    H     H_    0.214006 0.591076 0.933983 0.412210
S2    S     S_3+6 0.803689 0.420020 0.731616 0.032967
O16   O     O_2   0.819133 0.295360 0.726887 -0.265063
O17   O     O_2   0.856953 0.489402 0.741428 -0.258921
O18   O     O_3   0.764044 0.445486 0.862491 -0.506782
H6    H     H_    0.786048 0.412327 0.934317 0.412121
S3    S     S_3+6 0.209791 0.405276 0.238436 0.035683
O19   O     O_2   0.155997 0.472054 0.215997 -0.286116
O20   O     O_2   0.250325 0.433359 0.132214 -0.241456
O21   O     O_3   0.195609 0.264731 0.232723 -0.507207
H7    H     H_    0.153914 0.258719 0.242138 0.382665
S4    S     S_3+6 0.790185 0.595575 0.238262 0.022938
O22   O     O_2   0.843688 0.528067 0.215510 -0.271421
O23   O     O_2   0.749326 0.569681 0.131915 -0.279966
O24   O     O_3   0.805590 0.735489 0.235552 -0.521171
H8    H     H_    0.821303 0.749375 0.149120 0.393118
C37   C     C_3   0.322696 0.656119 0.665777 -0.295934
C38   C     C_3   0.342662 0.754465 0.579897 -0.374158
C39   C     C_3   0.367206 0.852017 0.658889 -0.808447
H9    H     H_    0.334780 0.886310 0.726005 0.268865
H10   H     H_    0.404683 0.821777 0.714017 0.261954
H11   H     H_    0.380625 0.922036 0.594249 0.246700
H12   H     H_    0.375514 0.724463 0.511606 0.213452
H13   H     H_    0.306068 0.787720 0.523681 0.252996
H14   H     H_    0.292652 0.694369 0.734809 0.262223
H15   H     H_    0.357910 0.622391 0.725139 0.224508
C40   C     C_3   0.677528 0.344826 0.666428 -0.293974
C41   C     C_3   0.657491 0.246151 0.581092 -0.373938
C42   C     C_3   0.632879 0.149020 0.660626 -0.810965
H16   H     H_    0.665274 0.114971 0.727958 0.267487
H17   H     H_    0.595407 0.179600 0.715551 0.262304
H18   H     H_    0.619429 0.078734 0.596381 0.246849
H19   H     H_    0.624654 0.275908 0.512650 0.213329
H20   H     H_    0.694063 0.212560 0.525038 0.252525
H21   H     H_    0.707683 0.306851 0.735403 0.262083
H22   H     H_    0.642375 0.378721 0.725879 0.224238
C43   C     C_3   0.329130 0.320556 0.348673 -0.325561
C44   C     C_3   0.309715 0.208414 0.411009 -0.337802
C45   C     C_3   0.329918 0.197344 0.549424 -0.764099
H23   H     H_    0.376830 0.204015 0.554621 0.233496
H24   H     H_    0.310389 0.264916 0.609899 0.275101
H25   H     H_    0.317210 0.112934 0.587951 0.251675
H26   H     H_    0.262800 0.201675 0.408939 0.290429
H27   H     H_    0.327352 0.135604 0.355217 0.217890
H28   H     H_    0.320829 0.316852 0.244638 0.241329
H29   H     H_    0.375837 0.322469 0.356717 0.196414
C46   C     C_3   0.670662 0.679818 0.348784 -0.328819
C47   C     C_3   0.690050 0.791899 0.411289 -0.343250
C48   C     C_3   0.670172 0.802458 0.550000 -0.765211
H30   H     H_    0.623308 0.795040 0.555848 0.234274
H31   H     H_    0.690127 0.735109 0.610062 0.273426
H32   H     H_    0.682655 0.887008 0.588519 0.250535
H33   H     H_    0.736940 0.798958 0.408608 0.295507
H34   H     H_    0.672154 0.864745 0.355984 0.215449
H35   H     H_    0.678826 0.683816 0.244734 0.236852
H36   H     H_    0.623964 0.677794 0.357070 0.198023

loop_
_geom_bond_atom_site_label_1
_geom_bond_atom_site_label_2
_geom_bond_distance
_ccdc_geom_bond_type
C45   H23   1.110096 S    
C3    C27   1.479505 S    
C48   H30   1.110040 S    
C4    C28   1.479463 S    
O3    C2    1.274037 A    
C37   H14   1.104055 S    
C39   H9    1.110780 S    
C41   C42   1.526431 S    
C46   H35   1.105852 S    
C41   H19   1.108702 S    
C33   C34   1.398647 S    
C5    N1    1.371781 A    
C43   H29   1.104296 S    
C44   H26   1.109121 S    
N2    C29   1.439403 S    
S4    O23   1.503079 D    
O1    C1    1.274020 A    
C11   C17   1.404835 A    
C16   C17   1.395455 A    
C12   C14   1.408009 A    
C23   C37   1.528836 S    
C18   H4    1.083119 S    
C22   C26   1.410394 A    
S3    O20   1.502639 D    
O7    Cu1   1.945917 S    
C47   C48   1.528876 S    
C38   H13   1.112134 S    
S4    O24   1.680688 S    
O3    Cu1   1.917424 S    
O6    C4    1.280947 A    
Cu1   N4    1.968757 S    
C5    C11   1.402034 A    
Cu2   N3    1.968756 S    
C9    C15   1.404936 A    
S1    O13   1.503224 D    
C6    C12   1.401947 A    
C10   C16   1.404869 A    
Cu1   Cu2   2.620267 S    
C15   C18   1.395487 A    
O2    C2    1.273416 A    
C7    O11   1.349432 S    
C21   C29   1.411178 A    
C37   H15   1.107263 S    
C39   H10   1.110827 S    
C32   C34   1.197398 T    
C46   H36   1.104290 S    
C25   C27   1.420711 A    
C26   C28   1.420697 A    
C22   S4    1.786219 S    
S1    O14   1.502923 D    
S4    O22   1.503035 D    
O18   H6    0.990606 S    
S2    O18   1.682496 S    
C25   C43   1.529783 S    
C42   H16   1.110778 S    
C38   C39   1.526437 S    
C19   C23   1.415143 A    
C15   H1    1.083105 S    
C13   C14   1.410167 A    
O24   H8    0.990449 S    
C7    C9    1.401728 A    
C40   H21   1.104148 S    
C31   C33   1.197397 T    
S2    O17   1.502947 D    
S3    O21   1.682585 S    
O5    C3    1.279455 A    
C38   H12   1.108723 S    
C42   H17   1.110833 S    
C43   C44   1.538291 S    
O5    Cu1   1.945947 S    
C6    N2    1.371519 A    
C19   S1    1.785481 S    
O15   H5    0.990611 S    
C48   H31   1.110480 S    
C5    O9    1.349332 S    
C8    O12   1.349426 S    
C22   C30   1.411331 A    
C19   C29   1.413851 A    
C45   H25   1.110326 S    
N3    C35   1.195994 T    
O8    Cu2   1.945919 S    
O1    Cu1   1.917409 S    
C47   H34   1.111615 S    
C39   H11   1.110130 S    
C21   S3    1.786552 S    
C9    C13   1.407754 A    
S1    O15   1.682513 S    
O6    Cu2   1.945944 S    
C8    C10   1.401704 A    
O21   H7    0.990433 S    
C41   H20   1.112127 S    
C6    O10   1.349378 S    
C43   H28   1.106145 S    
C44   H27   1.111623 S    
C20   S2    1.785382 S    
C40   H22   1.107297 S    
S2    O16   1.503222 D    
C46   C47   1.538213 S    
C42   H18   1.110150 S    
N1    C30   1.439905 S    
C35   C36   1.506243 S    
C20   C30   1.413961 A    
O4    C1    1.273433 A    
C44   C45   1.528861 S    
C7    N1    1.371662 A    
N4    C36   1.195959 T    
C48   H32   1.110294 S    
C8    N2    1.371542 A    
C11   C13   1.407970 A    
O4    Cu2   1.917424 S    
S3    O19   1.503875 D    
O2    Cu2   1.917409 S    
O7    C4    1.279474 A    
C12   C18   1.404763 A    
O8    C3    1.280993 A    
C37   C38   1.536528 S    
C20   C24   1.415076 A    
C16   H2    1.083105 S    
C45   H24   1.110548 S    
C10   C14   1.407818 A    
C26   C46   1.530006 S    
C17   H3    1.083114 S    
C21   C25   1.410239 A    
C1    C31   1.421124 S    
C2    C32   1.421121 S    
C40   C41   1.536602 S    
C23   C27   1.424145 A    
C47   H33   1.108991 S    
C24   C40   1.528802 S    
C24   C28   1.424060 A    
