data_mof_unit_440.cif
_audit_creation_date              2012-12-10T19:22:02-0500
_audit_creation_method            fapswitch 2.2
_symmetry_space_group_name_H-M    P1
_symmetry_Int_Tables_number       1
_space_group_crystal_system       triclinic
_cell_length_a                    8.771522
_cell_length_b                    17.634637
_cell_length_c                    16.612297
_cell_angle_alpha                 89.271662
_cell_angle_beta                  97.373351
_cell_angle_gamma                 92.666608
_cell_volume                      2545.56656734

loop_
_atom_site_label
_atom_site_type_symbol
_atom_type_description
_atom_site_fract_x
_atom_site_fract_y
_atom_site_fract_z
_atom_type_partial_charge
C1    C     C_R   0.499604 0.355740 0.500384 0.794351
C2    C     C_R   0.500104 0.644244 0.499644 0.807501
C3    C     C_1   0.499056 0.966028 0.500532 -0.047676
C4    C     C_1   0.495765 0.033814 0.500406 -0.048450
C5    C     C_R   0.583307 0.559892 0.832380 -0.323232
C6    C     C_R   0.425845 0.443399 0.164229 -0.233506
C7    C     C_R   0.582710 0.556468 0.746795 0.368891
C8    C     C_R   0.424848 0.442832 0.249532 0.341257
C9    C     C_R   0.424664 0.443560 0.742347 0.136065
C10   C     C_R   0.573327 0.558878 0.259256 0.148792
C11   C     C_R   0.423270 0.446617 0.827343 -0.305253
C12   C     C_R   0.576989 0.558786 0.174164 -0.304774
C13   C     C_R   0.502002 0.504859 0.873496 0.109903
C14   C     C_R   0.503148 0.501228 0.125544 0.078084
C15   C     C_1   0.503947 0.504929 0.962608 -0.026063
C16   C     C_1   0.503627 0.503168 0.036572 -0.030423
C17   C     C_R   0.203794 0.498891 0.479541 0.872760
C18   C     C_R   0.796206 0.501161 0.520457 0.884386
C19   C     C_2   0.038451 0.494696 0.468570 -0.392012
C20   C     C_2   0.961548 0.505443 0.531409 -0.390234
C21   C     C_R   0.621438 0.847014 0.548663 0.026011
C22   C     C_R   0.375004 0.153178 0.452008 0.033051
C23   C     C_R   0.616825 0.767538 0.547745 -0.272860
C24   C     C_R   0.380896 0.232672 0.452682 -0.285765
C25   C     C_R   0.499374 0.726805 0.499252 -0.054646
C26   C     C_R   0.499068 0.273132 0.500968 -0.051845
C27   C     C_R   0.381362 0.765328 0.452501 0.138883
C28   C     C_R   0.615978 0.234253 0.548183 0.143258
C29   C     C_R   0.384712 0.844332 0.453461 -0.158364
C30   C     C_R   0.611233 0.155234 0.547545 -0.159729
C31   C     C_R   0.503828 0.885156 0.500483 0.034826
C32   C     C_R   0.491779 0.114715 0.500444 0.033970
Cu1   Cu    Cu3+1 0.499990 0.499980 0.580420 0.954442
Cu2   Cu    Cu3+1 0.500010 0.500020 0.419580 0.927784
H1    H     H_    0.979747 0.481204 0.408530 0.168911
H2    H     H_    0.020241 0.519017 0.591424 0.169047
H3    H     H_    0.706944 0.737170 0.583542 0.151437
H4    H     H_    0.291252 0.263273 0.416803 0.141884
H5    H     H_    0.293249 0.873990 0.417839 0.158277
H6    H     H_    0.701980 0.125316 0.583434 0.158585
H7    H     H_    0.649644 0.604938 0.866462 0.137802
H8    H     H_    0.365366 0.397887 0.128196 0.149952
H9    H     H_    0.364267 0.401499 0.857901 0.147818
H10   H     H_    0.634759 0.605588 0.145492 0.149519
N1    N     N_R   0.499960 0.499970 0.701210 -0.179808
N2    N     N_R   0.500040 0.500030 0.298790 -0.198297
O1    O     O_R   0.499990 0.391240 0.567930 -0.574834
O2    O     O_R   0.500010 0.608760 0.432070 -0.578947
O3    O     O_R   0.500000 0.391270 0.432120 -0.600958
O4    O     O_R   0.500000 0.608730 0.567880 -0.555574
O5    O     O_R   0.274830 0.499990 0.552240 -0.582617
O6    O     O_R   0.725170 0.500010 0.447760 -0.584569
O7    O     O_R   0.274840 0.500020 0.416420 -0.604138
O8    O     O_R   0.725160 0.499980 0.583580 -0.570216
C33   C     C_R   0.747630 0.888210 0.601435 0.122324
C34   C     C_R   0.834469 0.948351 0.570525 -0.151858
C35   C     C_R   0.950672 0.987620 0.621136 -0.144705
C36   C     C_R   0.983435 0.966380 0.702558 -0.104017
C37   C     C_R   0.899706 0.905951 0.733605 -0.136517
C38   C     C_R   0.782310 0.867004 0.683431 -0.154144
H11   H     H_    0.812073 0.964999 0.507380 0.122069
H12   H     H_    0.015099 0.034683 0.597349 0.120107
H13   H     H_    0.073654 0.996768 0.741588 0.121755
H14   H     H_    0.925198 0.889518 0.796719 0.124204
H15   H     H_    0.717301 0.820913 0.708797 0.118782
C39   C     C_R   0.248513 0.112291 0.399135 0.119653
C40   C     C_R   0.160870 0.052414 0.429963 -0.151389
C41   C     C_R   0.044408 0.013424 0.379250 -0.144082
C42   C     C_R   0.012222 0.034674 0.297799 -0.105899
C43   C     C_R   0.096780 0.094836 0.266826 -0.133390
C44   C     C_R   0.214414 0.133511 0.317107 -0.151828
H16   H     H_    0.182824 0.035760 0.493123 0.122122
H17   H     H_    0.979326 0.966571 0.402980 0.119753
H18   H     H_    0.921805 0.004502 0.258689 0.122059
H19   H     H_    0.071737 0.111274 0.203688 0.127204
H20   H     H_    0.280049 0.179405 0.291799 0.129084
N3    N     N_3   0.254274 0.725349 0.406290 -0.612327
H21   H     H_    0.295187 0.695479 0.360294 0.238271
H22   H     H_    0.207717 0.685713 0.444737 0.198509
N4    N     N_3   0.743322 0.273839 0.594622 -0.612691
H23   H     H_    0.702388 0.304064 0.640366 0.237851
H24   H     H_    0.791130 0.313093 0.556226 0.198140
N5    N     N_3   0.675753 0.611085 0.708564 -0.536915
H25   H     H_    0.641126 0.665170 0.721097 0.185918
H26   H     H_    0.789871 0.606821 0.734933 0.187494
N6    N     N_3   0.340519 0.380434 0.281094 -0.621466
H27   H     H_    0.274479 0.398392 0.324337 0.255924
H28   H     H_    0.416740 0.339348 0.303951 0.230865
C45   C     C_R   0.360733 0.372168 0.703677 0.154321
C46   C     C_R   0.440135 0.305145 0.720625 -0.173393
C47   C     C_R   0.378786 0.235942 0.687934 -0.130416
C48   C     C_R   0.238212 0.233134 0.637800 -0.098750
C49   C     C_R   0.157098 0.299157 0.622339 -0.153736
C50   C     C_R   0.215618 0.367961 0.657288 -0.110918
H29   H     H_    0.549679 0.306632 0.759126 0.121918
H30   H     H_    0.441187 0.184723 0.700613 0.136060
H31   H     H_    0.191988 0.179852 0.611163 0.125970
H32   H     H_    0.048632 0.296824 0.583618 0.146956
H33   H     H_    0.147354 0.417342 0.649149 0.132896
C51   C     C_R   0.637345 0.629605 0.299463 0.159774
C52   C     C_R   0.559328 0.697117 0.282790 -0.176711
C53   C     C_R   0.622171 0.766024 0.315563 -0.130442
C54   C     C_R   0.762870 0.768104 0.365553 -0.100586
C55   C     C_R   0.842743 0.701676 0.380645 -0.154256
C56   C     C_R   0.783002 0.633210 0.345364 -0.110669
H34   H     H_    0.449930 0.696265 0.244181 0.122331
H35   H     H_    0.560850 0.817584 0.303032 0.136366
H36   H     H_    0.810209 0.821149 0.392314 0.126117
H37   H     H_    0.951348 0.703472 0.419209 0.148562
H38   H     H_    0.850966 0.583693 0.352681 0.135093

loop_
_geom_bond_atom_site_label_1
_geom_bond_atom_site_label_2
_ccdc_geom_bond_type
C7    N5    S    
C33   C34   A    
C9    N1    A    
C49   C50   A    
C27   C29   A    
Cu1   N1    S    
C19   C20   D    
C56   H38   S    
C17   O5    A    
C35   C36   A    
C18   O6    A    
C35   H12   S    
N3    H21   S    
C21   C31   A    
C51   C56   A    
C52   C53   A    
C22   C32   A    
C7    N1    A    
C22   C24   A    
C24   C26   A    
C44   H20   S    
N6    H28   S    
C15   C16   T    
C36   H13   S    
C34   C35   A    
C18   C20   S    
C40   H16   S    
C45   C50   A    
C22   C39   S    
C2    O4    A    
C47   H30   S    
N5    H25   S    
C41   C42   A    
C10   N2    A    
C24   H4    S    
C11   H9    S    
C43   C44   A    
Cu2   N2    S    
C53   H35   S    
C5    C13   A    
C41   H17   S    
C39   C40   A    
C37   C38   A    
C33   C38   A    
C53   C54   A    
C55   C56   A    
C48   H31   S    
N3    H22   S    
C40   C41   A    
C46   H29   S    
N4    H24   S    
C9    C45   S    
C47   C48   A    
C5    C7    A    
N6    H27   S    
C1    O1    A    
C6    C8    A    
C2    O2    A    
C36   C37   A    
C23   H3    S    
C10   C51   S    
C6    C14   A    
C39   C44   A    
C29   H5    S    
Cu1   Cu2   S    
C37   H14   S    
C30   H6    S    
C42   H18   S    
C3    C31   S    
C9    C11   A    
C4    C32   S    
C10   C12   A    
N5    H26   S    
C12   C14   A    
C38   H15   S    
C13   C15   S    
C1    C26   S    
Cu1   O1    S    
C14   C16   S    
Cu2   O2    S    
C3    C4    T    
C17   O7    A    
C52   H34   S    
C21   C33   S    
Cu1   O8    S    
C5    H7    S    
Cu2   O3    S    
Cu2   O6    S    
N4    H23   S    
C27   N3    S    
Cu1   O5    S    
C26   C28   A    
C21   C23   A    
Cu1   O4    S    
C29   C31   A    
C19   H1    S    
C30   C32   A    
C11   C13   A    
C46   C47   A    
C55   H37   S    
C50   H33   S    
C28   C30   A    
C48   C49   A    
C17   C19   S    
C2    C25   S    
C8    N6    S    
C23   C25   A    
C42   C43   A    
C28   N4    S    
C8    N2    A    
C18   O8    A    
C20   H2    S    
C43   H19   S    
Cu2   O7    S    
C12   H10   S    
C6    H8    S    
C54   C55   A    
C34   H11   S    
C54   H36   S    
C51   C52   A    
C45   C46   A    
C1    O3    A    
C49   H32   S    
C25   C27   A    
