data_mof_unit_2749.cif
_audit_creation_date              2012-12-10T17:07:12-0500
_audit_creation_method            fapswitch 2.2
_symmetry_space_group_name_H-M    P1
_symmetry_Int_Tables_number       1
_space_group_crystal_system       triclinic
_cell_length_a                    10.270981
_cell_length_b                    10.709875
_cell_length_c                    13.606542
_cell_angle_alpha                 92.787689
_cell_angle_beta                  83.321484
_cell_angle_gamma                 89.674959
_cell_volume                      1484.71981388

loop_
_atom_site_label
_atom_site_type_symbol
_atom_type_description
_atom_site_fract_x
_atom_site_fract_y
_atom_site_fract_z
_atom_type_partial_charge
C1    C     C_R   0.499363 0.737101 0.495548 0.820273
C2    C     C_R   0.501877 0.264363 0.489718 0.940589
C3    C     C_R   0.523440 0.500062 0.315056 0.880098
C4    C     C_1   0.541196 0.504011 0.211460 -0.207286
C5    C     C_2   0.564068 0.513983 0.018660 0.591928
C6    C     C_2   0.450656 0.503645 0.980557 -0.287860
C7    C     C_1   0.450588 0.502749 0.876665 0.076831
C8    C     C_1   0.555240 0.508715 0.123848 -0.171053
C9    C     C_3   0.834556 0.653336 0.622677 0.296259
C10   C     C_3   0.873167 0.766502 0.559379 -0.371386
C11   C     C_3   0.803677 0.885414 0.605611 -0.943421
C12   C     C_1   0.459875 0.501714 0.788823 -0.162807
C13   C     C_3   0.791890 0.535419 0.008535 -0.306548
C14   C     C_3   0.739866 0.902027 0.290267 0.070459
C15   C     C_3   0.644729 0.856694 0.217555 -0.381433
C16   C     C_3   0.689477 0.895361 0.112667 -0.936917
C17   C     C_3   0.266544 0.914672 0.496442 0.097756
C18   C     C_3   0.269908 0.890307 0.382652 -0.403465
C19   C     C_3   0.132766 0.864261 0.354262 -0.925045
C20   C     C_3   0.136117 0.627765 0.632480 -0.034536
C21   C     C_2   0.610231 0.064320 0.451405 -0.257882
C22   C     C_2   0.505381 0.137616 0.452919 -0.311181
C23   C     C_2   0.597920 0.928690 0.435338 0.399994
C24   C     C_2   0.494652 0.870940 0.484523 0.234205
C25   C     C_2   0.083104 0.437010 0.436979 0.082035
C26   C     C_2   0.938024 0.447287 0.431593 0.035335
C27   C     C_R   0.476607 0.500551 0.684955 0.866284
H1    H     H_    0.358046 0.492963 0.026878 0.116406
H2    H     H_    0.695793 0.874266 0.614476 0.271623
H3    H     H_    0.830093 0.964662 0.557907 0.271473
H4    H     H_    0.835417 0.907995 0.679684 0.251837
H5    H     H_    0.805564 0.447826 0.047039 0.168118
H6    H     H_    0.784856 0.617981 0.061773 0.169927
H7    H     H_    0.880111 0.547167 0.954628 0.183962
H8    H     H_    0.838521 0.861783 0.264235 0.168350
H9    H     H_    0.751036 0.005322 0.289986 0.138076
H10   H     H_    0.638860 0.753248 0.217447 0.232868
H11   H     H_    0.545273 0.896482 0.241352 0.202859
H12   H     H_    0.703500 0.101374 0.468781 0.171833
H13   H     H_    0.691253 0.998905 0.110494 0.263805
H14   H     H_    0.620334 0.858500 0.061636 0.273829
H15   H     H_    0.788937 0.856945 0.086868 0.255992
H16   H     H_    0.202455 0.997834 0.517646 0.159730
H17   H     H_    0.216787 0.837832 0.536225 0.189324
H18   H     H_    0.308524 0.972267 0.342563 0.195991
H19   H     H_    0.333065 0.808499 0.355601 0.225955
H20   H     H_    0.095474 0.775616 0.385239 0.291468
H21   H     H_    0.136526 0.854776 0.272345 0.253248
H22   H     H_    0.064156 0.942028 0.382117 0.254165
H23   H     H_    0.416817 0.103992 0.426233 0.171636
H24   H     H_    0.232865 0.669595 0.634856 0.169893
H25   H     H_    0.125068 0.540671 0.674167 0.161548
H26   H     H_    0.072387 0.699306 0.675050 0.068250
H27   H     H_    0.136048 0.366851 0.387368 0.045315
H28   H     H_    0.902428 0.404648 0.366017 0.052312
H29   H     H_    0.861902 0.672986 0.698294 0.091125
H30   H     H_    0.729062 0.653739 0.636533 0.176207
H31   H     H_    0.977960 0.788730 0.554642 0.235542
H32   H     H_    0.849860 0.747908 0.482753 0.281006
N1    N     N_2   0.147970 0.498670 0.498970 0.101208
N2    N     N_2   0.852310 0.498640 0.498940 0.079321
O1    O     O_R   0.386960 0.680940 0.500020 -0.621186
O2    O     O_3   0.681032 0.527922 0.956326 -0.593646
O3    O     O_3   0.701923 0.858435 0.385804 -0.662872
O4    O     O_3   0.388764 0.939921 0.533610 -0.678770
O5    O     O_3   0.102387 0.611294 0.534396 -0.541212
O6    O     O_R   0.613100 0.680900 0.499980 -0.613172
O7    O     O_R   0.370650 0.500000 0.640370 -0.645146
O8    O     O_R   0.596800 0.499960 0.640330 -0.604850
O9    O     O_R   0.386900 0.319100 0.500020 -0.624016
O10   O     O_R   0.613040 0.319060 0.499980 -0.612479
O11   O     O_R   0.403200 0.500040 0.359670 -0.616622
O12   O     O_R   0.629350 0.500000 0.359630 -0.619389
O13   O     O_3   0.892187 0.534823 0.587063 -0.529596
Zn1   Zn    Zn3+2 0.349000 0.500030 0.500020 0.953444
Zn2   Zn    Zn3+2 0.651000 0.499970 0.499980 0.974082

loop_
_geom_bond_atom_site_label_1
_geom_bond_atom_site_label_2
_ccdc_geom_bond_type
C2    C22   S    
C5    C8    S    
C23   C24   D    
C17   H16   S    
C15   H11   S    
C13   H6    S    
C6    C7    S    
O6    Zn2   S    
C25   N1    D    
N2    O13   S    
C9    C10   S    
C19   H22   S    
C13   H5    S    
C17   O4    S    
C21   H12   S    
C22   H23   S    
C4    C8    T    
C14   O3    S    
C26   H28   S    
C10   H32   S    
C17   H17   S    
C11   H4    S    
C13   H7    S    
C20   H25   S    
C9    H29   S    
C2    O9    A    
C21   C22   D    
C1    O1    A    
O7    Zn1   S    
C11   H2    S    
C5    C6    D    
C24   O4    S    
C16   H13   S    
O11   Zn1   S    
C18   H19   S    
C20   O5    S    
C23   O3    S    
C10   H31   S    
C26   N2    D    
C17   C18   S    
C20   H24   S    
C9    H30   S    
C13   O2    S    
C21   C23   S    
N2    Zn2   S    
C14   H9    S    
C7    C12   T    
C3    O12   A    
O12   Zn2   S    
C19   H20   S    
O1    Zn1   S    
C9    O13   S    
C12   C27   S    
N1    O5    S    
C2    O10   A    
C18   H18   S    
C16   H15   S    
O10   Zn2   S    
C14   H8    S    
C3    O11   A    
C25   H27   S    
C5    O2    S    
C1    C24   S    
C18   C19   S    
C10   C11   S    
O9    Zn1   S    
C14   C15   S    
C15   H10   S    
C27   O7    A    
N1    Zn1   S    
C1    O6    A    
C25   C26   S    
C19   H21   S    
O8    Zn2   S    
C16   H14   S    
C6    H1    S    
C3    C4    S    
C15   C16   S    
C11   H3    S    
C20   H26   S    
C27   O8    A    
