data_mof_unit_4494.cif
_audit_creation_date              2012-12-10T18:47:08-0500
_audit_creation_method            fapswitch 2.2
_symmetry_space_group_name_H-M    P1
_symmetry_Int_Tables_number       1
_space_group_crystal_system       triclinic
_cell_length_a                    10.671396
_cell_length_b                    9.808025
_cell_length_c                    14.964835
_cell_angle_alpha                 89.9729
_cell_angle_beta                  90.108719
_cell_angle_gamma                 89.951618
_cell_volume                      1566.29567079

loop_
_atom_site_label
_atom_site_type_symbol
_atom_type_description
_atom_site_fract_x
_atom_site_fract_y
_atom_site_fract_z
_atom_type_partial_charge
C1    C     C_R   0.260167 0.500010 0.489317 1.046522
C2    C     C_R   0.128478 0.499789 0.465361 -0.353368
C3    C     C_R   0.554019 0.071945 0.568558 0.002474
C4    C     C_R   0.447207 0.928084 0.430991 0.036877
C5    C     C_R   0.447235 0.072104 0.430981 0.039397
C6    C     C_R   0.554026 0.927859 0.568555 0.003375
C7    C     C_R   0.500107 0.500071 0.327130 1.005515
C8    C     C_R   0.499754 0.499959 0.672724 1.037184
C9    C     C_R   0.612322 0.500795 0.812595 0.286873
C10   C     C_R   0.386555 0.502904 0.187128 0.299797
C11   C     C_R   0.498128 0.499855 0.767775 -0.250325
C12   C     C_R   0.739669 0.499879 0.489313 1.043108
C13   C     C_R   0.500931 0.500609 0.231865 -0.237539
C14   C     C_R   0.382728 0.501178 0.811828 0.321294
C15   C     C_R   0.615861 0.498638 0.187251 0.332688
C16   C     C_R   0.380757 0.494447 0.905941 -0.060214
C17   C     C_R   0.617341 0.509346 0.093421 -0.061339
C18   C     C_R   0.497723 0.501453 0.952674 -0.044146
C19   C     C_R   0.500437 0.503208 0.046776 -0.047672
C20   C     C_R   0.612563 0.506396 0.905482 -0.011090
C21   C     C_R   0.385850 0.498636 0.094135 -0.013953
C22   C     C_R   0.268353 0.481574 0.955854 0.432289
C23   C     C_R   0.272472 0.487063 0.048078 -0.137282
C24   C     C_R   0.729515 0.525192 0.043812 0.438249
C25   C     C_R   0.725722 0.520073 0.951607 -0.146273
C26   C     C_R   0.064708 0.374938 0.452624 0.357174
C27   C     C_R   0.934513 0.623805 0.450698 0.357299
C28   C     C_R   0.935054 0.374613 0.453000 0.368265
C29   C     C_R   0.064220 0.624165 0.451453 0.366531
C30   C     C_R   0.870988 0.499434 0.465177 -0.360119
Cl1   Cl    Cl    0.754259 0.497659 0.750161 -0.547466
Cl2   Cl    Cl    0.141461 0.781591 0.430664 -0.405742
Cl3   Cl    Cl    0.244888 0.507370 0.249483 -0.540554
Cl4   Cl    Cl    0.246523 0.523927 0.744736 -0.477284
Cl5   Cl    Cl    0.752169 0.466870 0.252217 -0.471303
Cl6   Cl    Cl    0.118322 0.444722 0.911953 -0.418317
Cl7   Cl    Cl    0.877791 0.567907 0.088523 -0.406177
Cl8   Cl    Cl    0.142425 0.217577 0.431899 -0.412416
Cl9   Cl    Cl    0.855966 0.779975 0.427032 -0.376208
Cl10  Cl    Cl    0.857543 0.216442 0.434002 -0.370195
H1    H     H_    0.184626 0.477825 0.083508 0.260130
H2    H     H_    0.813468 0.531190 0.916286 0.258704
H3    H     H_    0.597401 0.126565 0.623216 0.160675
H4    H     H_    0.405065 0.873548 0.375828 0.178014
H5    H     H_    0.405136 0.126789 0.375799 0.177039
H6    H     H_    0.597411 0.873086 0.623213 0.159612
N1    N     N_R   0.500000 0.857200 0.500000 -0.101196
N2    N     N_R   0.500000 0.142800 0.500000 -0.101111
O1    O     O_R   0.316770 0.614620 0.499990 -0.574503
O2    O     O_R   0.683230 0.385380 0.500010 -0.576187
O3    O     O_R   0.683230 0.614620 0.500010 -0.580655
O4    O     O_R   0.316770 0.385380 0.499990 -0.578994
O5    O     O_R   0.499980 0.614680 0.367850 -0.617463
O6    O     O_R   0.500020 0.385320 0.632150 -0.616610
O7    O     O_R   0.500020 0.614680 0.632150 -0.611807
O8    O     O_R   0.499980 0.385320 0.367850 -0.611468
Zn1   Zn    Zn3+2 0.500000 0.653120 0.500000 1.074744
Zn2   Zn    Zn3+2 0.500000 0.346880 0.500000 1.075150

loop_
_geom_bond_atom_site_label_1
_geom_bond_atom_site_label_2
_ccdc_geom_bond_type
C25   H2    S    
C14   Cl4   S    
C12   O2    A    
C1    O1    A    
N2    Zn2   S    
O3    Zn1   S    
N1    Zn1   S    
C22   Cl6   S    
C9    C20   A    
C26   C28   A    
C23   H1    S    
C6    H6    S    
C3    C6    A    
C12   C30   S    
C9    Cl1   S    
C28   C30   A    
C24   Cl7   S    
O1    Zn1   S    
C29   Cl2   S    
C2    C26   A    
O7    Zn1   S    
C5    H5    S    
C27   C30   A    
C9    C11   A    
C3    H3    S    
O4    Zn2   S    
C7    O8    A    
C8    C11   S    
C8    O7    A    
C15   Cl5   S    
C5    N2    A    
O8    Zn2   S    
C1    C2    S    
C10   Cl3   S    
C18   C20   A    
C13   C15   A    
C21   C23   A    
O6    Zn2   S    
C1    O4    A    
C14   C16   A    
C17   C24   A    
C27   C29   A    
C6    N1    A    
C7    O5    A    
O2    Zn2   S    
C3    N2    A    
C7    C13   S    
C12   O3    A    
C2    C29   A    
C24   C25   A    
C16   C18   A    
C18   C19   A    
C20   C25   A    
C8    O6    A    
C11   C14   A    
C15   C17   A    
C28   Cl10  S    
C22   C23   A    
C26   Cl8   S    
C16   C22   A    
C4    H4    S    
C17   C19   A    
C10   C21   A    
C10   C13   A    
C27   Cl9   S    
C4    C5    A    
C19   C21   A    
C4    N1    A    
O5    Zn1   S    
