data_mof_unit_614.cif
_audit_creation_date              2012-10-26T21:25:58-0400
_audit_creation_method            fapswitch 2.2
_symmetry_space_group_name_H-M    P1
_symmetry_Int_Tables_number       1
_space_group_crystal_system       triclinic
_cell_length_a                    11.028738
_cell_length_b                    10.918146
_cell_length_c                    12.662454
_cell_angle_alpha                 91.498469
_cell_angle_beta                  92.554576
_cell_angle_gamma                 90.139646
_cell_volume                      1522.68272289

loop_
_atom_site_label
_atom_site_type_symbol
_atom_type_description
_atom_site_fract_x
_atom_site_fract_y
_atom_site_fract_z
_atom_type_partial_charge
C1    C     C_R   0.261761 0.501483 0.500779 0.528398
C2    C     C_R   0.858757 0.671544 0.268103 0.039176
C3    C     C_R   0.134957 0.450654 0.696561 0.055279
C4    C     C_R   0.865013 0.549495 0.303445 0.055624
C5    C     C_R   0.170580 0.547915 0.766146 -0.011908
C6    C     C_R   0.829362 0.452231 0.233870 -0.011770
C7    C     C_R   0.208261 0.525265 0.870416 -0.080809
C8    C     C_R   0.791668 0.474877 0.129601 -0.080757
C9    C     C_R   0.210668 0.405650 0.906318 -0.116886
C10   C     C_R   0.789279 0.594489 0.093690 -0.116778
C11   C     C_R   0.940932 0.476901 0.594066 -0.015059
C12   C     C_R   0.738241 0.498558 0.499218 0.528463
C13   C     C_R   0.059079 0.523296 0.405929 -0.015077
C14   C     C_R   0.871939 0.496558 0.498597 -0.056949
C15   C     C_R   0.128065 0.503565 0.501394 -0.056996
C16   C     C_R   0.500861 0.261742 0.502100 0.542707
C17   C     C_R   0.499149 0.738260 0.497901 0.542673
C18   C     C_R   0.931830 0.519885 0.404558 -0.058436
C19   C     C_R   0.068170 0.480260 0.595432 -0.058519
C20   C     C_2   0.482751 0.455289 0.031964 -0.178772
C21   C     C_2   0.517223 0.544715 0.968034 -0.178750
C22   C     C_1   0.519123 0.528868 0.852672 0.155162
C23   C     C_R   0.499097 0.871756 0.495145 -0.003454
C24   C     C_1   0.480865 0.471134 0.147327 0.155066
C25   C     C_R   0.703251 0.208711 0.828338 -0.095901
C26   C     C_R   0.296723 0.791357 0.171684 -0.095926
C27   C     C_R   0.666319 0.170831 0.725619 -0.063695
C28   C     C_R   0.333677 0.829240 0.274395 -0.063806
C29   C     C_R   0.551297 0.118135 0.704648 0.021302
C30   C     C_R   0.448720 0.881885 0.295356 0.021315
C31   C     C_R   0.473580 0.100559 0.789474 0.025657
C32   C     C_R   0.526422 0.899455 0.210518 0.025653
C33   C     C_R   0.512198 0.139773 0.892260 -0.088106
C34   C     C_R   0.500935 0.128249 0.504857 -0.003448
C35   C     C_R   0.487781 0.860245 0.107737 -0.088114
C36   C     C_R   0.626240 0.193455 0.911303 -0.111177
C37   C     C_R   0.373728 0.806582 0.088710 -0.111193
C38   C     C_R   0.523638 0.935142 0.591324 -0.147745
C39   C     C_R   0.476402 0.064864 0.408678 -0.147757
C40   C     C_2   0.881372 0.446182 0.693340 0.267688
C41   C     C_2   0.118675 0.554213 0.306706 0.267396
C42   C     C_2   0.354377 0.038190 0.772252 0.220707
C43   C     C_2   0.645620 0.961837 0.227720 0.220636
C44   C     C_2   0.102400 0.224075 0.660898 0.190566
C45   C     C_R   0.476432 0.937905 0.401819 -0.052427
C46   C     C_2   0.897601 0.776075 0.339090 0.190613
C47   C     C_R   0.523608 0.062103 0.598183 -0.052429
C48   C     C_R   0.179145 0.307798 0.837415 -0.072864
C49   C     C_R   0.820825 0.692343 0.162584 -0.072678
C50   C     C_R   0.141217 0.328605 0.731897 0.038893
Cu1   Cu    Cu3+1 0.492140 0.492110 0.395880 1.002776
Cu2   Cu    Cu3+1 0.507860 0.507890 0.604120 1.002997
H1    H     H_    0.655475 0.221799 0.990929 0.138218
H2    H     H_    0.545288 0.872399 0.041624 0.154272
H3    H     H_    0.543625 0.885632 0.663174 0.153795
H4    H     H_    0.456411 0.114373 0.336828 0.153777
H5    H     H_    0.235739 0.388630 0.988164 0.144355
H6    H     H_    0.764206 0.611505 0.011843 0.144378
H7    H     H_    0.181429 0.216074 0.867630 0.198057
H8    H     H_    0.818561 0.784063 0.132359 0.198046
H9    H     H_    0.232574 0.600780 0.924264 0.120732
H10   H     H_    0.767336 0.399359 0.075761 0.120639
H11   H     H_    0.818541 0.370314 0.692838 0.103833
H12   H     H_    0.344477 0.778239 0.009088 0.138208
H13   H     H_    0.181915 0.629745 0.307444 0.104200
H14   H     H_    0.544046 0.633167 0.002261 0.121561
H15   H     H_    0.455923 0.366839 0.997737 0.121564
H16   H     H_    0.316350 0.020904 0.692796 0.153935
H17   H     H_    0.683670 0.979113 0.307170 0.153959
H18   H     H_    0.085691 0.237222 0.576886 0.114687
H19   H     H_    0.914327 0.762930 0.423100 0.114683
H20   H     H_    0.163625 0.641715 0.740740 0.136494
H21   H     H_    0.836311 0.358432 0.259280 0.136361
H22   H     H_    0.792724 0.247632 0.844278 0.142157
H23   H     H_    0.207238 0.752455 0.155760 0.142462
H24   H     H_    0.728825 0.178447 0.662524 0.110604
H25   H     H_    0.271173 0.821672 0.337496 0.110555
H26   H     H_    0.454682 0.127611 0.958365 0.154273
N1    N     N_1   0.480320 0.480250 0.239400 -0.181538
N2    N     N_1   0.519680 0.519750 0.760600 -0.181455
O1    O     O_R   0.313000 0.493330 0.412070 -0.495451
O2    O     O_2   0.100070 0.493336 0.225297 -0.499970
O3    O     O_2   0.297599 0.003940 0.846745 -0.509143
O4    O     O_2   0.702366 0.996119 0.153218 -0.509171
O5    O     O_2   0.087206 0.122106 0.695493 -0.494553
O6    O     O_2   0.912803 0.878040 0.304489 -0.494582
O7    O     O_R   0.687000 0.506670 0.587930 -0.495167
O8    O     O_R   0.326280 0.506660 0.587930 -0.503547
O9    O     O_R   0.673720 0.493340 0.412070 -0.503654
O10   O     O_R   0.493370 0.312980 0.412070 -0.504173
O11   O     O_R   0.506630 0.687020 0.587930 -0.504161
O12   O     O_R   0.506650 0.326310 0.587930 -0.500042
O13   O     O_R   0.493350 0.673690 0.412070 -0.500067
O14   O     O_2   0.899512 0.507640 0.774497 -0.499692

loop_
_geom_bond_atom_site_label_1
_geom_bond_atom_site_label_2
_ccdc_geom_bond_type
C16   O10   A    
C23   C45   A    
C31   C42   S    
C21   H14   S    
C27   C29   A    
C14   C18   A    
C20   H15   S    
C17   O11   A    
C13   C41   S    
C2    C46   S    
C15   C19   A    
C11   C19   A    
C17   C23   S    
C49   H8    S    
C13   C18   A    
C29   C47   S    
C10   H6    S    
C5    H20   S    
Cu1   O10   S    
C11   C14   A    
C33   H26   S    
C1    O1    A    
C33   C36   A    
C25   H22   S    
C7    H9    S    
C36   H1    S    
C30   C45   S    
C16   C34   S    
C38   H3    S    
C20   C24   S    
C31   C33   A    
C3    C19   S    
C1    C15   S    
Cu1   O1    S    
C39   C45   A    
C4    C18   S    
C1    O8    A    
C48   C50   A    
C43   H17   S    
C21   C22   S    
C35   H2    S    
C42   H16   S    
C43   O4    D    
C3    C50   A    
Cu1   Cu2   S    
C32   C35   A    
C12   O9    A    
Cu2   O8    S    
C4    C6    A    
C5    C7    A    
C41   H13   S    
C34   C39   A    
C2    C4    A    
C2    C49   A    
C24   N1    T    
C39   H4    S    
C26   H23   S    
C38   C47   A    
C48   H7    S    
C44   H18   S    
C28   H25   S    
C40   H11   S    
C46   H19   S    
Cu1   O13   S    
C12   C14   S    
C16   O12   A    
C13   C15   A    
Cu2   O12   S    
C17   O13   A    
C27   H24   S    
C37   H12   S    
C6    H21   S    
C44   C50   S    
C7    C9    A    
C12   O7    A    
C35   C37   A    
Cu2   O7    S    
C42   O3    D    
C40   O14   D    
C3    C5    A    
C6    C8    A    
C26   C37   A    
C25   C27   A    
C23   C38   A    
C26   C28   A    
C28   C30   A    
C22   N2    T    
C29   C31   A    
Cu1   O9    S    
C30   C32   A    
C41   O2    D    
C32   C43   S    
C9    H5    S    
C11   C40   S    
Cu1   N1    S    
C25   C36   A    
C20   C21   D    
C9    C48   A    
C8    C10   A    
Cu2   O11   S    
C34   C47   A    
Cu2   N2    S    
C10   C49   A    
C44   O5    D    
C8    H10   S    
C46   O6    D    
