data_mof_unit_174.cif
_audit_creation_date              2012-12-11T16:01:33-0500
_audit_creation_method            fapswitch 2.2
_symmetry_space_group_name_H-M    P1
_symmetry_Int_Tables_number       1
_space_group_crystal_system       triclinic
_cell_length_a                    23.667288
_cell_length_b                    25.722169
_cell_length_c                    8.4566
_cell_angle_alpha                 90.0
_cell_angle_beta                  98.899532
_cell_angle_gamma                 90.002423
_cell_volume                      5086.18004058

loop_
_atom_site_label
_atom_site_type_symbol
_atom_type_description
_atom_site_fract_x
_atom_site_fract_y
_atom_site_fract_z
_atom_type_partial_charge
Ba1   Ba    Ba6+2 0.999910 0.463090 0.844860 1.621069
Ba2   Ba    Ba6+2 0.999910 0.536910 0.344860 1.619850
Ba3   Ba    Ba6+2 0.499910 0.963090 0.844860 1.621056
Ba4   Ba    Ba6+2 0.499910 0.036910 0.344860 1.619834
C1    C     C_3   0.043498 0.220419 0.584605 -0.236353
C2    C     C_R   0.826864 0.652208 0.579457 -0.126109
C3    C     C_3   0.560302 0.301742 0.252319 -0.335825
C4    C     C_2   0.204049 0.653490 0.278973 0.930712
C5    C     C_2   0.203800 0.346251 0.779923 0.930338
C6    C     C_2   0.704058 0.153485 0.278974 0.930686
C7    C     C_2   0.703794 0.846254 0.779921 0.930373
C8    C     C_2   0.159257 0.752892 0.763063 0.870037
C9    C     C_2   0.159199 0.247065 0.263352 0.870365
C10   C     C_2   0.659261 0.252890 0.763065 0.870048
C11   C     C_2   0.659190 0.747057 0.263374 0.870371
C12   C     C_3   0.086992 0.570885 0.794287 -0.222864
C13   C     C_R   0.326875 0.847773 0.079417 -0.126091
C14   C     C_3   0.087149 0.429109 0.294563 -0.222613
C15   C     C_3   0.586997 0.070883 0.794287 -0.222878
C16   C     C_3   0.587154 0.929109 0.294561 -0.222604
C17   C     C_R   0.326867 0.152209 0.579450 -0.126112
C18   C     C_R   0.814034 0.305559 0.175214 -0.015511
C19   C     C_R   0.814018 0.694412 0.675273 -0.015924
C20   C     C_R   0.314032 0.805560 0.175213 -0.015514
C21   C     C_R   0.314022 0.194414 0.675261 -0.015926
C22   C     C_R   0.845844 0.299586 0.329650 -0.128108
C23   C     C_R   0.845839 0.700395 0.829688 -0.127696
C24   C     C_R   0.345842 0.799586 0.329649 -0.128104
C25   C     C_3   0.043503 0.779582 0.084381 -0.235582
C26   C     C_R   0.345841 0.200397 0.829679 -0.127696
C27   C     C_R   0.889995 0.334715 0.386395 -0.002412
C28   C     C_R   0.889999 0.665278 0.886409 -0.002763
C29   C     C_R   0.389994 0.834715 0.386394 -0.002414
C30   C     C_R   0.390000 0.165278 0.886405 -0.002767
C31   C     C_R   0.172886 0.656771 0.112175 -0.124089
C32   C     C_R   0.172766 0.343106 0.612761 -0.127072
C33   C     C_R   0.672892 0.156769 0.112177 -0.124080
C34   C     C_R   0.672762 0.843105 0.612765 -0.126970
C35   C     C_R   0.134692 0.616306 0.045969 -0.004218
C36   C     C_3   0.543494 0.720417 0.584604 -0.236352
C37   C     C_R   0.134613 0.383601 0.546372 -0.002950
C38   C     C_R   0.634695 0.116305 0.045971 -0.004214
C39   C     C_R   0.634610 0.883600 0.546374 -0.002912
C40   C     C_R   0.116944 0.663946 0.790317 -0.003655
C41   C     C_R   0.116905 0.336005 0.290644 -0.003373
C42   C     C_R   0.616948 0.163944 0.790318 -0.003663
C43   C     C_R   0.616901 0.836001 0.290650 -0.003373
C44   C     C_R   0.152830 0.705052 0.857366 -0.102358
C45   C     C_R   0.152770 0.294893 0.357708 -0.101123
C46   C     C_R   0.652834 0.205050 0.857369 -0.102361
C47   C     C_3   0.543505 0.279582 0.084378 -0.235591
C48   C     C_R   0.652764 0.794888 0.357721 -0.101137
C49   C     C_R   0.183628 0.700200 0.014991 -0.093005
C50   C     C_R   0.183548 0.299720 0.515387 -0.092068
C51   C     C_R   0.683632 0.200198 0.014994 -0.093009
C52   C     C_R   0.683542 0.799717 0.515401 -0.092071
C53   C     C_3   0.978299 0.277224 0.087151 0.319466
C54   C     C_3   0.978302 0.722761 0.586902 0.320839
C55   C     C_3   0.478295 0.777225 0.087148 0.319458
C56   C     C_3   0.478303 0.222761 0.586881 0.320861
C57   C     C_1   0.229284 0.738195 0.071916 0.095568
C58   C     C_R   0.871728 0.382614 0.135733 0.059086
C59   C     C_1   0.229229 0.261738 0.572130 0.096957
C60   C     C_1   0.729287 0.238193 0.071920 0.095547
C61   C     C_1   0.729224 0.761736 0.572153 0.096971
C62   C     C_1   0.767583 0.269134 0.118065 0.063321
C63   C     C_1   0.767543 0.730812 0.618191 0.064363
C64   C     C_1   0.267581 0.769135 0.118062 0.063332
C65   C     C_1   0.267548 0.230814 0.618172 0.064366
C66   C     C_R   0.112423 0.618501 0.880631 -0.224356
C67   C     C_R   0.112417 0.381440 0.380966 -0.223417
C68   C     C_R   0.612427 0.118499 0.880632 -0.224363
C69   C     C_R   0.871728 0.617380 0.635745 0.059139
C70   C     C_R   0.612415 0.881438 0.380968 -0.223428
C71   C     C_3   0.950615 0.224197 0.096017 -0.348460
C72   C     C_3   0.950609 0.775781 0.595808 -0.350740
C73   C     C_3   0.450610 0.724198 0.096021 -0.348449
C74   C     C_3   0.450611 0.275780 0.595807 -0.350783
C75   C     C_3   0.197166 0.493821 0.092558 0.165303
C76   C     C_3   0.197569 0.506018 0.593121 0.175730
C77   C     C_3   0.697164 0.993819 0.092566 0.165281
C78   C     C_3   0.697545 0.006047 0.593132 0.175716
C79   C     C_3   0.247271 0.526608 0.052617 -0.161171
C80   C     C_R   0.371728 0.882614 0.135732 0.059085
C81   C     C_3   0.247310 0.472857 0.552150 -0.271435
C82   C     C_3   0.747260 0.026616 0.052583 -0.161242
C83   C     C_3   0.747286 0.972918 0.551999 -0.271328
C84   C     C_3   0.837538 0.533739 0.955454 0.323639
C85   C     C_3   0.837539 0.466257 0.455444 0.323715
C86   C     C_3   0.337539 0.033739 0.955453 0.323639
C87   C     C_3   0.337538 0.966258 0.455444 0.323715
C88   C     C_3   0.784515 0.568343 0.946133 -0.230105
C89   C     C_3   0.784516 0.431648 0.446112 -0.230173
C90   C     C_3   0.284516 0.068344 0.946132 -0.230103
C91   C     C_R   0.371729 0.117380 0.635743 0.059149
C92   C     C_3   0.284515 0.931649 0.446111 -0.230172
C93   C     C_3   0.017706 0.274805 0.587414 0.372343
C94   C     C_3   0.017695 0.725200 0.087146 0.372596
C95   C     C_3   0.517703 0.774803 0.587412 0.372346
C96   C     C_3   0.517694 0.225200 0.087125 0.372579
C97   C     C_R   0.903678 0.374728 0.287119 -0.278616
C98   C     C_R   0.903683 0.625269 0.787124 -0.278623
C99   C     C_R   0.403677 0.874728 0.287118 -0.278618
C100  C     C_R   0.403683 0.125268 0.787123 -0.278619
C101  C     C_2   0.300307 0.519487 0.173184 0.926200
C102  C     C_R   0.826876 0.347772 0.079418 -0.126090
C103  C     C_2   0.300646 0.477907 0.674221 0.945006
C104  C     C_2   0.800314 0.019486 0.173069 0.926235
C105  C     C_2   0.800613 0.977862 0.674152 0.945336
C106  C     C_3   0.739064 0.554188 0.804217 -0.378248
C107  C     C_3   0.739065 0.445805 0.304202 -0.378345
C108  C     C_3   0.239065 0.054189 0.804216 -0.378252
C109  C     C_3   0.239064 0.945807 0.304201 -0.378346
C110  C     C_3   0.060212 0.198206 0.752507 -0.334238
C111  C     C_3   0.060289 0.801753 0.252314 -0.335821
C112  C     C_3   0.560206 0.698203 0.752505 -0.334227
H1    H     H_    0.047022 0.299943 0.669877 0.072360
H2    H     H_    0.234363 0.431581 0.537576 0.074931
H3    H     H_    0.021998 0.806112 0.311920 0.169929
H4    H     H_    0.080186 0.840584 0.244784 0.120155
H5    H     H_    0.091707 0.775826 0.324759 0.175579
H6    H     H_    0.521883 0.693842 0.811973 0.170745
H7    H     H_    0.591616 0.724104 0.825092 0.175029
H8    H     H_    0.580087 0.659367 0.744943 0.120830
H9    H     H_    0.522016 0.306100 0.311945 0.169937
H10   H     H_    0.580202 0.340574 0.244802 0.120156
H11   H     H_    0.591721 0.275810 0.324738 0.175584
H12   H     H_    0.246627 0.609847 0.455529 0.298485
H13   H     H_    0.735332 0.068211 0.041400 0.047920
H14   H     H_    0.246105 0.389878 0.957520 0.324940
H15   H     H_    0.746636 0.109836 0.455530 0.298477
H16   H     H_    0.746122 0.889889 0.957478 0.324913
H17   H     H_    0.174313 0.784494 0.555481 0.311943
H18   H     H_    0.174279 0.215490 0.055759 0.312110
H19   H     H_    0.674321 0.284491 0.555484 0.311944
H20   H     H_    0.674261 0.715476 0.055780 0.312103
H21   H     H_    0.106278 0.535534 0.846369 0.101910
H22   H     H_    0.040285 0.569163 0.796102 0.126699
H23   H     H_    0.097921 0.568691 0.671741 0.129945
H24   H     H_    0.734317 0.931657 0.537076 0.074766
H25   H     H_    0.106584 0.464408 0.346809 0.102196
H26   H     H_    0.098068 0.431248 0.172001 0.129474
H27   H     H_    0.040439 0.430939 0.296244 0.126502
H28   H     H_    0.606287 0.035533 0.846369 0.101887
H29   H     H_    0.540290 0.069159 0.796105 0.126714
H30   H     H_    0.597924 0.068691 0.671739 0.129900
H31   H     H_    0.606595 0.964405 0.346814 0.102180
H32   H     H_    0.598074 0.931246 0.172000 0.129463
H33   H     H_    0.540443 0.930945 0.296239 0.126515
H34   H     H_    0.852692 0.532665 0.838068 0.000768
H35   H     H_    0.852694 0.467336 0.338059 0.000759
H36   H     H_    0.352692 0.032665 0.838067 0.000769
H37   H     H_    0.352693 0.967336 0.338059 0.000759
H38   H     H_    0.871305 0.550548 0.046989 0.054788
H39   H     H_    0.871305 0.449449 0.546977 0.054819
H40   H     H_    0.371306 0.050548 0.046987 0.054789
H41   H     H_    0.047039 0.700036 0.169439 0.072271
H42   H     H_    0.371305 0.949449 0.546976 0.054817
H43   H     H_    0.796636 0.609568 0.934793 0.072517
H44   H     H_    0.796638 0.390425 0.434757 0.072514
H45   H     H_    0.296638 0.109569 0.934791 0.072518
H46   H     H_    0.296637 0.890426 0.434754 0.072515
H47   H     H_    0.766129 0.564552 0.058901 0.130977
H48   H     H_    0.766130 0.435434 0.558882 0.130886
H49   H     H_    0.266130 0.064553 0.058900 0.130977
H50   H     H_    0.266129 0.935435 0.558881 0.130886
H51   H     H_    0.014510 0.290884 0.464424 -0.103555
H52   H     H_    0.547020 0.799941 0.669872 0.072353
H53   H     H_    0.014432 0.709156 0.964099 -0.103635
H54   H     H_    0.514507 0.790881 0.464422 -0.103564
H55   H     H_    0.514424 0.209163 0.964068 -0.103623
H56   H     H_    0.082394 0.222521 0.526600 0.116575
H57   H     H_    0.082368 0.777487 0.026232 0.116650
H58   H     H_    0.582390 0.722518 0.526601 0.116574
H59   H     H_    0.582365 0.277490 0.026209 0.116659
H60   H     H_    0.906300 0.228953 0.121596 0.084294
H61   H     H_    0.906273 0.771008 0.621211 0.085112
H62   H     H_    0.406295 0.728956 0.121586 0.084299
H63   H     H_    0.547039 0.200032 0.169399 0.072253
H64   H     H_    0.406272 0.271005 0.621174 0.085085
H65   H     H_    0.835658 0.268398 0.406582 0.112920
H66   H     H_    0.835648 0.731576 0.906632 0.114822
H67   H     H_    0.335656 0.768400 0.406581 0.112928
H68   H     H_    0.335651 0.231578 0.906621 0.114832
H69   H     H_    0.801445 0.354149 0.963136 0.101557
H70   H     H_    0.801424 0.645825 0.463190 0.101609
H71   H     H_    0.301444 0.854150 0.963135 0.101558
H72   H     H_    0.301428 0.145826 0.463181 0.101610
H73   H     H_    0.937319 0.401832 0.332027 0.055286
H74   H     H_    0.257507 0.514085 0.935317 0.082936
H75   H     H_    0.937328 0.598170 0.832021 0.055269
H76   H     H_    0.437319 0.901832 0.332026 0.055287
H77   H     H_    0.437327 0.098169 0.832023 0.055269
H78   H     H_    0.012452 0.193998 0.512445 0.134163
H79   H     H_    0.012442 0.806025 0.012372 0.134719
H80   H     H_    0.512447 0.693996 0.512442 0.134171
H81   H     H_    0.512443 0.306030 0.012396 0.134722
H82   H     H_    0.953392 0.299491 0.987298 0.099099
H83   H     H_    0.953428 0.700515 0.486947 0.099229
H84   H     H_    0.453389 0.799491 0.987293 0.099101
H85   H     H_    0.257995 0.485870 0.435873 0.074732
H86   H     H_    0.453434 0.200520 0.486902 0.099247
H87   H     H_    0.976543 0.297570 0.201898 -0.041902
H88   H     H_    0.976506 0.702387 0.701578 -0.041807
H89   H     H_    0.476539 0.797572 0.201892 -0.041904
H90   H     H_    0.476498 0.202378 0.701540 -0.041787
H91   H     H_    0.948970 0.203428 0.980404 0.137462
H92   H     H_    0.949017 0.796583 0.480269 0.135774
H93   H     H_    0.448969 0.703426 0.980415 0.137476
H94   H     H_    0.449031 0.296592 0.480286 0.135771
H95   H     H_    0.975426 0.200721 0.193030 0.128259
H96   H     H_    0.757477 0.014104 0.935259 0.082968
H97   H     H_    0.975381 0.799233 0.692955 0.128232
H98   H     H_    0.475419 0.700725 0.193045 0.128251
H99   H     H_    0.475377 0.299224 0.692986 0.128221
H100  H     H_    0.212444 0.453901 0.125233 0.070568
H101  H     H_    0.213191 0.545747 0.626633 0.026085
H102  H     H_    0.712454 0.953900 0.125256 0.070524
H103  H     H_    0.713157 0.045777 0.626713 0.025935
H104  H     H_    0.164495 0.488823 0.989710 0.103021
H105  H     H_    0.164899 0.511446 0.490359 0.115353
H106  H     H_    0.664485 0.988809 0.989734 0.103026
H107  H     H_    0.758003 0.986031 0.435872 0.074867
H108  H     H_    0.664855 0.011485 0.490415 0.115399
H109  H     H_    0.360193 0.470105 0.282001 0.320010
H110  H     H_    0.312642 0.553479 0.623555 0.275542
H111  H     H_    0.860223 0.970094 0.281734 0.320031
H112  H     H_    0.812597 0.053506 0.624345 0.275333
H113  H     H_    0.755836 0.560263 0.690129 0.137913
H114  H     H_    0.725702 0.513004 0.812332 0.157835
H115  H     H_    0.701035 0.579473 0.804125 0.128531
H116  H     H_    0.755836 0.439733 0.190111 0.138029
H117  H     H_    0.701035 0.420518 0.304107 0.128285
H118  H     H_    0.235345 0.568203 0.041385 0.047899
H119  H     H_    0.725705 0.486988 0.312325 0.157819
H120  H     H_    0.255837 0.060264 0.690128 0.137914
H121  H     H_    0.225703 0.013005 0.812331 0.157835
H122  H     H_    0.201036 0.079474 0.804125 0.128529
H123  H     H_    0.255835 0.939734 0.190110 0.138030
H124  H     H_    0.201033 0.920520 0.304106 0.128285
H125  H     H_    0.225704 0.986989 0.312326 0.157818
H126  H     H_    0.021890 0.193843 0.811977 0.170740
H127  H     H_    0.091622 0.224107 0.825093 0.175021
H128  H     H_    0.080094 0.159370 0.744946 0.120826
O1    O     O_2   0.888900 0.426190 0.854560 -0.460328
O2    O     O_3   0.035005 0.729120 0.559875 -0.597426
O3    O     O_3   0.534979 0.770882 0.059940 -0.597377
O4    O     O_3   0.535009 0.229121 0.559887 -0.597435
O5    O     O_3   0.064650 0.525760 0.074400 -0.506045
O6    O     O_3   0.064650 0.474240 0.574400 -0.507120
O7    O     O_3   0.564650 0.025760 0.074400 -0.506037
O8    O     O_3   0.564650 0.974240 0.574400 -0.507143
O9    O     O_3   0.935290 0.474120 0.115310 -0.501977
O10   O     O_3   0.935290 0.525880 0.615310 -0.502002
O11   O     O_3   0.435290 0.974120 0.115310 -0.501977
O12   O     O_2   0.888900 0.573810 0.354560 -0.460394
O13   O     O_3   0.435290 0.025880 0.615310 -0.501999
O14   O     O_3   0.980700 0.380570 0.633410 -0.491482
O15   O     O_3   0.980700 0.619430 0.133410 -0.491525
O16   O     O_3   0.480700 0.880570 0.633410 -0.491480
O17   O     O_3   0.480700 0.119430 0.133410 -0.491521
O18   O     O_2   0.887804 0.336826 0.718087 -0.483219
O19   O     O_2   0.887818 0.663184 0.218109 -0.482994
O20   O     O_2   0.387803 0.836827 0.718086 -0.483217
O21   O     O_2   0.387818 0.163185 0.218105 -0.483000
O22   O     O_3   0.822958 0.483566 0.998263 -0.641907
O23   O     O_2   0.388900 0.926190 0.854560 -0.460326
O24   O     O_3   0.822958 0.516428 0.498263 -0.641902
O25   O     O_3   0.322958 0.983566 0.998262 -0.641907
O26   O     O_3   0.322958 0.016429 0.498264 -0.641902
O27   O     O_3   0.963704 0.272126 0.637618 -0.590656
O28   O     O_3   0.963731 0.727871 0.137578 -0.590080
O29   O     O_3   0.463702 0.772126 0.637618 -0.590649
O30   O     O_3   0.463733 0.227870 0.137576 -0.590082
O31   O     O_2   0.110790 0.425640 0.834940 -0.446190
O32   O     O_2   0.110790 0.574360 0.334940 -0.446730
O33   O     O_2   0.610790 0.925640 0.834940 -0.446245
O34   O     O_2   0.388900 0.073810 0.354560 -0.460395
O35   O     O_2   0.610790 0.074360 0.334940 -0.446771
O36   O     O_3   0.018840 0.380480 0.055970 -0.511153
O37   O     O_3   0.018840 0.619520 0.555970 -0.511394
O38   O     O_3   0.518840 0.880480 0.055970 -0.511150
O39   O     O_3   0.518840 0.119520 0.555970 -0.511391
O40   O     O_2   0.105684 0.334036 0.951406 -0.431897
O41   O     O_2   0.105640 0.665952 0.451055 -0.431210
O42   O     O_2   0.605683 0.834035 0.951412 -0.431878
O43   O     O_2   0.605641 0.165952 0.451055 -0.431208
O44   O     O_2   0.322696 0.556915 0.246914 -0.583008
O45   O     O_3   0.173844 0.485932 0.721431 -0.628641
O46   O     O_R   0.324680 0.470083 0.197851 -0.751589
O47   O     O_2   0.319899 0.439827 0.750100 -0.528318
O48   O     O_R   0.329917 0.525115 0.698781 -0.718042
O49   O     O_2   0.822712 0.056903 0.246812 -0.582976
O50   O     O_R   0.824695 0.970081 0.197641 -0.751589
O51   O     O_2   0.819874 0.939704 0.749598 -0.528348
O52   O     O_R   0.829875 0.025060 0.699245 -0.718065
O53   O     O_2   0.212629 0.692874 0.360062 -0.578741
O54   O     O_R   0.225180 0.606117 0.342807 -0.737057
O55   O     O_2   0.212851 0.306722 0.860110 -0.577712
O56   O     O_3   0.173703 0.513930 0.221251 -0.634110
O57   O     O_R   0.224171 0.393673 0.845295 -0.728196
O58   O     O_2   0.712634 0.192867 0.360074 -0.578739
O59   O     O_R   0.725193 0.106111 0.342799 -0.737052
O60   O     O_2   0.712816 0.806728 0.860150 -0.577679
O61   O     O_R   0.724199 0.893678 0.845233 -0.728146
O62   O     O_2   0.156534 0.795655 0.824648 -0.634134
O63   O     O_R   0.169780 0.749223 0.605562 -0.694765
O64   O     O_2   0.156450 0.204293 0.324866 -0.634395
O65   O     O_R   0.169753 0.250754 0.105884 -0.693938
O66   O     O_2   0.656536 0.295653 0.824645 -0.634132
O67   O     O_3   0.673854 0.985919 0.721442 -0.628647
O68   O     O_R   0.669789 0.249220 0.605567 -0.694770
O69   O     O_2   0.656447 0.704288 0.324902 -0.634404
O70   O     O_R   0.669736 0.750742 0.105897 -0.693920
O71   O     O_3   0.673702 0.013931 0.221260 -0.634086
O72   O     O_3   0.034983 0.270883 0.059944 -0.597383
P1    P     P_3+3 0.883430 0.443490 0.026090 0.978087
P2    P     P_3+3 0.070325 0.669231 0.589686 0.988402
P3    P     P_3+3 0.570314 0.830762 0.089917 0.988245
P4    P     P_3+3 0.570327 0.169230 0.589689 0.988389
P5    P     P_3+3 0.928978 0.668337 0.093407 0.953958
P6    P     P_3+3 0.928970 0.331663 0.593406 0.953173
P7    P     P_3+3 0.428979 0.168338 0.093405 0.953948
P8    P     P_3+3 0.428969 0.831664 0.593405 0.953180
P9    P     P_3+3 0.883430 0.556510 0.526090 0.978043
P10   P     P_3+3 0.383430 0.943490 0.026090 0.978088
P11   P     P_3+3 0.383430 0.056510 0.526090 0.978041
P12   P     P_3+3 0.116320 0.442910 0.663460 0.987486
P13   P     P_3+3 0.116320 0.557090 0.163460 0.985568
P14   P     P_3+3 0.616320 0.942910 0.663460 0.987447
P15   P     P_3+3 0.616320 0.057090 0.163460 0.985553
P16   P     P_3+3 0.070316 0.330763 0.089914 0.988228

loop_
_geom_bond_atom_site_label_1
_geom_bond_atom_site_label_2
_ccdc_geom_bond_type
C31   C49   A    
Ba4   O34   S    
H16   O61   S    
C27   C97   A    
C24   H67   S    
C87   H37   S    
C97   H73   S    
C11   O70   S    
C85   H39   S    
C78   H108  S    
C50   C59   S    
C78   C83   S    
Ba4   O39   S    
C16   H33   S    
C33   C38   A    
H17   O63   S    
C106  H114  S    
C76   H105  S    
C94   H53   S    
C71   H91   S    
C72   H97   S    
Ba4   P15   S    
Ba1   P1    S    
C30   P7    S    
C8    O62   D    
C100  H77   S    
C40   C66   A    
C42   C68   A    
C77   C82   S    
O7    P15   S    
C58   C97   A    
Ba3   O13   S    
C54   H88   S    
C90   H49   S    
C73   H98   S    
Ba2   O37   S    
C35   P13   S    
C82   C104  S    
C101  O44   D    
Ba4   O8    S    
C86   H36   S    
C72   H61   S    
O33   P14   D    
C79   C101  S    
C4    C31   S    
C83   H107  S    
C94   H41   S    
C38   C68   A    
C98   H75   S    
O10   P9    S    
C56   H86   S    
C4    O54   S    
C24   C29   A    
C108  H122  S    
H14   O57   S    
C43   P3    S    
C21   C65   S    
O40   P16   D    
O34   P11   D    
Ba1   O10   S    
C2    C69   A    
C91   P11   S    
Ba1   O14   S    
C14   C67   S    
O41   P2    D    
O29   P8    S    
C80   P10   S    
C71   H60   S    
Ba3   O16   S    
O43   P4    D    
C12   H22   S    
C43   C70   A    
C6    O58   D    
C104  O49   D    
H109  O46   S    
C43   C48   A    
C58   C102  A    
C17   C91   A    
C2    H70   S    
H112  O52   S    
C85   O24   S    
C39   P14   S    
O5    P13   S    
C34   C39   A    
C18   C102  A    
C36   H58   S    
C10   C46   S    
C92   H46   S    
C9    O65   S    
C3    H10   S    
C93   H1    S    
O56   P13   S    
O18   P6    D    
C53   O72   S    
Ba1   O1    S    
C40   P2    S    
C40   C44   A    
C1    H78   S    
C69   P9    S    
C110  H128  S    
O24   P9    S    
C111  H5    S    
C112  H7    S    
C41   C67   A    
C9    O64   D    
O26   P11   S    
C79   H74   S    
C83   H24   S    
O17   P7    S    
C54   C72   S    
C77   H106  S    
C56   C74   S    
O13   P11   S    
H15   O59   S    
C14   H27   S    
Ba3   O7    S    
Ba1   O5    S    
Ba3   O33   S    
O25   P10   S    
C19   C63   S    
C87   H42   S    
O45   P12   S    
O67   P14   S    
C49   C57   S    
C78   O67   S    
C78   H103  S    
C59   C65   T    
C5    C32   S    
C16   H32   S    
C47   H81   S    
C74   H94   S    
C37   C67   A    
Ba2   O15   S    
C87   C92   S    
O42   P3    D    
O31   P12   D    
Ba3   O38   S    
C44   C49   A    
C54   H83   S    
C15   H30   S    
C26   C30   A    
C12   C66   S    
Ba2   O5    S    
C76   H101  S    
C105  O51   D    
O30   P7    S    
C25   H79   S    
O27   P6    S    
C96   O30   S    
C84   H38   S    
C27   P6    S    
C10   O68   S    
C55   H84   S    
C90   H45   S    
C38   P15   S    
C88   H47   S    
C75   H100  S    
C110  H126  S    
O3    P3    S    
O20   P8    D    
C58   P1    S    
C111  H3    S    
O4    P4    S    
C86   H40   S    
Ba3   Ba4   S    
O71   P15   S    
C103  O48   S    
C17   H72   S    
C47   C96   S    
Ba3   P14   S    
C17   C21   A    
C14   H25   S    
C20   C24   A    
C1    C93   S    
C74   H99   S    
O9    P1    S    
C13   C80   A    
O6    P12   S    
C53   C71   S    
C11   O69   D    
C56   H90   S    
C7    O60   D    
C90   C108  S    
C102  H69   S    
C1    H56   S    
O32   P13   D    
C28   C98   A    
C85   C89   S    
C32   C50   A    
C106  H115  S    
C33   C51   A    
C72   H92   S    
C34   C52   A    
C55   O3    S    
C3    H11   S    
O8    P14   S    
C15   H28   S    
C7    O61   S    
C8    C44   S    
C87   O26   S    
C95   H54   S    
C71   H95   S    
C112  H6    S    
C25   C94   S    
C37   P12   S    
C74   H64   S    
C10   O66   D    
C82   H96   S    
C1    C110  S    
C109  H124  S    
C61   C63   T    
C107  H119  S    
C81   H85   S    
C55   H89   S    
C32   C37   A    
O15   P5    S    
C86   C90   S    
Ba3   O23   S    
C54   O2    S    
C25   H57   S    
C6    O59   S    
O16   P8    S    
C104  O50   S    
C93   O27   S    
C94   O28   S    
C108  H120  S    
O72   P16   S    
C89   H44   S    
C31   C35   A    
C76   C81   S    
C106  H113  S    
C41   C45   A    
C53   H87   S    
C16   C70   S    
C11   C48   S    
C3    H9    S    
C47   H59   S    
O1    P1    D    
H19   O68   S    
C89   C107  S    
C69   C98   A    
C6    C33   S    
C92   C109  S    
C86   O25   S    
Ba2   O9    S    
C95   H52   S    
C21   C26   A    
O12   P9    D    
C112  H8    S    
C23   C28   A    
C29   C99   A    
C84   H34   S    
O36   P16   S    
C46   C51   A    
Ba4   O7    S    
C83   C105  S    
Ba2   P9    S    
H111  O50   S    
H20   O70   S    
C3    C47   S    
C75   C79   S    
C75   H104  S    
C13   H71   S    
C107  H117  S    
O37   P2    S    
C81   H2    S    
C5    O55   D    
Ba1   P12   S    
O39   P4    S    
C20   C64   S    
H18   O65   S    
C22   H65   S    
C85   H35   S    
Ba3   P10   S    
C4    O53   D    
C108  H121  S    
C18   C22   A    
Ba4   O35   S    
O28   P5    S    
C52   C61   S    
C60   C62   T    
C53   H82   S    
C7    C34   S    
C12   H21   S    
C88   C106  S    
C55   C73   S    
C36   C95   S    
C95   O29   S    
O23   P10   D    
C15   H29   S    
Ba2   P13   S    
C88   H43   S    
Ba2   O6    S    
C76   O45   S    
C2    C19   A    
C45   C50   A    
O11   P10   S    
C8    O63   S    
Ba1   Ba2   S    
C101  O46   S    
C18   C62   S    
C77   O71   S    
C84   C88   S    
Ba4   O17   S    
H110  O48   S    
C19   C23   A    
C73   H93   S    
C39   C70   A    
C110  H127  S    
C22   C27   A    
C96   H55   S    
C107  H116  S    
C15   C68   S    
C103  O47   D    
C13   C20   A    
C14   H26   S    
Ba3   O8    S    
Ba1   O36   S    
Ba1   O6    S    
C89   H48   S    
C93   H51   S    
Ba4   P11   S    
C30   C100  A    
C29   P8    S    
C28   P5    S    
O38   P3    S    
O21   P7    D    
C5    O57   S    
O19   P5    D    
C79   H118  S    
C51   C60   S    
C16   H31   S    
C41   P16   S    
C9    C45   S    
C56   O4    S    
C109  H125  S    
C92   H50   S    
C12   H23   S    
C91   C100  A    
C36   H80   S    
C26   H68   S    
O35   P15   D    
O14   P6    S    
Ba2   O12   S    
C75   O56   S    
C82   H13   S    
H12   O54   S    
C105  O52   S    
C42   C46   A    
C73   H62   S    
C23   H66   S    
O2    P2    S    
C57   C64   T    
C84   O22   S    
C36   C112  S    
C77   H102  S    
C35   C66   A    
C25   C111  S    
Ba1   O31   S    
Ba2   O32   S    
O22   P1    S    
C109  H123  S    
C111  H4    S    
C42   P4    S    
C80   C99   A    
C99   H76   S    
Ba4   O11   S    
C81   C103  S    
C96   H63   S    
C48   C52   A    
