data_mof_unit_2807.cif
_audit_creation_date              2012-12-10T19:27:26-0500
_audit_creation_method            fapswitch 2.2
_symmetry_space_group_name_H-M    P1
_symmetry_Int_Tables_number       1
_space_group_crystal_system       triclinic
_cell_length_a                    22.185032
_cell_length_b                    10.570597
_cell_length_c                    9.870924
_cell_angle_alpha                 88.760109
_cell_angle_beta                  88.996606
_cell_angle_gamma                 92.697139
_cell_volume                      2311.31717795

loop_
_atom_site_label
_atom_site_type_symbol
_atom_type_description
_atom_site_fract_x
_atom_site_fract_y
_atom_site_fract_z
_atom_type_partial_charge
C1    C     C_R   0.501135 0.258005 0.501178 1.023279
C2    C     C_R   0.498375 0.741770 0.499052 1.025535
C3    C     C_R   0.230824 0.570916 0.394417 0.441866
C4    C     C_R   0.765346 0.366140 0.508536 0.415097
C5    C     C_R   0.291332 0.587204 0.434309 -0.223265
C6    C     C_R   0.705175 0.389492 0.541341 -0.249171
C7    C     C_R   0.321058 0.488418 0.497979 -0.194496
C8    C     C_R   0.678045 0.495902 0.487999 -0.175984
C9    C     C_R   0.286007 0.379427 0.540623 0.406508
C10   C     C_R   0.713831 0.584641 0.409560 0.394089
C11   C     C_R   0.226627 0.364602 0.498632 -0.206711
C12   C     C_R   0.771088 0.552636 0.365726 -0.180342
C13   C     C_R   0.202493 0.446574 0.401871 0.047607
C14   C     C_R   0.793778 0.432904 0.395266 0.052482
C15   C     C_3   0.502336 0.036972 0.632173 -0.438167
C16   C     C_3   0.496102 0.962459 0.369710 -0.430707
C17   C     C_3   0.548811 0.958714 0.556529 0.485616
C18   C     C_3   0.449525 0.040557 0.445783 0.483176
C19   C     C_3   0.497435 0.876625 0.498152 -0.294074
C20   C     C_3   0.501205 0.122818 0.503406 -0.290806
C21   C     C_3   0.450660 0.953978 0.572392 0.378018
C22   C     C_3   0.547974 0.044871 0.429812 0.377701
C23   C     C_R   0.387697 0.496723 0.500847 0.956332
C24   C     C_R   0.612129 0.502757 0.498058 0.969484
C25   C     C_3   0.499151 0.386463 0.050836 0.301290
C26   C     C_3   0.501117 0.613871 0.949416 0.303886
C27   C     C_3   0.546842 0.445454 0.952570 0.267371
C28   C     C_3   0.453311 0.555059 0.047827 0.271488
C29   C     C_3   0.452535 0.440943 0.956196 0.283898
C30   C     C_3   0.547588 0.559311 0.044678 0.287148
C31   C     C_R   0.874328 0.462423 0.217457 0.573974
C32   C     C_R   0.121886 0.285825 0.345807 0.561505
C33   C     C_R   0.869679 0.273272 0.343119 0.697453
C34   C     C_R   0.126862 0.474213 0.219709 0.684477
C35   C     C_R   0.932366 0.257270 0.322569 -0.175170
C36   C     C_R   0.064262 0.461763 0.190454 -0.169242
C37   C     C_R   0.966601 0.360604 0.261338 -0.114725
C38   C     C_R   0.029854 0.364592 0.261971 -0.099655
C39   C     C_R   0.936964 0.458211 0.195538 -0.127214
C40   C     C_R   0.059385 0.268671 0.330702 -0.144936
C41   C     C_R   0.962936 0.148617 0.367004 0.312107
C42   C     C_R   0.033982 0.543568 0.100276 0.241164
C43   C     C_R   0.026240 0.159653 0.381605 0.416961
C44   C     C_R   0.970329 0.547674 0.111476 0.434926
H1    H     H_    0.315325 0.677847 0.416419 0.206127
H2    H     H_    0.680448 0.327264 0.613182 0.220323
H3    H     H_    0.199966 0.285638 0.542077 0.229672
H4    H     H_    0.798543 0.625132 0.312706 0.229483
H5    H     H_    0.504921 0.070260 0.737519 0.197000
H6    H     H_    0.493133 0.929524 0.264311 0.199854
N1    N     N_R   0.846827 0.389911 0.320293 -0.337328
N2    N     N_R   0.149315 0.404096 0.324183 -0.332727
N3    N     N_3   0.499960 0.500030 0.863290 -0.199318
N4    N     N_3   0.500040 0.499970 0.136710 -0.199535
O1    O     O_R   0.500000 0.313960 0.616610 -0.585252
O2    O     O_R   0.500000 0.686040 0.383390 -0.585750
O3    O     O_R   0.500030 0.313950 0.383350 -0.533096
O4    O     O_R   0.499970 0.686050 0.616650 -0.531810
O5    O     O_R   0.416140 0.499970 0.616650 -0.511512
O6    O     O_R   0.583860 0.500030 0.383350 -0.526625
O7    O     O_R   0.416170 0.499960 0.383400 -0.570118
O8    O     O_R   0.583830 0.500040 0.616600 -0.566799
O9    O     O_2   0.841177 0.531310 0.132740 -0.467614
O10   O     O_2   0.154974 0.184481 0.370948 -0.463276
O11   O     O_2   0.832207 0.176159 0.384257 -0.414891
O12   O     O_2   0.164625 0.552476 0.146176 -0.410933
Zn1   Zn    Zn3+2 0.499980 0.500010 0.655740 1.148465
Zn2   Zn    Zn3+2 0.500020 0.499990 0.344260 1.141059
S1    S     S_3+6 0.925112 0.998106 0.401194 0.099026
O13   O     O_2   0.880020 0.970094 0.292681 -0.236341
O14   O     O_2   0.968750 0.893446 0.403356 -0.284167
O15   O     O_3   0.888705 0.999567 0.551975 -0.401420
H7    H     H_    0.917259 0.966782 0.618672 0.367908
S2    S     S_3+6 0.072916 0.636099 0.969333 0.141349
O16   O     O_2   0.116954 0.555075 0.898342 -0.189914
O17   O     O_2   0.030145 0.684116 0.865813 -0.204874
O18   O     O_3   0.110987 0.761089 0.035022 -0.413126
H8    H     H_    0.089121 0.779344 0.120095 0.368769
S3    S     S_3+6 0.612782 0.370543 0.894134 0.053088
O19   O     O_2   0.595374 0.273399 0.791515 -0.409439
O20   O     O_2   0.657627 0.466604 0.832043 -0.280572
O21   O     O_3   0.644768 0.299182 0.026612 -0.445200
H9    H     H_    0.677135 0.249707 0.986377 0.394318
S4    S     S_3+6 0.387171 0.629046 0.107783 0.042087
O22   O     O_2   0.342530 0.531711 0.167904 -0.316964
O23   O     O_2   0.404152 0.724473 0.212500 -0.403794
O24   O     O_3   0.354591 0.702361 0.977541 -0.442530
H10   H     H_    0.322121 0.750476 0.019343 0.391310
O25   O     O_3   0.497100 0.265621 0.114763 -0.531107
C45   C     C_3   0.498912 0.169949 0.017911 -0.159873
H11   H     H_    0.546090 0.143990 0.999984 0.238667
H12   H     H_    0.478022 0.194949 0.919962 0.144619
H13   H     H_    0.473672 0.084891 0.059692 0.132086
O26   O     O_3   0.504333 0.734857 0.885889 -0.532613
C46   C     C_3   0.499745 0.830048 0.982601 -0.163161
H14   H     H_    0.517973 0.804444 0.083264 0.150939
H15   H     H_    0.452166 0.856063 0.993776 0.237441
H16   H     H_    0.526055 0.915209 0.944654 0.131468
O27   O     O_3   0.400441 0.380736 0.902471 -0.541936
C47   C     C_3   0.367569 0.308253 0.003637 -0.023616
H17   H     H_    0.320124 0.336810 0.004520 0.239821
H18   H     H_    0.384267 0.318093 0.108764 0.159079
H19   H     H_    0.367603 0.206612 0.977976 0.153382
O28   O     O_3   0.599314 0.617828 0.102325 -0.555964
C48   C     C_3   0.632533 0.694715 0.005831 -0.052532
H20   H     H_    0.619898 0.679959 0.898467 0.175570
H21   H     H_    0.681014 0.675197 0.014581 0.234522
H22   H     H_    0.627435 0.795826 0.029321 0.150629
O29   O     O_3   0.055639 0.063761 0.446750 -0.509483
C49   C     C_3   0.057089 0.089049 0.586537 -0.037125
H23   H     H_    0.010919 0.095326 0.630880 0.125415
H24   H     H_    0.084377 0.177544 0.606199 0.136269
H25   H     H_    0.078726 0.009930 0.639464 0.229689
O30   O     O_3   0.940580 0.637636 0.037872 -0.536373
C50   C     C_3   0.937618 0.747799 0.115409 0.002059
H26   H     H_    0.983256 0.791451 0.132728 0.140101
H27   H     H_    0.913628 0.728044 0.214112 0.175558
H28   H     H_    0.911814 0.818101 0.058380 0.212660
S5    S     S_3+6 0.190906 0.712073 0.375710 0.112700
O31   O     O_2   0.123752 0.686027 0.382895 -0.257035
O32   O     O_2   0.207569 0.799770 0.488115 -0.239810
O33   O     O_3   0.210616 0.785285 0.227471 -0.435886
H29   H     H_    0.254231 0.808164 0.234874 0.344413
S6    S     S_3+6 0.805719 0.293328 0.640671 0.106053
O34   O     O_2   0.872671 0.318588 0.623603 -0.256663
O35   O     O_2   0.786312 0.346107 0.773946 -0.233638
O36   O     O_3   0.789531 0.136385 0.645226 -0.418875
H30   H     H_    0.747464 0.126969 0.680197 0.341452
S7    S     S_3+6 0.311185 0.252039 0.638690 0.093536
O37   O     O_2   0.281171 0.254885 0.776005 -0.287861
O38   O     O_2   0.290975 0.131464 0.572050 -0.195456
O39   O     O_3   0.385945 0.255392 0.654514 -0.522752
H31   H     H_    0.393435 0.194026 0.728427 0.402659
S8    S     S_3+6 0.693692 0.742451 0.379587 0.105779
O40   O     O_2   0.714123 0.819262 0.497937 -0.182888
O41   O     O_2   0.725422 0.795512 0.253398 -0.277484
O42   O     O_3   0.619081 0.752883 0.363445 -0.528374
H32   H     H_    0.613893 0.811822 0.285868 0.404554
O43   O     O_3   0.600056 0.903013 0.610402 -0.528925
C51   C     C_3   0.628617 0.986080 0.701387 -0.065613
H33   H     H_    0.637270 0.082493 0.655932 0.178359
H34   H     H_    0.672697 0.948249 0.728466 0.196722
H35   H     H_    0.601685 0.991231 0.796552 0.122709
O44   O     O_3   0.397840 0.096332 0.394049 -0.549523
C52   C     C_3   0.369172 0.014741 0.301714 -0.077883
H36   H     H_    0.362704 0.916274 0.342751 0.197235
H37   H     H_    0.394904 0.015337 0.204412 0.120435
H38   H     H_    0.323882 0.049782 0.280354 0.205227
S9    S     S_3+6 0.387484 0.889922 0.672411 0.067836
O45   O     O_2   0.397539 0.756322 0.717145 -0.215750
O46   O     O_2   0.379748 0.968481 0.795954 -0.327504
O47   O     O_3   0.324070 0.889253 0.582833 -0.507781
H39   H     H_    0.291387 0.870090 0.650847 0.432061
S10   S     S_3+6 0.613073 0.102838 0.332529 0.057514
O48   O     O_2   0.611924 0.043663 0.195535 -0.328719
O49   O     O_2   0.613072 0.244118 0.314648 -0.257607
O50   O     O_3   0.676645 0.065152 0.410584 -0.486460
H40   H     H_    0.709834 0.099268 0.349948 0.422366

loop_
_geom_bond_atom_site_label_1
_geom_bond_atom_site_label_2
_ccdc_geom_bond_type
C26   O26   S    
O24   H10   S    
O50   H40   S    
C28   S4    S    
C18   C21   S    
C11   H3    S    
C46   H14   S    
C51   H35   S    
C12   H4    S    
C34   O12   S    
S8    O42   S    
O30   C50   S    
C46   H16   S    
C33   O11   S    
O18   H8    S    
C23   O5    A    
C48   H21   S    
S2    O17   D    
O8    Zn1   S    
C41   S1    S    
C28   C29   S    
C35   C37   A    
C16   H6    S    
C27   S3    S    
S9    O46   D    
C33   C35   A    
N4    Zn2   S    
C50   H26   S    
O1    Zn1   S    
C4    S6    S    
C15   C17   S    
S1    O14   D    
C49   H23   S    
C32   N2    A    
O5    Zn1   S    
C36   C42   A    
C40   C43   A    
O27   C47   S    
O39   H31   S    
C50   H27   S    
S2    O18   S    
C24   O8    A    
S4    O24   S    
C21   S9    S    
S10   O49   D    
C3    C13   A    
S7    O39   S    
C32   C40   A    
O42   H32   S    
C44   O30   S    
C27   N3    S    
C27   C30   S    
C41   C43   A    
O26   C46   S    
C42   C44   A    
C35   C41   A    
C10   C12   A    
O28   C48   S    
C52   H37   S    
C52   H36   S    
C5    C7    A    
S5    O32   D    
C25   C29   S    
C15   C20   S    
C48   H22   S    
C42   S2    S    
S2    O16   D    
C29   O27   S    
C31   O9    S    
C51   H33   S    
C32   O10   S    
S10   O50   S    
C4    C6    A    
S9    O47   S    
S3    O20   D    
C28   N4    S    
O15   H7    S    
S8    O41   D    
C25   O25   S    
O2    Zn2   S    
C5    H1    S    
C47   H19   S    
S1    O15   S    
C37   C38   A    
C1    O3    A    
C13   N2    S    
C30   N4    S    
C45   H12   S    
C14   N1    S    
C23   O7    A    
C24   O6    A    
C50   H28   S    
C47   H18   S    
C17   O43   S    
S4    O22   D    
S5    O31   D    
C9    C11   A    
C49   H25   S    
S10   O48   D    
S8    O40   D    
C3    S5    S    
C25   N4    S    
S6    O36   S    
C16   C18   S    
C12   C14   A    
C26   C30   S    
C33   N1    A    
C20   C22   S    
O3    Zn2   S    
C17   C19   S    
O36   H30   S    
O25   C45   S    
C26   N3    S    
C52   H38   S    
C45   H13   S    
S6    O35   D    
S7    O37   D    
C22   S10   S    
S5    O33   S    
C7    C9    A    
C46   H15   S    
C1    C20   S    
C16   C22   S    
C6    H2    S    
C19   C21   S    
C2    C19   S    
C34   N2    A    
C10   S8    S    
C31   N1    A    
O44   C52   S    
C3    C5    A    
S3    O21   S    
C6    C8    A    
O43   C51   S    
C2    O4    A    
C39   C44   A    
C51   H34   S    
C9    S7    S    
C25   C27   S    
C48   H20   S    
C26   C28   S    
C17   C22   S    
C18   O44   S    
C1    O1    A    
C37   C39   A    
C2    O2    A    
S9    O45   D    
C38   C40   A    
C11   C13   A    
O7    Zn2   S    
C45   H11   S    
C29   N3    S    
C16   C19   S    
C7    C23   S    
C36   C38   A    
C47   H17   S    
C8    C24   S    
C34   C36   A    
C31   C39   A    
C18   C20   S    
C15   H5    S    
C4    C14   A    
S1    O13   D    
N3    Zn1   S    
C49   H24   S    
S3    O19   D    
O4    Zn1   S    
C15   C21   S    
O47   H39   S    
O6    Zn2   S    
C8    C10   A    
O21   H9    S    
C30   O28   S    
S4    O23   D    
C43   O29   S    
O33   H29   S    
O29   C49   S    
S6    O34   D    
S7    O38   D    
