data_mof_unit_2515.cif
_audit_creation_date              2012-12-11T15:11:45-0500
_audit_creation_method            fapswitch 2.2
_symmetry_space_group_name_H-M    P1
_symmetry_Int_Tables_number       1
_space_group_crystal_system       triclinic
_cell_length_a                    20.004956
_cell_length_b                    7.17229
_cell_length_c                    13.901846
_cell_angle_alpha                 90.55571
_cell_angle_beta                  103.150122
_cell_angle_gamma                 89.413512
_cell_volume                      1942.19296884

loop_
_atom_site_label
_atom_site_type_symbol
_atom_type_description
_atom_site_fract_x
_atom_site_fract_y
_atom_site_fract_z
_atom_type_partial_charge
O1    O     O_R   0.449830 0.506740 0.599960 -0.544497
O2    O     O_R   0.550170 0.006740 0.400040 -0.530825
O3    O     O_R   0.588980 0.179860 0.596720 -0.527381
O4    O     O_R   0.411020 0.679860 0.403280 -0.524437
C1    C     C_R   0.617454 0.343893 0.614697 0.718399
C2    C     C_R   0.383006 0.845082 0.383625 0.765976
O5    O     O_R   0.452740 0.177340 0.612040 -0.543708
O6    O     O_R   0.547260 0.677340 0.387960 -0.537334
O7    O     O_R   0.412960 0.002070 0.415460 -0.526382
O8    O     O_R   0.587040 0.502070 0.584540 -0.557991
C3    C     C_R   0.435933 0.346842 0.636133 0.681205
C4    C     C_R   0.564819 0.843892 0.364437 0.722257
O9    O     O_3   0.487110 0.337570 0.435490 -0.359851
O10   O     O_3   0.512890 0.837570 0.564510 -0.385247
V1    V     V_3+5 0.502390 0.064650 0.511970 1.500914
V2    V     V_3+5 0.497610 0.564650 0.488030 1.492153
C5    C     C_R   0.613965 0.833800 0.122565 -0.098063
C6    C     C_R   0.387430 0.444390 0.873605 -0.107778
H1    H     H_    0.520541 0.871614 0.170332 0.157469
H2    H     H_    0.480154 0.449139 0.822621 0.140483
H3    H     H_    0.694041 0.793803 0.001416 0.190631
H4    H     H_    0.308423 0.458449 0.997430 0.165358
H5    H     H_    0.587499 0.833371 0.045281 0.145576
H6    H     H_    0.413572 0.484315 0.947969 0.162093
C7    C     C_R   0.607941 0.843812 0.293069 -0.119555
C8    C     C_R   0.393998 0.360516 0.708392 -0.109789
C9    C     C_R   0.938722 0.899053 0.319485 0.320312
C10   C     C_R   0.062954 0.336024 0.683901 0.325769
C11   C     C_R   0.902091 0.913803 0.393807 -0.212845
C12   C     C_R   0.097958 0.345937 0.607820 -0.220783
C13   C     C_R   0.831206 0.892562 0.372126 -0.101467
C14   C     C_R   0.168815 0.366155 0.629030 -0.114550
C15   C     C_R   0.793892 0.848209 0.275499 0.031882
C16   C     C_R   0.208142 0.367561 0.727462 0.038725
C17   C     C_R   0.830522 0.842288 0.198376 -0.049220
C18   C     C_R   0.172347 0.375874 0.805361 -0.036441
C19   C     C_R   0.720557 0.829030 0.251439 0.056828
C20   C     C_R   0.281691 0.371475 0.750790 0.058507
C21   C     C_R   0.685671 0.820649 0.150737 0.017596
C22   C     C_R   0.316422 0.417401 0.848722 0.037364
C23   C     C_R   0.722162 0.805141 0.077663 -0.130721
C24   C     C_R   0.280705 0.431950 0.922733 -0.185365
C25   C     C_R   0.793433 0.825250 0.099199 0.355788
C26   C     C_R   0.210146 0.404198 0.903827 0.370419
C27   C     C_R   0.680083 0.814478 0.322740 0.303857
C28   C     C_R   0.322358 0.326119 0.681995 0.289702
C29   C     C_R   0.575764 0.855223 0.193374 -0.183382
C30   C     C_R   0.425498 0.422344 0.802909 -0.205184
C31   C     C_R   0.903206 0.864923 0.221737 -0.103154
C32   C     C_R   0.099634 0.356486 0.782230 -0.108839
H7    H     H_    0.806778 0.923277 0.431953 0.207647
H8    H     H_    0.190997 0.389483 0.566503 0.189782
H9    H     H_    0.928369 0.947324 0.468973 0.134961
H10   H     H_    0.070094 0.341220 0.531288 0.134895
C33   C     C_3   0.244412 0.812039 0.134864 0.013742
C34   C     C_3   0.768714 0.183614 0.828052 -0.010330
H11   H     H_    0.238823 0.663923 0.113248 0.128102
H12   H     H_    0.802113 0.058122 0.832950 0.136030
C35   C     C_3   0.317040 0.836580 0.203375 -0.043002
C36   C     C_3   0.706792 0.161408 0.738898 -0.023187
H13   H     H_    0.340398 0.964603 0.181985 0.163404
H14   H     H_    0.661795 0.108497 0.764393 0.182697
H15   H     H_    0.179831 0.569842 0.232018 0.158848
H16   H     H_    0.839145 0.230885 0.686955 0.187347
H17   H     H_    0.289027 0.555705 0.320822 0.238393
H18   H     H_    0.742723 0.307827 0.563854 0.202733
C37   C     C_3   0.191421 0.705348 0.270622 0.101461
C38   C     C_3   0.817969 0.368103 0.703770 0.167082
C39   C     C_3   0.203576 0.051649 0.247017 0.223437
C40   C     C_3   0.764067 0.534398 0.828952 0.262656
C41   C     C_3   0.186662 0.860435 0.190885 -0.095721
C42   C     C_3   0.810590 0.362640 0.814303 -0.155226
H19   H     H_    0.161589 0.086956 0.285379 0.067763
H20   H     H_    0.786519 0.663973 0.807459 0.072942
C43   C     C_3   0.311972 0.853737 0.313854 -0.118826
C44   C     C_3   0.688168 0.352046 0.684883 -0.093585
C45   C     C_3   0.266209 0.691333 0.336140 -0.454711
C46   C     C_3   0.746232 0.396193 0.630798 -0.462069
C47   C     C_3   0.271896 0.038247 0.327402 0.178189
C48   C     C_3   0.689760 0.511919 0.762600 0.267661
H21   H     H_    0.258231 0.030605 0.400527 0.101326
H22   H     H_    0.675734 0.645586 0.723699 0.085871
H23   H     H_    0.265581 0.691009 0.415981 0.162755
H24   H     H_    0.740052 0.540899 0.602915 0.196141
O11   O     O_R   0.912980 0.203550 0.915410 -0.537523
O12   O     O_R   0.087020 0.703550 0.084590 -0.541932
O13   O     O_R   0.047270 0.535570 0.887960 -0.531034
O14   O     O_R   0.952730 0.035570 0.112040 -0.537161
C49   C     C_R   0.060366 0.366618 0.859131 0.889473
C50   C     C_R   0.942478 0.868359 0.144016 0.862937
O15   O     O_R   0.911030 0.532970 0.903270 -0.538363
O16   O     O_R   0.088970 0.032970 0.096730 -0.535812
O17   O     O_R   0.949820 0.708150 0.099970 -0.537993
O18   O     O_R   0.050180 0.208150 0.900030 -0.529090
C51   C     C_R   0.882927 0.365649 0.884001 0.716839
C52   C     C_R   0.115543 0.864812 0.119589 0.768657
O19   O     O_3   0.012900 0.375230 0.064480 -0.391945
O20   O     O_3   0.987100 0.875230 0.935520 -0.377857
V3    V     V_3+5 0.997610 0.648190 0.988040 1.553846
V4    V     V_3+5 0.002390 0.148190 0.011960 1.553734
I1    I     I_    0.236740 0.946177 0.994883 -0.379935
I2    I     I_    0.725575 0.186208 0.959602 -0.392744
I3    I     I_    0.385869 0.618019 0.175658 -0.480223
I4    I     I_    0.728859 0.946081 0.640125 -0.571650
O21   O     O_3   0.208574 0.193024 0.179932 -0.626962
H25   H     H_    0.168756 0.278235 0.176092 0.302377
O22   O     O_3   0.759360 0.559594 0.926950 -0.609458
H26   H     H_    0.804155 0.529813 0.971515 0.317985
O23   O     O_3   0.310965 0.201755 0.331103 -0.626170
H27   H     H_    0.328981 0.208295 0.270572 0.338433
O24   O     O_3   0.641454 0.479026 0.819981 -0.593300
H28   H     H_    0.596197 0.525347 0.782367 0.276937
O25   O     O_3   0.141934 0.730912 0.327365 -0.623921
H29   H     H_    0.158526 0.827232 0.378592 0.301090
O26   O     O_3   0.865448 0.502055 0.688516 -0.608618
H30   H     H_    0.845604 0.627793 0.693405 0.318495
O27   O     O_3   0.710707 0.752872 0.416432 -0.650998
H31   H     H_    0.675705 0.713251 0.451726 0.299054
O28   O     O_3   0.292358 0.236263 0.594432 -0.665825
H32   H     H_    0.325526 0.216135 0.552466 0.297292
O29   O     O_3   0.008985 0.923734 0.339904 -0.647382
H33   H     H_    0.025938 0.947569 0.411686 0.293834
O30   O     O_3   0.992601 0.313531 0.663981 -0.633478
H34   H     H_    0.974794 0.300913 0.591577 0.304140
O31   O     O_3   0.826732 0.848156 0.023283 -0.649378
H35   H     H_    0.793796 0.857901 0.959103 0.315957
O32   O     O_3   0.178104 0.405022 0.981746 -0.643440
H36   H     H_    0.213250 0.395844 0.044114 0.317432

loop_
_geom_bond_atom_site_label_1
_geom_bond_atom_site_label_2
_ccdc_geom_bond_type
C12   C14   A    
C26   O32   S    
C33   C35   S    
C9    C11   A    
O24   H28   S    
C37   C45   S    
C31   C50   S    
O2    C4    A    
C25   O31   S    
C2    O7    A    
C9    O29   S    
C10   O30   S    
O3    V1    S    
O30   H34   S    
C21   C23   A    
O5    C3    A    
C12   H10   S    
C5    H5    S    
C6    H6    S    
H16   C38   S    
C44   C46   S    
C40   O22   S    
H1    C29   S    
C45   H23   S    
C7    C27   A    
O26   H30   S    
O16   C52   A    
C36   H14   S    
C5    C21   A    
C49   O18   A    
C39   C41   S    
C6    C22   A    
C14   H8    S    
C42   C51   S    
C10   C32   A    
C34   C42   S    
O1    C3    A    
C17   C31   A    
O22   H26   S    
C13   C15   A    
C39   H19   S    
C17   C25   A    
C7    C29   A    
C16   C18   A    
C8    C30   A    
C22   C24   A    
O6    V2    S    
C23   C25   A    
C24   C26   A    
O19   V3    S    
O13   V3    S    
C38   C46   S    
H18   C46   S    
H15   C37   S    
C35   H13   S    
H17   C45   S    
C47   O23   S    
C40   C48   S    
C44   C48   S    
C2    C43   S    
C48   H22   S    
C47   H21   S    
C39   O21   S    
C41   C52   S    
C3    C8    S    
C36   C44   S    
C15   C19   A    
C34   C36   S    
C38   C42   S    
C14   C16   A    
O4    V2    S    
C40   H20   S    
O12   V3    S    
C32   C49   S    
O18   V4    S    
O6    C4    A    
C36   I4    S    
O1    V2    S    
H2    C30   S    
O2    V1    S    
C43   C45   S    
O29   H33   S    
O14   V4    S    
O12   C52   A    
H3    C23   S    
O4    C2    A    
O14   C50   A    
O20   V4    S    
C33   H11   S    
O31   H35   S    
C18   C26   A    
C19   C27   A    
O32   H36   S    
C35   C43   S    
O19   V4    S    
C18   C32   A    
O16   V4    S    
C50   O17   A    
O25   H29   S    
C27   O27   S    
O17   V3    S    
C16   C20   A    
C5    C29   A    
C13   H7    S    
O3    C1    A    
C6    C30   A    
O28   H32   S    
O21   H25   S    
C33   I1    S    
C4    C7    S    
C35   I3    S    
C1    C44   S    
C10   C12   A    
C37   O25   S    
C34   I2    S    
C1    O8    A    
C11   C13   A    
O11   V4    S    
O8    V2    S    
O27   H31   S    
C20   C22   A    
O11   C51   A    
H4    C24   S    
C11   H9    S    
C48   O24   S    
O5    V1    S    
C15   C17   A    
C34   H12   S    
C28   O28   S    
C37   C41   S    
O7    V1    S    
C20   C28   A    
C39   C47   S    
C8    C28   A    
C38   O26   S    
O15   C51   A    
C46   H24   S    
C19   C21   A    
O20   V3    S    
O9    V2    S    
O13   C49   A    
O10   V1    S    
C40   C42   S    
O15   V3    S    
O23   H27   S    
C43   C47   S    
C33   C41   S    
C9    C31   A    
