data_mof_unit_2184.cif
_audit_creation_date              2012-12-11T16:56:11-0500
_audit_creation_method            fapswitch 2.2
_symmetry_space_group_name_H-M    P1
_symmetry_Int_Tables_number       1
_space_group_crystal_system       triclinic
_cell_length_a                    6.950736
_cell_length_b                    14.453074
_cell_length_c                    16.277005
_cell_angle_alpha                 90.45802
_cell_angle_beta                  89.53694
_cell_angle_gamma                 90.014232
_cell_volume                      1635.07413751

loop_
_atom_site_label
_atom_site_type_symbol
_atom_type_description
_atom_site_fract_x
_atom_site_fract_y
_atom_site_fract_z
_atom_type_partial_charge
O1    O     O_R   0.505830 0.583360 0.413880 -0.540075
O2    O     O_R   0.175830 0.595460 0.585520 -0.542734
O3    O     O_R   0.005520 0.416640 0.586120 -0.542134
C1    C     C_R   0.343975 0.617244 0.614513 0.711717
O4    O     O_R   0.176120 0.594390 0.414490 -0.541150
O5    O     O_R   0.005810 0.415570 0.413870 -0.540601
C2    C     C_R   0.345233 0.615892 0.385615 0.693842
O6    O     O_R   0.505540 0.584430 0.586130 -0.535511
O7    O     O_3   0.339200 0.441330 0.500000 -0.370192
V1    V     V_3+5 0.064350 0.510880 0.500000 1.392206
O8    O     O_R   0.676100 0.404540 0.414480 -0.544911
C3    C     C_R   0.845689 0.381357 0.386786 0.684532
O9    O     O_R   0.675810 0.405610 0.585510 -0.537489
C4    C     C_R   0.844494 0.381630 0.611667 0.721846
V2    V     V_3+5 0.564340 0.489120 0.500000 1.396786
O10   O     O_3   0.839360 0.558670 0.500000 -0.370116
C5    C     C_2   0.726140 0.207438 0.784806 -0.247753
C6    C     C_2   0.888449 0.187757 0.827246 0.251180
H1    H     H_    0.592909 0.172747 0.801369 0.133732
C7    C     C_2   0.710622 0.279110 0.719632 -0.131805
C8    C     C_2   0.858905 0.306718 0.672095 -0.285981
H2    H     H_    0.569520 0.309224 0.710260 0.146791
H3    H     H_    0.997835 0.273440 0.676165 0.191850
C9    C     C_R   0.705858 0.224311 0.209495 -0.029273
C10   C     C_R   0.878938 0.180282 0.187690 -0.051523
C11   C     C_R   0.038432 0.195818 0.239257 -0.189197
H4    H     H_    0.172635 0.159717 0.228039 0.116127
C12   C     C_R   0.027491 0.259727 0.305196 -0.183171
H5    H     H_    0.153902 0.271249 0.342337 0.123571
C13   C     C_R   0.856649 0.309721 0.321390 -0.048160
C14   C     C_R   0.695500 0.287293 0.274244 0.001299
C15   C     C_3   0.554918 0.347624 0.230627 -0.008175
C16   C     C_3   0.565606 0.277784 0.159102 0.378226
H6    H     H_    0.412075 0.351223 0.261752 0.070003
H7    H     H_    0.430205 0.237691 0.150158 -0.002303
C17   C     C_R   0.486351 0.756542 0.685828 0.093575
C18   C     C_R   0.350087 0.685343 0.683143 -0.160673
C19   C     C_R   0.215474 0.681408 0.748279 -0.154564
H8    H     H_    0.105978 0.628007 0.748037 0.136017
C20   C     C_R   0.229817 0.740846 0.817572 0.185596
C21   C     C_R   0.377133 0.809535 0.821222 -0.154119
C22   C     C_R   0.497908 0.817523 0.752218 0.069845
C23   C     C_3   0.712155 0.821224 0.746213 -0.402758
C24   C     C_3   0.699082 0.754639 0.673608 -0.378834
H9    H     H_    0.781920 0.790341 0.800447 0.191019
H10   H     H_    0.765295 0.891030 0.728993 0.166609
H11   H     H_    0.762805 0.685631 0.686056 0.181612
H12   H     H_    0.743579 0.786271 0.614410 0.163659
C25   C     C_R   0.509721 0.746115 0.310517 0.102286
C26   C     C_R   0.353770 0.685488 0.319057 -0.116000
C27   C     C_R   0.201753 0.694780 0.262944 -0.173716
H13   H     H_    0.079114 0.649079 0.266713 0.136530
C28   C     C_R   0.212879 0.758469 0.197797 -0.178296
H14   H     H_    0.097664 0.760630 0.153652 0.131990
C29   C     C_R   0.376999 0.814319 0.186441 -0.109634
C30   C     C_R   0.521182 0.808784 0.245847 0.101190
C31   C     C_3   0.731256 0.792385 0.234531 -0.410948
C32   C     C_3   0.718804 0.724540 0.305160 -0.398862
H15   H     H_    0.817975 0.854959 0.249055 0.171284
H16   H     H_    0.764383 0.758663 0.174463 0.174813
H17   H     H_    0.797706 0.748012 0.360684 0.173977
H18   H     H_    0.745421 0.651575 0.286188 0.168762
O11   O     O_R   0.229930 0.912420 0.917160 -0.540763
O12   O     O_R   0.559420 0.902500 0.088780 -0.539586
O13   O     O_R   0.729660 0.081330 0.089380 -0.540760
C33   C     C_R   0.390002 0.880240 0.117078 0.688491
O14   O     O_R   0.559650 0.901420 0.917750 -0.538761
O15   O     O_R   0.729880 0.080250 0.917130 -0.553811
C34   C     C_R   0.390566 0.877500 0.890279 0.705191
O16   O     O_R   0.229700 0.913500 0.089410 -0.542171
O17   O     O_3   0.396250 0.055540 0.003280 -0.372443
V3    V     V_3+5 0.671130 0.986010 0.003260 1.392163
O18   O     O_R   0.059600 0.091310 0.917720 -0.520058
C35   C     C_R   0.891471 0.114453 0.890468 0.665624
O19   O     O_R   0.059370 0.092380 0.088750 -0.547220
C36   C     C_R   0.890031 0.114850 0.117167 0.707899
V4    V     V_3+5 0.171120 0.007820 0.003230 1.406453
O20   O     O_3   0.896130 0.938240 0.003240 -0.375175
N1    N     N_3   0.104867 0.723570 0.886251 -0.681440
H19   H     H_    0.189390 0.712644 0.938132 0.218716
H20   H     H_    0.018499 0.781455 0.897042 0.244283
O21   O     O_3   0.060072 0.233064 0.810938 -0.551221
C37   C     C_3   0.062876 0.317972 0.854457 0.114369
H21   H     H_    0.087968 0.305105 0.920789 0.119127
H22   H     H_    0.926118 0.357484 0.847994 0.126613
C38   C     C_3   0.224911 0.377750 0.820292 -0.743725
H23   H     H_    0.212511 0.383726 0.752590 0.223169
H24   H     H_    0.216920 0.448446 0.847259 0.184645
H25   H     H_    0.366208 0.346528 0.835150 0.210113
N2    N     N_3   0.635604 0.438483 0.210791 -0.589702
H26   H     H_    0.527720 0.476843 0.182730 0.229654
H27   H     H_    0.661783 0.473956 0.265678 0.211028
O22   O     O_3   0.655362 0.313704 0.087550 -0.535739
C39   C     C_3   0.521241 0.322562 0.023147 0.126811
H28   H     H_    0.431845 0.259242 0.014771 0.114019
H29   H     H_    0.603452 0.331214 0.964917 0.122006
C40   C     C_3   0.394229 0.407878 0.035527 -0.755951
H30   H     H_    0.484843 0.470966 0.039687 0.232817
H31   H     H_    0.296327 0.415832 0.983080 0.189754
H32   H     H_    0.304302 0.401004 0.091801 0.213769

loop_
_geom_bond_atom_site_label_1
_geom_bond_atom_site_label_2
_ccdc_geom_bond_type
C32   H18   S    
C29   C30   A    
O22   C39   S    
C21   C22   A    
C17   C22   A    
C1    O6    A    
C29   C33   S    
C40   H30   S    
N2    H26   S    
C33   O16   A    
V4    O20   S    
C11   H4    S    
O13   C36   A    
C4    C8    S    
C17   C18   A    
O5    C3    A    
C19   H8    S    
C16   H7    S    
C38   H24   S    
C31   H15   S    
O15   C35   A    
V2    O10   S    
C5    C7    S    
C30   C31   S    
O14   V3    S    
O18   C35   A    
V3    O20   S    
C6    O21   S    
O8    V2    S    
C15   N2    S    
O11   C34   A    
O1    V2    S    
O7    V1    S    
C24   H11   S    
C32   H17   S    
C6    C35   S    
O9    C4    A    
O16   V4    S    
C40   H31   S    
C26   C27   A    
C28   C29   A    
C27   H13   S    
C9    C10   A    
O4    C2    A    
C38   H23   S    
C31   H16   S    
C39   C40   S    
C10   C11   A    
C28   H14   S    
C25   C32   S    
O14   C34   A    
O12   C33   A    
O2    C1    A    
O19   C36   A    
O13   V3    S    
C18   C19   A    
C23   H9    S    
N2    H27   S    
C37   H21   S    
O15   V3    S    
C5    C6    D    
C20   N1    S    
C1    C18   S    
C39   H29   S    
O19   V4    S    
O3    C4    A    
C20   C21   A    
C37   H22   S    
C7    H2    S    
O21   C37   S    
O6    V2    S    
O9    V2    S    
C23   C24   S    
C17   C24   S    
C22   C23   S    
O2    V1    S    
O17   V4    S    
C40   H32   S    
C21   C34   S    
O11   V4    S    
C12   H5    S    
C3    C13   S    
O1    C2    A    
C11   C12   A    
C14   C15   S    
C2    C26   S    
C38   H25   S    
C16   O22   S    
O5    V1    S    
O8    C3    A    
C25   C30   A    
N1    H20   S    
C9    C16   S    
C10   C36   S    
C15   C16   S    
C8    H3    S    
O7    V2    S    
C9    C14   A    
O4    V1    S    
O3    V1    S    
V1    O10   S    
C19   C20   A    
C31   C32   S    
C13   C14   A    
C12   C13   A    
C5    H1    S    
O12   V3    S    
C39   H28   S    
C23   H10   S    
N1    H19   S    
O17   V3    S    
C37   C38   S    
C7    C8    D    
C25   C26   A    
O18   V4    S    
C27   C28   A    
C24   H12   S    
C15   H6    S    
