data_mof_unit_797.cif
_audit_creation_date              2012-12-10T18:46:21-0500
_audit_creation_method            fapswitch 2.2
_symmetry_space_group_name_H-M    P1
_symmetry_Int_Tables_number       1
_space_group_crystal_system       triclinic
_cell_length_a                    9.850876
_cell_length_b                    10.64889
_cell_length_c                    13.200886
_cell_angle_alpha                 90.119461
_cell_angle_beta                  70.068859
_cell_angle_gamma                 89.88187
_cell_volume                      1301.83179428

loop_
_atom_site_label
_atom_site_type_symbol
_atom_type_description
_atom_site_fract_x
_atom_site_fract_y
_atom_site_fract_z
_atom_type_partial_charge
C1    C     C_R   0.499794 0.739870 0.500305 0.868597
C2    C     C_R   0.371393 0.492667 0.821172 -0.116500
C3    C     C_R   0.561889 0.933707 0.568369 -0.212033
C4    C     C_R   0.420119 0.503828 0.704156 0.873860
C5    C     C_R   0.560012 0.062782 0.572099 0.160608
C6    C     C_R   0.497247 0.127657 0.506524 -0.079557
C7    C     C_R   0.432301 0.065117 0.441945 -0.199813
C8    C     C_R   0.432078 0.936453 0.440552 -0.170566
C9    C     C_R   0.498494 0.872067 0.502650 -0.050339
C10   C     C_R   0.956599 0.416433 0.437969 -0.047223
C11   C     C_R   0.100449 0.416521 0.437922 -0.051107
C12   C     C_R   0.457366 0.461619 0.971811 0.038018
C13   C     C_R   0.043347 0.583466 0.562121 -0.072593
C14   C     C_R   0.899663 0.583626 0.561887 -0.040039
C15   C     C_R   0.498614 0.260118 0.503396 0.907442
C16   C     C_R   0.579988 0.499361 0.296082 0.879021
C17   C     C_R   0.789208 0.589213 0.012660 -0.190123
C18   C     C_R   0.629847 0.503981 0.179502 -0.060929
C19   C     C_R   0.250655 0.418271 0.871772 -0.223749
C20   C     C_R   0.239566 0.356192 0.966465 -0.142266
C21   C     C_R   0.347612 0.368413 0.012022 0.141899
C22   C     C_R   0.467316 0.524729 0.875493 0.079238
C23   C     C_R   0.559844 0.493062 0.021163 0.095991
C24   C     C_R   0.683540 0.565706 0.965729 0.176219
C25   C     C_R   0.691625 0.625262 0.870409 -0.230153
C26   C     C_R   0.578871 0.613028 0.830938 -0.170151
C27   C     C_R   0.531580 0.470687 0.129576 -0.215575
C28   C     C_R   0.763289 0.556133 0.119621 -0.190454
H1    H     H_    0.840695 0.582047 0.157763 0.163376
H2    H     H_    0.383069 0.887291 0.389831 0.163864
H3    H     H_    0.925022 0.349666 0.388294 0.140220
H4    H     H_    0.177734 0.349805 0.388168 0.146182
H5    H     H_    0.425195 0.440617 0.178717 0.180588
H6    H     H_    0.609383 0.881416 0.618378 0.152769
H7    H     H_    0.074878 0.650221 0.611832 0.128739
H8    H     H_    0.822773 0.650911 0.611021 0.120541
H9    H     H_    0.780024 0.688121 0.830453 0.141708
H10   H     H_    0.886407 0.640767 0.969439 0.144447
H11   H     H_    0.175006 0.394823 0.831335 0.176874
H12   H     H_    0.154464 0.287768 0.997884 0.175621
H13   H     H_    0.581823 0.670883 0.762884 0.143818
H14   H     H_    0.383869 0.115854 0.391674 0.174871
I1    I     I_    0.642592 0.150184 0.684306 -0.333633
I2    I     I_    0.352518 0.215295 0.115602 -0.434352
N1    N     N_R   0.142790 0.500030 0.500030 -0.083310
N2    N     N_R   0.857180 0.499940 0.500010 -0.079547
O1    O     O_R   0.385370 0.683250 0.500010 -0.620226
O2    O     O_R   0.614700 0.683220 0.500010 -0.627728
O3    O     O_R   0.328400 0.499990 0.653620 -0.617112
O4    O     O_R   0.557730 0.499960 0.653620 -0.594849
O5    O     O_R   0.385300 0.316780 0.499990 -0.620101
O6    O     O_R   0.614630 0.316750 0.499990 -0.592523
O7    O     O_R   0.442270 0.500040 0.346380 -0.618046
O8    O     O_R   0.671600 0.500010 0.346380 -0.618272
Zn1   Zn    Zn3+2 0.346870 0.500020 0.500000 0.956581
Zn2   Zn    Zn3+2 0.653130 0.499980 0.500000 0.971773

loop_
_geom_bond_atom_site_label_1
_geom_bond_atom_site_label_2
_ccdc_geom_bond_type
C10   N2    A    
C2    C4    S    
C23   C24   A    
C1    O2    A    
C2    C22   A    
C6    C7    A    
C3    C9    A    
C15   O5    A    
C23   C27   A    
C21   I2    S    
C19   C20   A    
C4    O3    A    
C8    H2    S    
C5    I1    S    
C24   C25   A    
C1    C9    S    
C7    C8    A    
C14   N2    A    
O3    Zn1   S    
C15   O6    A    
C27   H5    S    
C13   N1    A    
C12   C23   A    
C19   H11   S    
C10   H3    S    
O1    Zn1   S    
C28   H1    S    
C25   C26   A    
C11   H4    S    
C13   H7    S    
O5    Zn1   S    
C17   H10   S    
O7    Zn1   S    
C14   H8    S    
C5    C6    A    
C20   H12   S    
C16   O8    A    
C11   N1    A    
C17   C24   A    
C10   C11   A    
C12   C22   A    
C18   C28   A    
C20   C21   A    
N1    Zn1   S    
C8    C9    A    
C16   C18   S    
C22   C26   A    
C7    H14   S    
N2    Zn2   S    
C2    C19   A    
O2    Zn2   S    
C16   O7    A    
C1    O1    A    
C3    H6    S    
C25   H9    S    
C6    C15   S    
C13   C14   A    
C17   C28   A    
C12   C21   A    
O4    Zn2   S    
C18   C27   A    
O6    Zn2   S    
C26   H13   S    
C4    O4    A    
O8    Zn2   S    
C3    C5    A    
