data_mof_unit_2066.cif
_audit_creation_date              2012-12-10T18:22:32-0500
_audit_creation_method            fapswitch 2.2
_symmetry_space_group_name_H-M    P1
_symmetry_Int_Tables_number       1
_space_group_crystal_system       triclinic
_cell_length_a                    23.511024
_cell_length_b                    10.620801
_cell_length_c                    9.412907
_cell_angle_alpha                 89.672729
_cell_angle_beta                  90.183968
_cell_angle_gamma                 90.017839
_cell_volume                      2350.4079217

loop_
_atom_site_label
_atom_site_type_symbol
_atom_type_description
_atom_site_fract_x
_atom_site_fract_y
_atom_site_fract_z
_atom_type_partial_charge
C1    C     C_R   0.500013 0.259376 0.500409 0.789259
C2    C     C_R   0.701501 0.529540 0.376149 -0.266552
C3    C     C_R   0.239124 0.464049 0.622902 0.348861
C4    C     C_R   0.760945 0.530946 0.375407 0.338862
C5    C     C_R   0.209033 0.499760 0.498993 0.117579
C6    C     C_R   0.791046 0.500176 0.500923 0.119475
C7    C     C_3   0.500065 0.039679 0.635322 -0.137016
C8    C     C_3   0.499930 0.960321 0.364678 -0.137000
C9    C     C_3   0.546760 0.957514 0.567202 -0.158582
C10   C     C_3   0.453235 0.042486 0.432798 -0.153592
C11   C     C_3   0.499990 0.877590 0.498743 0.010259
C12   C     C_R   0.499984 0.740624 0.499591 0.789278
C13   C     C_3   0.500005 0.122410 0.501257 0.010264
C14   C     C_3   0.453295 0.957475 0.566737 -0.158385
C15   C     C_3   0.546700 0.042525 0.433263 -0.163374
C16   C     C_R   0.391025 0.499915 0.499848 0.846596
C17   C     C_R   0.608993 0.500077 0.500150 0.844329
C18   C     C_3   0.516626 0.607641 0.049942 -0.042015
C19   C     C_3   0.483373 0.392359 0.950058 -0.042352
C20   C     C_3   0.466234 0.585681 0.948486 -0.028844
C21   C     C_3   0.533766 0.414320 0.051514 -0.029581
C22   C     C_3   0.550440 0.521925 0.949918 -0.025309
C23   C     C_R   0.238973 0.535405 0.375296 0.350869
C24   C     C_3   0.449559 0.478076 0.050083 -0.024477
C25   C     C_R   0.880602 0.606750 0.540362 0.666303
C26   C     C_R   0.119483 0.392641 0.461432 0.667735
C27   C     C_R   0.880367 0.393212 0.461443 0.666100
C28   C     C_R   0.119710 0.607271 0.536523 0.666851
C29   C     C_R   0.939988 0.390803 0.460643 -0.010519
C30   C     C_R   0.060091 0.609409 0.538276 -0.012148
C31   C     C_R   0.970037 0.499965 0.500206 -0.003589
C32   C     C_R   0.030044 0.499974 0.499666 -0.005386
C33   C     C_R   0.940228 0.609121 0.540293 -0.010588
C34   C     C_R   0.761115 0.469482 0.626254 0.340799
C35   C     C_R   0.059856 0.390545 0.460532 -0.012498
C36   C     C_R   0.970134 0.282293 0.421510 -0.115218
C37   C     C_R   0.029946 0.717846 0.577661 -0.111181
C38   C     C_R   0.029472 0.282101 0.421676 -0.111202
C39   C     C_R   0.970611 0.717639 0.578888 -0.115256
C40   C     C_R   0.298429 0.534134 0.376491 -0.264949
C41   C     C_R   0.701660 0.470897 0.625097 -0.268465
C42   C     C_R   0.328468 0.499786 0.499472 -0.166502
C43   C     C_R   0.671584 0.500186 0.500502 -0.164517
C44   C     C_R   0.298571 0.465344 0.622175 -0.262133
Cu1   Cu    Cu3+1 0.500010 0.499990 0.643150 0.944821
Cu2   Cu    Cu3+1 0.499990 0.500010 0.356850 0.944935
H1    H     H_    0.948008 0.197167 0.390835 0.197211
H2    H     H_    0.948673 0.802765 0.609930 0.197180
H3    H     H_    0.321465 0.561543 0.281833 0.200558
H4    H     H_    0.678681 0.447757 0.721247 0.198876
H5    H     H_    0.321716 0.437941 0.717033 0.204710
H6    H     H_    0.678399 0.552672 0.279813 0.203635
H7    H     H_    0.585005 0.919531 0.622041 0.146297
H8    H     H_    0.414990 0.080469 0.377960 0.149188
H9    H     H_    0.415104 0.919451 0.621209 0.147762
H10   H     H_    0.584891 0.080549 0.378790 0.144846
H11   H     H_    0.184014 0.392575 0.153529 0.387701
H12   H     H_    0.052071 0.803114 0.607842 0.200056
H13   H     H_    0.819987 0.240750 0.722511 0.361797
H14   H     H_    0.184172 0.606702 0.843771 0.387706
H15   H     H_    0.819364 0.759988 0.279684 0.361521
H16   H     H_    0.500117 0.074774 0.746208 0.138017
H17   H     H_    0.499877 0.925226 0.253792 0.138076
H18   H     H_    0.437815 0.657678 0.900125 0.129712
H19   H     H_    0.562187 0.342326 0.099877 0.129663
H20   H     H_    0.530761 0.698244 0.096522 0.122021
H21   H     H_    0.469238 0.301756 0.903479 0.122967
H22   H     H_    0.592978 0.540643 0.903532 0.141432
H23   H     H_    0.407019 0.459381 0.096480 0.140825
H24   H     H_    0.051412 0.196834 0.391128 0.200053
N1    N     N_R   0.852084 0.500011 0.501037 -0.437936
N2    N     N_R   0.147996 0.499923 0.498858 -0.439206
N3    N     N_3   0.500040 0.499970 0.858290 -0.163532
N4    N     N_3   0.499960 0.500030 0.141710 -0.163300
O1    O     O_R   0.500030 0.316850 0.620870 -0.588072
O2    O     O_2   0.148853 0.288560 0.425222 -0.502837
O3    O     O_2   0.850772 0.289755 0.423526 -0.510175
O4    O     O_2   0.149299 0.711330 0.572326 -0.503125
O5    O     O_2   0.167923 0.697848 0.248639 -0.209216
O6    O     O_2   0.244440 0.613418 0.102151 -0.274894
O7    O     O_3   0.159250 0.467400 0.163463 -0.442716
O8    O     O_2   0.829457 0.541994 0.837841 -0.150377
O9    O     O_2   0.755836 0.388075 0.898125 -0.246158
O10   O     O_3   0.843600 0.311918 0.756147 -0.487239
O11   O     O_2   0.168386 0.301201 0.748986 -0.209590
O12   O     O_R   0.499970 0.683150 0.379130 -0.587985
O13   O     O_2   0.244937 0.386255 0.896196 -0.275068
O14   O     O_3   0.159516 0.531616 0.833954 -0.443211
O15   O     O_2   0.829202 0.458798 0.164566 -0.150700
O16   O     O_2   0.755277 0.611962 0.103318 -0.246657
O17   O     O_3   0.843046 0.689093 0.246082 -0.487153
O18   O     O_R   0.500000 0.316860 0.379090 -0.582539
O19   O     O_R   0.500000 0.683140 0.620910 -0.582558
O20   O     O_R   0.417890 0.499960 0.620920 -0.579674
O21   O     O_R   0.582110 0.500040 0.379080 -0.579866
O22   O     O_R   0.417870 0.499970 0.379140 -0.585481
O23   O     O_R   0.582130 0.500030 0.620860 -0.585651
O24   O     O_2   0.851237 0.710230 0.578679 -0.509844
S1    S     S_3+6 0.202888 0.582786 0.218384 0.067879
S2    S     S_3+6 0.797206 0.429187 0.785564 0.087869
S3    S     S_3+6 0.203241 0.416531 0.779516 0.067505
S4    S     S_3+6 0.796815 0.571359 0.216365 0.087752

loop_
_geom_bond_atom_site_label_1
_geom_bond_atom_site_label_2
_ccdc_geom_bond_type
C23   S1    S    
C38   H24   S    
O15   S4    D    
C27   C29   A    
C26   N2    A    
Cu1   O19   S    
O14   S3    S    
H14   O14   S    
C27   N1    A    
Cu1   Cu2   S    
C29   C36   A    
C33   C39   A    
O5    S1    D    
C19   C21   S    
C5    N2    S    
C11   C14   S    
Cu2   O18   S    
C40   H3    S    
C36   H1    S    
Cu1   N3    S    
O16   S4    D    
O13   S3    D    
C7    C14   S    
Cu2   O21   S    
C20   C24   S    
C4    S4    S    
C23   C40   A    
C34   S2    S    
C31   C33   A    
C19   H21   S    
C17   O21   A    
C28   O4    S    
C37   H12   S    
C3    S3    S    
C40   C42   A    
C14   H9    S    
C18   N4    S    
C21   C22   S    
C41   C43   A    
C28   N2    A    
C34   C41   A    
C42   C44   A    
Cu1   O20   S    
C24   H23   S    
C6    N1    S    
C3    C44   A    
C16   O22   A    
O10   S2    S    
C32   C35   A    
C19   N3    S    
C35   C38   A    
H13   O10   S    
C4    C6    A    
C10   C14   S    
O7    S1    S    
C3    C5    A    
C21   N4    S    
C6    C34   A    
C30   C37   A    
C1    O1    A    
C20   H18   S    
C1    C13   S    
C2    C4    A    
C17   C43   S    
C7    H16   S    
C26   C35   A    
C26   O2    S    
C31   C32   A    
C5    C23   A    
C2    C43   A    
C9    C11   S    
C22   H22   S    
C2    H6    S    
C25   N1    A    
C44   H5    S    
C8    C10   S    
C1    O18   A    
O9    S2    D    
C13   C15   S    
O6    S1    D    
H11   O7    S    
C12   O19   A    
C9    H7    S    
O17   S4    S    
C16   C42   S    
C41   H4    S    
Cu2   N4    S    
O11   S3    D    
C7    C9    S    
C18   H20   S    
C21   H19   S    
C18   C22   S    
O8    S2    D    
C27   O3    S    
C10   C13   S    
C11   C12   S    
C8    C15   S    
C16   O20   A    
C12   O12   A    
Cu1   O1    S    
C15   H10   S    
C28   C30   A    
C19   C24   S    
C9    C15   S    
C29   C31   A    
Cu1   O23   S    
C30   C32   A    
C24   N4    S    
C8    C11   S    
C36   C38   A    
C20   N3    S    
C18   C20   S    
C10   H8    S    
C8    H17   S    
C25   O24   S    
C7    C13   S    
Cu2   O22   S    
C37   C39   A    
C22   N3    S    
C17   O23   A    
H15   O17   S    
C25   C33   A    
C39   H2    S    
Cu2   O12   S    
