data_mof_unit_3716.cif
_audit_creation_date              2012-12-10T20:30:13-0500
_audit_creation_method            fapswitch 2.2
_symmetry_space_group_name_H-M    P1
_symmetry_Int_Tables_number       1
_space_group_crystal_system       triclinic
_cell_length_a                    9.901333
_cell_length_b                    10.689738
_cell_length_c                    13.117132
_cell_angle_alpha                 90.106557
_cell_angle_beta                  71.467999
_cell_angle_gamma                 89.334856
_cell_volume                      1316.24962306

loop_
_atom_site_label
_atom_site_type_symbol
_atom_type_description
_atom_site_fract_x
_atom_site_fract_y
_atom_site_fract_z
_atom_type_partial_charge
C1    C     C_R   0.501086 0.740132 0.496400 0.882834
C2    C     C_R   0.384438 0.423004 0.809734 -0.207890
C3    C     C_R   0.392947 0.938253 0.467428 0.139368
C4    C     C_R   0.424810 0.474094 0.699531 0.908629
C5    C     C_R   0.509482 0.871635 0.477864 -0.108330
C6    C     C_R   0.637981 0.933845 0.465617 -0.222584
C7    C     C_R   0.639089 0.063240 0.465052 -0.185132
C8    C     C_R   0.511736 0.128956 0.476650 -0.101814
C9    C     C_R   0.394205 0.066029 0.466919 0.127022
C10   C     C_3   0.240711 0.077117 0.532537 -0.429025
C11   C     C_3   0.239179 0.935610 0.533398 -0.508756
C12   C     C_R   0.446339 0.411753 0.974484 0.077025
C13   C     C_R   0.890999 0.536927 0.589067 0.124356
C14   C     C_R   0.964106 0.444016 0.419129 0.394708
C15   C     C_R   0.107847 0.446435 0.418382 -0.197613
C16   C     C_R   0.502559 0.260132 0.495696 0.879743
C17   C     C_R   0.032565 0.535312 0.589743 0.274751
C18   C     C_3   0.012347 0.657527 0.647471 -0.499036
C19   C     C_3   0.859471 0.659692 0.645614 -0.480761
C20   C     C_R   0.577724 0.499687 0.296159 0.887047
C21   C     C_R   0.803430 0.460237 0.008025 -0.186256
C22   C     C_R   0.622222 0.485199 0.179963 -0.054060
C23   C     C_R   0.488844 0.406793 0.861550 0.042430
C24   C     C_R   0.242857 0.391982 0.866576 0.362021
C25   C     C_R   0.202071 0.376818 0.977753 -0.168057
C26   C     C_R   0.300510 0.394061 0.032304 -0.242104
C27   C     C_R   0.552366 0.433316 0.023770 0.093366
C28   C     C_R   0.698553 0.431543 0.961147 0.176236
C29   C     C_R   0.737644 0.399740 0.852863 -0.239857
C30   C     C_R   0.633935 0.383637 0.804318 -0.179007
C31   C     C_R   0.516910 0.462929 0.132375 -0.261239
C32   C     C_R   0.765681 0.485863 0.117378 -0.168299
Cl1   Cl    Cl    0.927663 0.360469 0.316082 -0.662802
Cl2   Cl    Cl    0.121464 0.351931 0.799400 -0.717910
H1    H     H_    0.848197 0.505817 0.152659 0.197363
H2    H     H_    0.779513 0.651818 0.726868 0.220857
H3    H     H_    0.837589 0.735009 0.594433 0.211076
H4    H     H_    0.914232 0.463745 0.960349 0.187745
H5    H     H_    0.261531 0.384161 0.118552 0.172690
H6    H     H_    0.093641 0.352310 0.022435 0.192166
H7    H     H_    0.669134 0.351517 0.721754 0.184877
H8    H     H_    0.734232 0.883928 0.464632 0.172224
H9    H     H_    0.848059 0.389736 0.804665 0.212574
H10   H     H_    0.406788 0.470711 0.181056 0.159882
H11   H     H_    0.735687 0.110597 0.463963 0.198051
H12   H     H_    0.224243 0.119167 0.613300 0.240955
H13   H     H_    0.175008 0.119113 0.486361 0.214654
H14   H     H_    0.222120 0.896063 0.614834 0.211428
H15   H     H_    0.172329 0.896606 0.487406 0.206836
H16   H     H_    0.190916 0.404243 0.352172 0.174273
H17   H     H_    0.020615 0.648310 0.729695 0.223653
H18   H     H_    0.078409 0.731020 0.597635 0.205498
N1    N     N_R   0.856940 0.500860 0.500710 -0.140140
N2    N     N_R   0.142580 0.500820 0.500710 -0.125993
O1    O     O_R   0.385310 0.683210 0.499990 -0.614436
O2    O     O_R   0.614650 0.683240 0.500000 -0.621148
O3    O     O_R   0.328390 0.499940 0.653610 -0.554527
O4    O     O_R   0.557730 0.499980 0.653620 -0.631881
O5    O     O_R   0.385350 0.316760 0.500000 -0.607396
O6    O     O_R   0.614690 0.316790 0.500010 -0.604234
O7    O     O_R   0.442270 0.500020 0.346380 -0.637456
O8    O     O_R   0.671610 0.500060 0.346390 -0.558435
Zn1   Zn    Zn3+2 0.346870 0.499980 0.499990 0.975918
Zn2   Zn    Zn3+2 0.653130 0.500020 0.500010 0.983920

loop_
_geom_bond_atom_site_label_1
_geom_bond_atom_site_label_2
_ccdc_geom_bond_type
C4    O3    A    
C10   H12   S    
C2    C4    S    
C24   C25   A    
O2    Zn2   S    
C30   H7    S    
C6    C7    A    
C11   H15   S    
C9    C10   S    
C20   O7    A    
O5    Zn1   S    
C13   C17   A    
O6    Zn2   S    
C10   C11   S    
C14   Cl1   S    
C17   C18   S    
C1    O1    A    
C18   H18   S    
C7    C8    A    
C8    C16   S    
C29   H9    S    
C2    C24   A    
C12   C23   A    
C11   H14   S    
C29   C30   A    
C22   C32   A    
C3    C9    A    
C7    H11   S    
C28   C29   A    
N1    Zn2   S    
C21   C28   A    
C20   C22   S    
C18   H17   S    
O3    Zn1   S    
C13   N1    A    
C19   H2    S    
C25   H6    S    
C20   O8    A    
C5    C6    A    
C21   C32   A    
C1    C5    S    
C26   H5    S    
C3    C11   S    
C31   H10   S    
C13   C19   S    
C12   C27   A    
C27   C31   A    
C32   H1    S    
C10   H13   S    
C14   N1    A    
C23   C30   A    
C15   N2    A    
C22   C31   A    
C15   H16   S    
C4    O4    A    
C2    C23   A    
O7    Zn1   S    
N2    Zn1   S    
C18   C19   S    
O8    Zn2   S    
C19   H3    S    
O4    Zn2   S    
C3    C5    A    
C25   C26   A    
C14   C15   A    
C16   O6    A    
C6    H8    S    
C17   N2    A    
C1    O2    A    
C24   Cl2   S    
C21   H4    S    
C12   C26   A    
C8    C9    A    
C27   C28   A    
C16   O5    A    
O1    Zn1   S    
