data_mof_unit_1626.cif
_audit_creation_date              2012-12-10T20:00:05-0500
_audit_creation_method            fapswitch 2.2
_symmetry_space_group_name_H-M    P1
_symmetry_Int_Tables_number       1
_space_group_crystal_system       triclinic
_cell_length_a                    14.964816
_cell_length_b                    14.187247
_cell_length_c                    8.901283
_cell_angle_alpha                 89.999957
_cell_angle_beta                  90.038914
_cell_angle_gamma                 90.000105
_cell_volume                      1889.82687129

loop_
_atom_site_label
_atom_site_type_symbol
_atom_type_description
_atom_site_fract_x
_atom_site_fract_y
_atom_site_fract_z
_atom_type_partial_charge
C1    C     C_R   0.328225 0.499972 0.500053 0.860132
C2    C     C_R   0.462765 0.894801 0.380141 -0.278755
C3    C     C_R   0.499964 0.500003 0.218582 0.916007
C4    C     C_R   0.500036 0.500003 0.781418 0.916007
C5    C     C_R   0.500000 0.053373 0.499999 0.137897
C6    C     C_R   0.500000 0.946664 0.499999 0.138978
C7    C     C_1   0.499985 0.500012 0.065380 -0.210712
C8    C     C_1   0.500015 0.500012 0.934620 -0.210711
C9    C     C_R   0.093771 0.533794 0.375505 -0.204089
C10   C     C_R   0.905768 0.463268 0.375735 -0.208051
C11   C     C_R   0.906230 0.533799 0.624490 -0.204088
C12   C     C_R   0.671775 0.499972 0.499947 0.860128
C13   C     C_R   0.094232 0.463273 0.624269 -0.208051
C14   C     C_R   0.186415 0.534175 0.373138 0.127568
C15   C     C_R   0.813130 0.464461 0.373052 0.128453
C16   C     C_R   0.813585 0.534180 0.626858 0.127568
C17   C     C_R   0.186869 0.464466 0.626951 0.128454
C18   C     C_R   0.232694 0.499748 0.500152 -0.091853
C19   C     C_R   0.767306 0.499748 0.499847 -0.091855
C20   C     C_R   0.048231 0.498203 0.499843 0.059411
C21   C     C_R   0.951769 0.498203 0.500156 0.059411
C22   C     C_3   0.233016 0.569603 0.232750 -0.406324
C23   C     C_R   0.431729 0.204445 0.433415 0.017115
C24   C     C_3   0.235010 0.677088 0.229085 -0.838887
C25   C     C_3   0.766029 0.430175 0.232301 -0.407690
C26   C     C_3   0.760331 0.322813 0.229515 -0.820448
C27   C     C_3   0.766985 0.569614 0.767242 -0.406324
C28   C     C_3   0.764994 0.677100 0.770898 -0.838885
C29   C     C_3   0.233971 0.430186 0.767706 -0.407691
C30   C     C_3   0.239670 0.322824 0.770503 -0.820451
C31   C     C_R   0.536602 0.795594 0.617547 0.014724
C32   C     C_R   0.568271 0.204444 0.566584 0.017113
C33   C     C_R   0.463398 0.795594 0.382452 0.014725
C34   C     C_R   0.430350 0.105234 0.432352 -0.278018
C35   C     C_R   0.537235 0.894801 0.619858 -0.278755
C36   C     C_R   0.569651 0.105234 0.567646 -0.278019
H1    H     H_    0.377759 0.243102 0.381043 0.126697
H2    H     H_    0.942231 0.435335 0.280346 0.139976
H3    H     H_    0.943048 0.561322 0.719879 0.141054
H4    H     H_    0.057768 0.435343 0.719660 0.139975
H5    H     H_    0.269461 0.704994 0.330263 0.270348
H6    H     H_    0.271614 0.701201 0.127647 0.239875
H7    H     H_    0.165975 0.705729 0.224992 0.251518
H8    H     H_    0.302329 0.542467 0.223917 0.197910
H9    H     H_    0.197358 0.543236 0.131502 0.189723
H10   H     H_    0.722824 0.296586 0.328670 0.273218
H11   H     H_    0.724982 0.299759 0.126131 0.243184
H12   H     H_    0.565268 0.757012 0.710607 0.131690
H13   H     H_    0.828357 0.291491 0.229721 0.245912
H14   H     H_    0.697778 0.460042 0.222144 0.200762
H15   H     H_    0.803042 0.454715 0.131338 0.188498
H16   H     H_    0.730543 0.705003 0.669717 0.270349
H17   H     H_    0.728390 0.701217 0.872333 0.239873
H18   H     H_    0.834029 0.705739 0.774988 0.251518
H19   H     H_    0.697671 0.542480 0.776077 0.197912
H20   H     H_    0.802642 0.543249 0.868492 0.189724
H21   H     H_    0.277177 0.296593 0.671351 0.273219
H22   H     H_    0.275018 0.299774 0.873890 0.243183
H23   H     H_    0.622241 0.243101 0.618957 0.126697
H24   H     H_    0.171644 0.291501 0.770299 0.245913
H25   H     H_    0.302222 0.460054 0.777860 0.200760
H26   H     H_    0.196957 0.454729 0.868667 0.188498
H27   H     H_    0.434732 0.757012 0.289392 0.131689
H28   H     H_    0.374249 0.069685 0.380626 0.134412
H29   H     H_    0.565577 0.930342 0.716308 0.135055
H30   H     H_    0.625752 0.069685 0.619372 0.134412
H31   H     H_    0.434424 0.930342 0.283691 0.135055
H32   H     H_    0.056952 0.561313 0.280113 0.141053
N1    N     N_R   0.500000 0.252470 0.500000 -0.090143
N2    N     N_R   0.500000 0.747530 0.500000 -0.089163
O1    O     O_R   0.369060 0.579480 0.500010 -0.612139
O2    O     O_R   0.630940 0.420520 0.499990 -0.626305
O3    O     O_R   0.630940 0.579480 0.499990 -0.612139
O4    O     O_R   0.369060 0.420520 0.500010 -0.626306
O5    O     O_R   0.500000 0.579460 0.285340 -0.623711
O6    O     O_R   0.500000 0.420540 0.714660 -0.611113
O7    O     O_R   0.500000 0.579460 0.714660 -0.623713
O8    O     O_R   0.500000 0.420540 0.285340 -0.611115
Zn1   Zn    Zn3+2 0.500000 0.606140 0.500000 0.937085
Zn2   Zn    Zn3+2 0.500000 0.393860 0.500000 0.935062

loop_
_geom_bond_atom_site_label_1
_geom_bond_atom_site_label_2
_ccdc_geom_bond_type
C5    C36   A    
C24   H6    S    
C23   N1    A    
C4    C8    S    
O1    Zn1   S    
C7    C8    T    
C15   C19   A    
C1    C18   S    
C1    O1    A    
C1    O4    A    
C32   C36   A    
C3    C7    S    
C10   C15   A    
C5    C6    S    
C27   H19   S    
C15   C25   S    
C35   H29   S    
C30   H21   S    
C17   C29   S    
C6    C35   A    
C14   C18   A    
C25   H14   S    
C13   H4    S    
C31   C35   A    
C31   N2    A    
C22   H8    S    
C30   H24   S    
C3    O5    A    
C16   C27   S    
C12   O2    A    
O4    Zn2   S    
C12   O3    A    
C24   H5    S    
C2    C6    A    
O7    Zn1   S    
C10   C21   A    
C29   H25   S    
C2    H31   S    
C26   H13   S    
C28   H18   S    
C27   H20   S    
C25   C26   S    
C23   H1    S    
C11   C21   A    
C9    C14   A    
C25   H15   S    
C29   C30   S    
C11   C16   A    
C9    C20   A    
C33   H27   S    
C23   C34   A    
C5    C34   A    
C34   H28   S    
C17   C18   A    
O3    Zn1   S    
C11   H3    S    
C33   N2    A    
C26   H11   S    
C2    C33   A    
C31   H12   S    
C22   C24   S    
C29   H26   S    
C36   H30   S    
C13   C20   A    
N2    Zn1   S    
O6    Zn2   S    
C28   H17   S    
C32   N1    A    
C13   C17   A    
C10   H2    S    
C14   C22   S    
C9    H32   S    
C4    O7    A    
O2    Zn2   S    
C28   H16   S    
C16   C19   A    
C30   H22   S    
C12   C19   S    
O8    Zn2   S    
C4    O6    A    
C26   H10   S    
C22   H9    S    
C20   C21   S    
C27   C28   S    
C24   H7    S    
N1    Zn2   S    
C32   H23   S    
C3    O8    A    
O5    Zn1   S    
