data_mof_unit_2282.cif
_audit_creation_date              2013-03-05T16:10:16-0500
_audit_creation_method            fapswitch 2.2
_symmetry_space_group_name_H-M    P1
_symmetry_Int_Tables_number       1
_space_group_crystal_system       triclinic
_cell_length_a                    9.86872
_cell_length_b                    10.747115
_cell_length_c                    13.068863
_cell_angle_alpha                 90.345317
_cell_angle_beta                  71.564529
_cell_angle_gamma                 90.328155
_cell_volume                      1314.91915702

loop_
_atom_site_label
_atom_site_type_symbol
_atom_site_description
_atom_site_fract_x
_atom_site_fract_y
_atom_site_fract_z
_atom_type_partial_charge
O1    O     O_R   0.385370 0.683250 0.500010 -0.568321
O2    O     O_R   0.614700 0.683220 0.500010 -0.580062
C1    C     C_R   0.500490 0.740268 0.501309 0.913333
O3    O     O_R   0.328400 0.499990 0.653620 -0.572983
O4    O     O_R   0.557730 0.499960 0.653620 -0.643195
C2    C     C_R   0.422194 0.505050 0.703875 0.851110
Zn1   Zn    Zn3+2 0.346870 0.500020 0.500000 1.048632
Zn2   Zn    Zn3+2 0.653130 0.499980 0.500000 1.024114
O5    O     O_R   0.385300 0.316780 0.499990 -0.632354
O6    O     O_R   0.614630 0.316750 0.499990 -0.631432
O7    O     O_R   0.442270 0.500040 0.346380 -0.595643
O8    O     O_R   0.671600 0.500010 0.346380 -0.576890
C3    C     C_R   0.499222 0.260201 0.500908 0.905942
C4    C     C_R   0.576621 0.520448 0.298713 0.941331
C5    C     C_R   0.780600 0.642369 0.018459 -0.209398
H1    H     H_    0.788471 0.712352 0.818734 0.208413
H2    H     H_    0.885214 0.675695 0.970651 0.217032
C6    C     C_R   0.615681 0.571605 0.188907 -0.288476
C7    C     C_R   0.256078 0.441403 0.879108 -0.143832
C8    C     C_R   0.229301 0.419178 0.988302 -0.071523
C9    C     C_R   0.320313 0.467920 0.040899 -0.066382
C10   C     C_R   0.436391 0.545374 0.985793 0.120070
C11   C     C_R   0.463995 0.568348 0.875118 0.066443
C12   C     C_R   0.534468 0.590287 0.035702 -0.018303
C13   C     C_R   0.670496 0.632199 0.972392 0.050823
C14   C     C_R   0.690754 0.666794 0.866074 -0.131743
C15   C     C_R   0.583047 0.643516 0.820630 -0.171391
C16   C     C_R   0.502930 0.593836 0.147054 0.176692
C17   C     C_R   0.756302 0.605674 0.125956 0.265648
C18   C     C_R   0.376032 0.511156 0.821239 -0.088680
H3    H     H_    0.188604 0.396917 0.838313 0.173308
H4    H     H_    0.301001 0.442582 0.124337 0.154114
H5    H     H_    0.140331 0.360536 0.031635 0.167464
H6    H     H_    0.597177 0.679799 0.741067 0.183228
C19   C     C_R   0.613625 0.939933 0.525624 0.327796
C20   C     C_R   0.609468 0.067450 0.526385 -0.214920
H7    H     H_    0.694781 0.118590 0.543725 0.188717
C21   C     C_R   0.497993 0.128240 0.503760 -0.099636
C22   C     C_R   0.387097 0.062811 0.483110 -0.165781
H8    H     H_    0.299716 0.109611 0.466162 0.186272
C23   C     C_R   0.389445 0.935433 0.482580 -0.093293
H9    H     H_    0.303348 0.886117 0.465016 0.242064
C24   C     C_R   0.502436 0.873236 0.502956 -0.171900
C25   C     C_R   0.955799 0.423383 0.431650 0.012269
C26   C     C_R   0.100161 0.423128 0.431809 -0.033581
N1    N     N_R   0.142790 0.500030 0.500030 -0.155102
C27   C     C_R   0.043361 0.577209 0.567591 0.373364
C28   C     C_R   0.900274 0.577115 0.566828 -0.066478
H10   H     H_    0.823884 0.639059 0.619901 0.171446
N2    N     N_R   0.857180 0.499940 0.500010 -0.118906
N3    N     N_R   0.869862 0.617771 0.171981 0.224143
O9    O     O_R   0.850035 0.682768 0.259791 -0.301995
O10   O     O_R   0.999860 0.591475 0.113788 -0.366513
C29   C     C_1   0.912291 0.343362 0.358547 0.281372
N4    N     N_1   0.878260 0.278959 0.299603 -0.179358
C30   C     C_1   0.202675 0.341390 0.359632 0.246085
N5    N     N_1   0.284161 0.275603 0.301308 -0.208677
N6    N     N_R   0.082470 0.658444 0.640338 0.210413
O11   O     O_R   0.072888 0.618224 0.736008 -0.425664
O12   O     O_R   0.084524 0.777798 0.624183 -0.359817
N7    N     N_R   0.374654 0.656865 0.212284 0.231859
O13   O     O_R   0.266844 0.673434 0.176806 -0.315086
O14   O     O_R   0.381027 0.726894 0.292168 -0.377553
N8    N     N_R   0.731295 0.881265 0.547645 0.197857
O15   O     O_R   0.746162 0.894469 0.642525 -0.411820
O16   O     O_R   0.840273 0.845201 0.467429 -0.304665

loop_
_geom_bond_atom_site_label_1
_geom_bond_atom_site_label_2
_geom_bond_distance
_ccdc_geom_bond_type
O4    Zn2   1.929125 S    
N3    O10   1.299454 A    
C9    H4    1.082163 S    
Zn1   N1    2.013885 S    
C5    H2    1.083978 S    
C19   N8    1.432070 S    
C11   C15   1.416678 A    
C19   C24   1.414093 A    
C23   H9    1.082710 S    
C4    C6    1.472220 S    
C19   C20   1.371169 A    
C25   C29   1.442912 S    
Zn2   O8    1.957651 S    
C13   C14   1.392285 A    
C7    H3    1.083521 S    
C16   N7    1.452046 S    
C8    C9    1.390812 A    
C28   N2    1.361413 A    
O2    C1    1.281497 A    
C14   C15   1.392670 A    
C6    C16   1.408525 A    
N3    O9    1.301170 A    
C22   C23   1.369221 A    
C6    C17   1.418617 A    
N1    C27   1.372209 A    
C9    C10   1.413630 A    
C12   C13   1.408773 A    
C27   N6    1.425919 S    
Zn1   O7    1.929126 S    
C23   C24   1.399851 A    
C1    C24   1.429172 S    
C3    C21   1.418799 S    
O4    C2    1.291594 A    
O3    Zn1   1.957650 S    
C8    H5    1.082724 S    
N8    O15   1.300733 A    
O3    C2    1.294064 A    
C28   H10   1.077991 S    
C2    C18   1.456574 S    
O8    C4    1.299306 A    
C5    C17   1.406836 A    
O1    Zn1   2.003381 S    
C15   H6    1.079467 S    
H1    C14   1.083220 S    
N7    O13   1.301467 A    
O7    C4    1.292298 A    
C10   C12   1.409044 A    
C5    C13   1.402379 A    
N6    O12   1.300225 A    
C20   C21   1.393124 A    
C11   C18   1.415079 A    
Zn2   N2    2.013756 S    
C21   C22   1.393083 A    
C30   N5    1.157533 T    
C12   C16   1.388894 A    
Zn2   O6    2.003384 S    
C17   N3    1.434706 S    
C25   N2    1.368455 A    
C22   H8    1.082946 S    
Zn1   O5    2.007611 S    
O5    C3    1.284638 A    
C10   C11   1.407669 A    
C20   H7    1.084495 S    
C29   N4    1.157493 T    
O1    C1    1.292510 A    
N6    O11   1.300116 A    
C26   N1    1.370880 A    
C7    C18   1.402040 A    
N7    O14   1.300708 A    
O2    Zn2   2.007611 S    
C25   C26   1.425350 A    
C7    C8    1.388608 A    
C26   C30   1.442756 S    
C27   C28   1.415261 A    
O6    C3    1.284592 A    
N8    O16   1.301027 A    
