data_mof_unit_4407.cif
_audit_creation_date              2012-12-10T18:09:03-0500
_audit_creation_method            fapswitch 2.2
_symmetry_space_group_name_H-M    P1
_symmetry_Int_Tables_number       1
_space_group_crystal_system       triclinic
_cell_length_a                    12.633459
_cell_length_b                    13.118285
_cell_length_c                    13.654921
_cell_angle_alpha                 91.47765
_cell_angle_beta                  95.337282
_cell_angle_gamma                 97.888808
_cell_volume                      2230.17941475

loop_
_atom_site_label
_atom_site_type_symbol
_atom_type_description
_atom_site_fract_x
_atom_site_fract_y
_atom_site_fract_z
_atom_type_partial_charge
C1    C     C_R   0.560501 0.691579 0.511963 0.857199
C2    C     C_1   0.531380 0.499108 0.217829 -0.216318
C3    C     C_R   0.286469 0.055828 0.554021 -0.248481
C4    C     C_R   0.402702 0.197694 0.493238 -0.059763
C5    C     C_R   0.703350 0.839473 0.493668 0.099700
C6    C     C_R   0.732999 0.945596 0.485712 0.117603
C7    C     C_R   0.656968 0.011718 0.497036 -0.245819
C8    C     C_R   0.553284 0.974084 0.522983 0.040084
C9    C     C_R   0.533369 0.871858 0.553320 -0.014273
C10   C     C_R   0.469041 0.034958 0.520794 0.099134
C11   C     C_R   0.370657 0.996478 0.557240 0.103624
C12   C     C_R   0.517846 0.497364 0.318578 0.894557
C13   C     C_R   0.359820 0.902258 0.602290 -0.248840
C14   C     C_R   0.444024 0.843364 0.608342 0.176258
C15   C     C_R   0.479563 0.132949 0.482448 -0.290671
C16   C     C_R   0.302319 0.157294 0.523591 0.102247
C17   C     C_R   0.601478 0.801963 0.524393 -0.167475
C18   C     C_R   0.897820 0.383396 0.670129 0.076708
C19   C     C_R   0.205816 0.627696 0.383686 0.323819
C20   C     C_R   0.104360 0.658876 0.372643 -0.251700
C21   C     C_R   0.023538 0.610721 0.422646 -0.276370
C22   C     C_R   0.041966 0.528289 0.481963 0.030699
C23   C     C_R   0.439737 0.308253 0.489513 0.864411
C24   C     C_R   0.147629 0.506569 0.502089 0.196236
C25   C     C_R   0.958201 0.471733 0.526612 -0.061726
C26   C     C_R   0.981948 0.418202 0.612414 0.126296
C27   C     C_R   0.088093 0.399662 0.635085 -0.281382
C28   C     C_R   0.167956 0.437868 0.576245 -0.179534
C29   C     C_R   0.850764 0.465422 0.487700 0.218365
C30   C     C_R   0.794414 0.404283 0.638693 -0.082115
C31   C     C_R   0.481822 0.501573 0.681267 0.874707
C32   C     C_1   0.467417 0.496677 0.781593 -0.210368
C33   C     C_2   0.453126 0.485610 0.969642 0.068008
C34   C     C_2   0.545511 0.503069 0.029169 0.069834
C35   C     C_1   0.541076 0.501074 0.132225 0.010823
C36   C     C_1   0.457410 0.491305 0.866892 0.010914
H1    H     H_    0.729539 0.384749 0.684163 0.157399
H2    H     H_    0.109959 0.352924 0.695724 0.162811
H3    H     H_    0.946164 0.637806 0.413961 0.159452
H4    H     H_    0.087401 0.719807 0.323933 0.157214
H5    H     H_    0.244629 0.413511 0.591428 0.223095
H6    H     H_    0.287830 0.877003 0.637602 0.149271
H7    H     H_    0.210440 0.025737 0.580437 0.133502
H8    H     H_    0.549731 0.163392 0.447729 0.152792
H9    H     H_    0.681979 0.092414 0.487414 0.137804
N1    N     N_R   0.773270 0.445590 0.549770 -0.116210
N2    N     N_R   0.227520 0.553880 0.450750 -0.149334
O1    O     O_R   0.631100 0.627590 0.523760 -0.573453
O2    O     O_R   0.455900 0.662370 0.491970 -0.644433
O3    O     O_R   0.600200 0.480080 0.377830 -0.607752
O4    O     O_R   0.425000 0.514870 0.346040 -0.615804
O5    O     O_R   0.544100 0.337630 0.508030 -0.626448
O6    O     O_R   0.368900 0.372410 0.476240 -0.599111
O7    O     O_R   0.575000 0.485130 0.653960 -0.615190
O8    O     O_R   0.399800 0.519920 0.622170 -0.642411
Zn1   Zn    Zn3+2 0.616980 0.476780 0.521230 0.931065
Zn2   Zn    Zn3+2 0.383020 0.523220 0.478770 0.916077
N3    N     N_3   0.648898 0.525783 0.992524 -0.453526
H10   H     H_    0.650007 0.592562 0.952195 0.187432
H11   H     H_    0.659760 0.464929 0.945184 0.188032
C37   C     C_3   0.441158 0.759453 0.682978 -0.351455
C38   C     C_3   0.440296 0.803069 0.787791 -0.901892
H12   H     H_    0.510608 0.863392 0.806374 0.266852
H13   H     H_    0.365382 0.836409 0.796290 0.258818
H14   H     H_    0.444799 0.740359 0.840512 0.256095
H15   H     H_    0.368053 0.702497 0.664515 0.235495
H16   H     H_    0.512913 0.719553 0.684267 0.191720
C39   C     C_3   0.915182 0.329952 0.766078 -0.432039
C40   C     C_3   0.966941 0.406273 0.848870 -0.833277
H17   H     H_    0.046798 0.444168 0.831796 0.265551
H18   H     H_    0.914596 0.466205 0.860139 0.258258
H19   H     H_    0.977578 0.364955 0.918275 0.247763
H20   H     H_    0.837196 0.292316 0.788346 0.201700
H21   H     H_    0.964695 0.267284 0.757140 0.200890
C41   C     C_3   0.822171 0.456911 0.377032 -0.367258
C42   C     C_3   0.763208 0.349757 0.344710 -0.811848
H22   H     H_    0.819155 0.291677 0.355106 0.228209
H23   H     H_    0.694347 0.326716 0.387812 0.284499
H24   H     H_    0.733373 0.348851 0.265543 0.244988
H25   H     H_    0.777732 0.520035 0.352467 0.225762
H26   H     H_    0.894531 0.465132 0.336219 0.197542
C43   C     C_3   0.285803 0.679780 0.318570 -0.369644
C44   C     C_3   0.261491 0.637031 0.212634 -0.896262
H27   H     H_    0.262912 0.552544 0.209830 0.274641
H28   H     H_    0.181421 0.652981 0.181182 0.255980
H29   H     H_    0.323058 0.674207 0.166975 0.247335
H30   H     H_    0.281656 0.763963 0.319815 0.176280
H31   H     H_    0.369206 0.673910 0.342301 0.263711
N4    N     N_3   0.349659 0.463164 0.006002 -0.453478
H32   H     H_    0.349448 0.398943 0.049832 0.187505
H33   H     H_    0.337388 0.526168 0.049716 0.190231
N5    N     N_3   0.218167 0.219245 0.527905 -0.449246
H34   H     H_    0.196323 0.218891 0.599904 0.168963
H35   H     H_    0.151745 0.184055 0.481862 0.188138
N6    N     N_3   0.775006 0.769664 0.467019 -0.437691
H36   H     H_    0.791815 0.782056 0.394380 0.187198
H37   H     H_    0.846731 0.785838 0.512860 0.184694
N7    N     N_3   0.838114 0.984436 0.459148 -0.473655
H38   H     H_    0.893185 0.975836 0.519366 0.171948
H39   H     H_    0.844527 0.063398 0.447341 0.178310

loop_
_geom_bond_atom_site_label_1
_geom_bond_atom_site_label_2
_ccdc_geom_bond_type
C2    C35   T    
C8    C9    A    
C39   H21   S    
N6    H36   S    
C18   C26   A    
C42   H24   S    
C9    C14   A    
C2    C12   S    
C7    C8    A    
C3    H7    S    
C26   C27   A    
C32   C36   T    
C42   H23   S    
C15   H8    S    
C10   C15   A    
C5    C6    A    
C20   H4    S    
C19   N2    A    
C5    C17   A    
C27   H2    S    
C18   C39   S    
C43   H30   S    
C28   H5    S    
C33   C36   S    
O2    Zn2   S    
C34   C35   S    
C40   H18   S    
C38   H13   S    
C37   H15   S    
C31   C32   S    
C39   C40   S    
C22   C25   A    
C18   C30   A    
N4    H33   S    
C19   C43   S    
C41   H25   S    
C7    H9    S    
C21   C22   A    
C37   C38   S    
C13   H6    S    
C5    N6    S    
C23   O6    A    
C25   C29   A    
O7    Zn1   S    
C42   H22   S    
C4    C23   S    
O6    Zn2   S    
C41   H26   S    
N3    H10   S    
C14   C37   S    
C43   C44   S    
O3    Zn1   S    
C30   H1    S    
C4    C16   A    
C40   H19   S    
C41   C42   S    
C38   H12   S    
C33   N4    S    
N2    Zn2   S    
C37   H16   S    
C44   H27   S    
C21   H3    S    
N5    H35   S    
C33   C34   D    
C25   C26   A    
O4    Zn2   S    
C9    C17   A    
C44   H28   S    
C16   N5    S    
N7    H39   S    
O8    Zn2   S    
C22   C24   A    
C6    N7    S    
C12   O4    A    
O1    Zn1   S    
C38   H14   S    
C24   N2    A    
C30   N1    A    
C24   C28   A    
C12   O3    A    
N6    H37   S    
C1    O1    A    
C6    C7    A    
C29   C41   S    
C1    C17   S    
C29   N1    A    
C19   C20   A    
C39   H20   S    
C11   C13   A    
C23   O5    A    
C1    O2    A    
C4    C15   A    
C43   H31   S    
N5    H34   S    
C31   O7    A    
C40   H17   S    
C3    C11   A    
C10   C11   A    
C44   H29   S    
C20   C21   A    
C8    C10   A    
N7    H38   S    
N1    Zn1   S    
C27   C28   A    
C34   N3    S    
C31   O8    A    
N4    H32   S    
C13   C14   A    
N3    H11   S    
C3    C16   A    
O5    Zn1   S    
