data_mof_unit_895.cif
_audit_creation_date              2012-12-10T18:09:11-0500
_audit_creation_method            fapswitch 2.2
_symmetry_space_group_name_H-M    P1
_symmetry_Int_Tables_number       1
_space_group_crystal_system       triclinic
_cell_length_a                    12.656663
_cell_length_b                    13.049668
_cell_length_c                    13.63353
_cell_angle_alpha                 90.925491
_cell_angle_beta                  96.145676
_cell_angle_gamma                 97.802537
_cell_volume                      2217.04005318

loop_
_atom_site_label
_atom_site_type_symbol
_atom_type_description
_atom_site_fract_x
_atom_site_fract_y
_atom_site_fract_z
_atom_type_partial_charge
Br1   Br    Br    0.813250 0.610227 0.422196 -0.558271
Br2   Br    Br    0.879095 0.002679 0.502884 -0.546884
C1    C     C_R   0.559485 0.691568 0.515974 0.882829
C2    C     C_R   0.468028 0.037260 0.536227 -0.088398
C3    C     C_R   0.374394 0.003571 0.582205 -0.003350
C4    C     C_R   0.517042 0.497100 0.318390 0.891729
C5    C     C_R   0.359831 0.903996 0.620084 0.461033
C6    C     C_R   0.433930 0.836492 0.604892 -0.289211
C7    C     C_R   0.473367 0.129785 0.485120 0.466451
C8    C     C_R   0.313262 0.169419 0.552412 -0.282589
C9    C     C_R   0.597335 0.802029 0.533638 -0.149166
C10   C     C_R   0.893137 0.339975 0.628863 -0.399510
C11   C     C_R   0.212033 0.615095 0.372461 0.003619
C12   C     C_1   0.528229 0.496777 0.217193 -0.142823
C13   C     C_R   0.109740 0.615220 0.324898 -0.251597
C14   C     C_R   0.023708 0.557753 0.363021 -0.124071
C15   C     C_R   0.038312 0.508521 0.453941 0.045697
C16   C     C_R   0.440068 0.308647 0.491096 0.880851
C17   C     C_R   0.144617 0.498323 0.490640 0.221718
C18   C     C_R   0.953175 0.463487 0.506368 -0.073459
C19   C     C_R   0.975075 0.390154 0.579075 0.108586
C20   C     C_R   0.079582 0.369455 0.603635 -0.235534
C21   C     C_R   0.163719 0.426269 0.563011 -0.224444
C22   C     C_R   0.849468 0.493366 0.496429 0.259803
C23   C     C_R   0.296866 0.070199 0.588808 -0.138457
C24   C     C_R   0.790560 0.369441 0.613815 0.605021
C25   C     C_R   0.482624 0.502055 0.681523 0.878784
C26   C     C_1   0.468295 0.495199 0.781817 -0.192470
C27   C     C_2   0.445408 0.480213 0.969340 0.535923
C28   C     C_2   0.537629 0.496780 0.027812 -0.269289
C29   C     C_1   0.535863 0.496686 0.131193 0.089305
C30   C     C_1   0.455256 0.487991 0.866478 -0.177185
C31   C     C_3   0.724261 0.294415 0.754208 0.055811
C32   C     C_3   0.716844 0.177063 0.764349 -0.350607
C33   C     C_3   0.735783 0.148187 0.872143 -0.930391
C34   C     C_R   0.403360 0.199972 0.503242 -0.165122
C35   C     C_3   0.256071 0.445519 0.940106 0.100384
C36   C     C_3   0.219945 0.550480 0.915268 -0.344691
C37   C     C_3   0.119300 0.537758 0.841434 -0.968521
C38   C     C_3   0.203156 0.795315 0.629464 0.069891
C39   C     C_3   0.096227 0.795158 0.671877 -0.323872
C40   C     C_3   0.012920 0.707583 0.626224 -0.907887
C41   C     C_3   0.502206 0.139553 0.321926 0.078371
C42   C     C_3   0.501662 0.027499 0.286052 -0.349287
C43   C     C_3   0.460805 0.012556 0.176677 -0.928326
C44   C     C_R   0.702666 0.842062 0.517674 -0.205264
C45   C     C_R   0.734009 0.948383 0.518292 0.282830
C46   C     C_R   0.658078 0.014893 0.526229 -0.163939
C47   C     C_R   0.550920 0.975213 0.538942 0.032578
C48   C     C_R   0.526399 0.869978 0.558473 0.012275
H1    H     H_    0.614566 0.513751 0.998521 0.122881
H2    H     H_    0.225657 0.047342 0.625101 0.196739
H3    H     H_    0.760587 0.791527 0.504313 0.227262
H4    H     H_    0.685016 0.097143 0.526803 0.224105
H5    H     H_    0.660876 0.321987 0.794147 0.173528
H6    H     H_    0.801937 0.334850 0.791229 0.111273
H7    H     H_    0.635867 0.139813 0.732612 0.236807
H8    H     H_    0.777117 0.146642 0.722491 0.229639
H9    H     H_    0.817212 0.182885 0.904806 0.263150
H10   H     H_    0.729321 0.062738 0.876886 0.272441
H11   H     H_    0.674824 0.175913 0.915064 0.263450
H12   H     H_    0.422023 0.759999 0.634800 0.169971
H13   H     H_    0.190733 0.398513 0.974480 0.163527
H14   H     H_    0.266598 0.400441 0.872635 0.133735
H15   H     H_    0.202843 0.588931 0.984049 0.230119
H16   H     H_    0.284665 0.601209 0.883575 0.228216
H17   H     H_    0.137349 0.507072 0.769653 0.275134
H18   H     H_    0.091319 0.614046 0.829906 0.272100
H19   H     H_    0.054009 0.484297 0.869368 0.261805
H20   H     H_    0.232618 0.719774 0.643690 0.159395
H21   H     H_    0.189524 0.805607 0.548074 0.147255
H22   H     H_    0.108047 0.786545 0.753121 0.227031
H23   H     H_    0.097153 0.313355 0.658736 0.153989
H24   H     H_    0.066094 0.870172 0.656914 0.250100
H25   H     H_    0.001406 0.715095 0.544986 0.303260
H26   H     H_    0.935190 0.711113 0.656060 0.274864
H27   H     H_    0.039520 0.631739 0.643807 0.259306
H28   H     H_    0.551650 0.191698 0.275708 0.177606
H29   H     H_    0.419610 0.161434 0.310722 0.117773
H30   H     H_    0.584386 0.006968 0.298136 0.250516
H31   H     H_    0.449074 0.974357 0.328801 0.216428
H32   H     H_    0.377571 0.031359 0.163175 0.266535
H33   H     H_    0.460872 0.930697 0.153176 0.269249
H34   H     H_    0.909612 0.279057 0.678840 0.165991
H35   H     H_    0.513517 0.063013 0.131799 0.266468
H36   H     H_    0.280376 0.655216 0.341022 0.150187
H37   H     H_    0.948100 0.547209 0.317184 0.194807
H38   H     H_    0.097785 0.655301 0.256551 0.161973
H39   H     H_    0.242637 0.410471 0.587722 0.207061
H40   H     H_    0.258167 0.223208 0.566166 0.178538
N1    N     N_R   0.773270 0.445590 0.549770 -0.146891
N2    N     N_R   0.227520 0.553880 0.450750 -0.137993
O1    O     O_R   0.631100 0.627590 0.523760 -0.571704
O2    O     O_3   0.348162 0.458217 0.010339 -0.638075
O3    O     O_3   0.277075 0.876163 0.677197 -0.651290
O4    O     O_3   0.550108 0.154546 0.420686 -0.645835
O5    O     O_R   0.455900 0.662370 0.491970 -0.627289
O6    O     O_R   0.600200 0.480080 0.377830 -0.565437
O7    O     O_R   0.425000 0.514870 0.346040 -0.607918
O8    O     O_R   0.544100 0.337630 0.508030 -0.519405
O9    O     O_R   0.368900 0.372410 0.476240 -0.637534
O10   O     O_R   0.575000 0.485130 0.653960 -0.584681
O11   O     O_R   0.399800 0.519920 0.622170 -0.649099
O12   O     O_3   0.702617 0.317334 0.653558 -0.605563
Zn1   Zn    Zn3+2 0.616980 0.476780 0.521230 1.033587
Zn2   Zn    Zn3+2 0.383020 0.523220 0.478770 0.922041

loop_
_geom_bond_atom_site_label_1
_geom_bond_atom_site_label_2
_ccdc_geom_bond_type
C31   H5    S    
C28   H1    S    
C38   H21   S    
C31   O12   S    
C37   H18   S    
N1    Zn1   S    
C43   H35   S    
C43   H32   S    
C12   C29   T    
C5    C6    A    
C41   H28   S    
C46   H4    S    
O8    Zn1   S    
C35   C36   S    
O6    Zn1   S    
C38   H20   S    
C4    O6    A    
C27   C30   S    
C28   C29   S    
C41   H29   S    
C13   C14   A    
C15   C18   A    
C10   H34   S    
O10   Zn1   S    
C33   H9    S    
C32   C33   S    
C39   C40   S    
C17   N2    A    
O1    Zn1   S    
C39   H24   S    
C18   C22   A    
C14   C15   A    
C11   H36   S    
C14   H37   S    
C21   H39   S    
C24   O12   S    
C31   H6    S    
C19   C20   A    
C43   H33   S    
C16   O8    A    
C35   H13   S    
C31   C32   S    
C37   H19   S    
C36   C37   S    
C7    C34   A    
C36   H16   S    
C26   C30   T    
C1    O1    A    
C42   H31   S    
C3    C5    A    
C24   N1    A    
C10   C19   A    
C10   C24   A    
C33   H10   S    
C16   O9    A    
C17   C21   A    
C41   C42   S    
C27   C28   D    
C4    C12   S    
C1    O5    A    
C45   C46   A    
C36   H15   S    
C42   H30   S    
C41   O4    S    
C40   H25   S    
C33   H11   S    
C7    O4    S    
Br1   C22   S    
C39   H22   S    
C3    C23   A    
O5    Zn2   S    
C8    C23   A    
N2    Zn2   S    
C38   C39   S    
C11   C13   A    
C11   N2    A    
C38   O3    S    
C22   N1    A    
C6    C48   A    
C35   H14   S    
C42   C43   S    
O9    Zn2   S    
O7    Zn2   S    
C44   C45   A    
C46   C47   A    
C37   H17   S    
C2    C3    A    
Br2   C45   S    
C5    O3    S    
C25   O10   A    
C40   H26   S    
C2    C47   A    
C4    O7    A    
C23   H2    S    
C9    C48   A    
C27   O2    S    
C32   H7    S    
C44   H3    S    
C25   O11   A    
C15   C17   A    
C35   O2    S    
O11   Zn2   S    
C1    C9    S    
C18   C19   A    
C8    H40   S    
C40   H27   S    
C47   C48   A    
C25   C26   S    
C32   H8    S    
C20   C21   A    
C9    C44   A    
C8    C34   A    
C20   H23   S    
C2    C7    A    
C16   C34   S    
C6    H12   S    
C13   H38   S    
