data_mof_unit_2037.cif
_audit_creation_date              2012-12-11T14:42:04-0500
_audit_creation_method            fapswitch 2.2
_symmetry_space_group_name_H-M    P1
_symmetry_Int_Tables_number       1
_space_group_crystal_system       triclinic
_cell_length_a                    18.922668
_cell_length_b                    10.946951
_cell_length_c                    18.748946
_cell_angle_alpha                 89.86978
_cell_angle_beta                  90.454707
_cell_angle_gamma                 90.497936
_cell_volume                      3883.48176328

loop_
_atom_site_label
_atom_site_type_symbol
_atom_type_description
_atom_site_fract_x
_atom_site_fract_y
_atom_site_fract_z
_atom_type_partial_charge
C1    C     C_R   0.727835 0.953877 0.852908 0.547230
C2    C     C_R   0.271510 0.953034 0.147791 0.539164
C3    C     C_R   0.227835 0.453875 0.852907 0.547228
C4    C     C_R   0.771511 0.453034 0.147792 0.539163
C5    C     C_R   0.694406 0.463695 0.041058 -0.085674
C6    C     C_R   0.307429 0.456065 0.957978 -0.079099
C7    C     C_R   0.194414 0.963721 0.041054 -0.085660
C8    C     C_R   0.807420 0.956092 0.957985 -0.079094
C9    C     C_R   0.749420 0.406969 0.078538 -0.029733
C10   C     C_R   0.251637 0.401558 0.920118 -0.030629
C11   C     C_R   0.249419 0.906975 0.078537 -0.029727
C12   C     C_R   0.751639 0.901562 0.920119 -0.030616
C13   C     C_R   0.794813 0.328655 0.043290 -0.107343
C14   C     C_R   0.211270 0.309285 0.951793 -0.110900
C15   C     C_R   0.294801 0.828644 0.043292 -0.107345
C16   C     C_R   0.711284 0.809266 0.951788 -0.110874
C17   C     C_R   0.793350 0.323076 0.970221 -0.124472
C18   C     C_R   0.221178 0.281119 0.022868 -0.136962
C19   C     C_R   0.293339 0.823072 0.970222 -0.124496
C20   C     C_R   0.721192 0.781098 0.022863 -0.136958
C21   C     C_R   0.743244 0.389723 0.930489 0.015248
C22   C     C_R   0.273655 0.340552 0.063075 0.011103
C23   C     C_R   0.243244 0.889727 0.930488 0.015235
C24   C     C_R   0.773657 0.840552 0.063075 0.011105
C25   C     C_R   0.463558 0.277582 0.549302 -0.124296
C26   C     C_R   0.446338 0.279841 0.478061 -0.135192
C27   C     C_R   0.963572 0.777589 0.549297 -0.124303
C28   C     C_R   0.946355 0.779847 0.478057 -0.135185
C29   C     C_R   0.445954 0.171954 0.438675 0.015055
C30   C     C_R   0.485406 0.168071 0.581121 0.029521
C31   C     C_R   0.945958 0.671955 0.438675 0.015067
C32   C     C_R   0.985408 0.668073 0.581120 0.029520
C33   C     C_R   0.457420 0.059338 0.472854 -0.121855
C34   C     C_R   0.478343 0.057573 0.544090 -0.130163
C35   C     C_R   0.957411 0.559338 0.472856 -0.121848
C36   C     C_R   0.978334 0.557574 0.544094 -0.130139
C37   C     C_R   0.796969 0.322426 0.529677 -0.075502
C38   C     C_R   0.223566 0.273726 0.478934 -0.122573
C39   C     C_R   0.296990 0.822463 0.529679 -0.075515
C40   C     C_R   0.723524 0.773779 0.478921 -0.122550
C41   C     C_R   0.796652 0.321645 0.456249 0.226168
C42   C     C_R   0.214923 0.300609 0.550978 0.243299
C43   C     C_R   0.296681 0.821670 0.456252 0.226172
C44   C     C_R   0.714892 0.800634 0.550968 0.243287
C45   C     C_R   0.528824 0.176507 0.850577 0.565432
C46   C     C_R   0.471527 0.177428 0.149769 0.559000
C47   C     C_R   0.028821 0.676508 0.850576 0.565421
C48   C     C_R   0.971529 0.677428 0.149770 0.559006
C49   C     C_R   0.749110 0.398600 0.419178 0.020435
C50   C     C_R   0.251135 0.402152 0.580305 0.062639
C51   C     C_R   0.249116 0.898571 0.419171 0.020459
C52   C     C_R   0.751140 0.902126 0.580313 0.062615
C53   C     C_R   0.692102 0.449216 0.455780 -0.179310
C54   C     C_R   0.298142 0.470265 0.538258 -0.182146
C55   C     C_R   0.192075 0.949102 0.455760 -0.179353
C56   C     C_R   0.798171 0.970209 0.538276 -0.182122
C57   C     C_R   0.688381 0.437784 0.529642 -0.144107
C58   C     C_R   0.305268 0.443625 0.466430 -0.150943
C59   C     C_R   0.188336 0.937627 0.529619 -0.144310
C60   C     C_R   0.805292 0.943589 0.466444 -0.150928
C61   C     C_R   0.743325 0.380907 0.567346 -0.008419
C62   C     C_R   0.267402 0.345838 0.436423 -0.012536
C63   C     C_R   0.243310 0.880860 0.567336 -0.008430
C64   C     C_R   0.767394 0.845851 0.436423 -0.012545
C65   C     C_R   0.737179 0.359478 0.854856 0.552766
C66   C     C_R   0.276190 0.313539 0.139716 0.563197
C67   C     C_R   0.237179 0.859476 0.854857 0.552759
C68   C     C_R   0.776190 0.813539 0.139716 0.563203
C69   C     C_R   0.728707 0.952538 0.648408 0.573722
C70   C     C_R   0.270731 0.950620 0.350755 0.525352
C71   C     C_R   0.228704 0.452548 0.648404 0.573751
C72   C     C_R   0.770730 0.450625 0.350757 0.525352
C73   C     C_R   0.527214 0.176017 0.646157 0.545715
C74   C     C_R   0.435104 0.180187 0.362177 0.544016
C75   C     C_R   0.027214 0.676018 0.646158 0.545708
C76   C     C_R   0.935105 0.680187 0.362177 0.544019
C77   C     C_R   0.737488 0.355062 0.643357 0.561697
C78   C     C_R   0.273835 0.314405 0.361451 0.541323
C79   C     C_R   0.237479 0.855033 0.643349 0.561703
C80   C     C_R   0.773832 0.814414 0.361451 0.541326
C81   C     C_2   0.496780 0.164398 0.921835 -0.134552
C82   C     C_2   0.504616 0.167437 0.079108 -0.144426
C83   C     C_2   0.996782 0.664407 0.921836 -0.134546
C84   C     C_2   0.004620 0.667439 0.079110 -0.144412
C85   C     C_2   0.503702 0.061203 0.041521 -0.006587
C86   C     C_2   0.502177 0.059896 0.961143 -0.004873
C87   C     C_2   0.003705 0.561207 0.041521 -0.006596
C88   C     C_2   0.002170 0.559904 0.961143 -0.004859
C89   C     C_R   0.692053 0.459548 0.966866 0.213751
C90   C     C_R   0.320130 0.424480 0.028693 0.213698
C91   C     C_R   0.192062 0.959568 0.966862 0.213765
C92   C     C_R   0.820122 0.924503 0.028699 0.213710
Cr1   Cr    Cr6+3 0.769270 0.163730 0.750710 1.021891
Cr2   Cr    Cr6+3 0.230730 0.163730 0.249290 1.035016
Cr3   Cr    Cr6+3 0.269270 0.663730 0.750710 1.021895
Cr4   Cr    Cr6+3 0.730730 0.663730 0.249290 1.035011
Cr5   Cr    Cr6+3 0.612620 0.009790 0.748780 1.081451
Cr6   Cr    Cr6+3 0.387380 0.009790 0.251220 1.071117
Cr7   Cr    Cr6+3 0.112620 0.509790 0.748780 1.081489
Cr8   Cr    Cr6+3 0.887380 0.509790 0.251220 1.071122
Cr9   Cr    Cr6+3 0.614160 0.322500 0.747710 1.055314
Cr10  Cr    Cr6+3 0.385840 0.322500 0.252290 1.037798
Cr11  Cr    Cr6+3 0.114160 0.822500 0.747710 1.055308
Cr12  Cr    Cr6+3 0.885840 0.822500 0.252290 1.037806
H1    H     H_    0.652360 0.501850 0.427816 0.134712
H2    H     H_    0.326097 0.548772 0.559711 0.143251
H3    H     H_    0.152319 0.001698 0.427790 0.134754
H4    H     H_    0.826153 0.048680 0.559741 0.143229
H5    H     H_    0.643021 0.473405 0.557176 0.145047
H6    H     H_    0.339568 0.500583 0.434290 0.173105
H7    H     H_    0.142938 0.973134 0.557140 0.144885
H8    H     H_    0.839613 0.000524 0.434313 0.173135
H9    H     H_    0.515998 0.253923 0.053423 0.098265
H10   H     H_    0.482489 0.249990 0.946343 0.100783
H11   H     H_    0.016001 0.753927 0.053427 0.098254
H12   H     H_    0.982504 0.750004 0.946347 0.100782
H13   H     H_    0.656493 0.519220 0.068894 0.155859
H14   H     H_    0.339828 0.526577 0.933660 0.157533
H15   H     H_    0.156505 0.019257 0.068888 0.155845
H16   H     H_    0.839809 0.026625 0.933673 0.157524
H17   H     H_    0.834766 0.277640 0.071883 0.206913
H18   H     H_    0.168591 0.264933 0.923004 0.208376
H19   H     H_    0.334743 0.777604 0.071888 0.206883
H20   H     H_    0.668614 0.764896 0.922993 0.208337
H21   H     H_    0.831401 0.263783 0.945283 0.178785
H22   H     H_    0.185254 0.216798 0.047320 0.167126
H23   H     H_    0.331377 0.763769 0.945286 0.178789
H24   H     H_    0.685278 0.716755 0.047311 0.167116
H25   H     H_    0.466414 0.363998 0.577293 0.139272
H26   H     H_    0.437525 0.367341 0.452885 0.135838
H27   H     H_    0.966436 0.864007 0.577285 0.139272
H28   H     H_    0.937556 0.867349 0.452878 0.135829
H29   H     H_    0.454917 0.974092 0.443705 0.172934
H30   H     H_    0.493566 0.971758 0.568363 0.143708
H31   H     H_    0.954898 0.474091 0.443711 0.172913
H32   H     H_    0.993548 0.471757 0.568369 0.143748
H33   H     H_    0.837374 0.270031 0.556833 0.152843
H34   H     H_    0.194851 0.198057 0.455483 0.112381
H35   H     H_    0.337418 0.770135 0.556845 0.152827
H36   H     H_    0.694782 0.698151 0.455460 0.112406
O1    O     O_R   0.784320 0.290430 0.830510 -0.512190
O2    O     O_R   0.215680 0.290430 0.169490 -0.468017
O3    O     O_R   0.284320 0.790430 0.830510 -0.512175
O4    O     O_R   0.715680 0.790430 0.169490 -0.468007
O5    O     O_R   0.554640 0.080370 0.673500 -0.502192
O6    O     O_R   0.445360 0.080370 0.326500 -0.481043
O7    O     O_R   0.054640 0.580370 0.673500 -0.502188
O8    O     O_R   0.945360 0.580370 0.326500 -0.481044
O9    O     O_R   0.543920 0.282180 0.666790 -0.528467
O10   O     O_R   0.456080 0.282180 0.333210 -0.510900
O11   O     O_R   0.043920 0.782180 0.666790 -0.528483
O12   O     O_R   0.956080 0.782180 0.333210 -0.510909
O13   O     O_R   0.679040 0.374160 0.674430 -0.489358
O14   O     O_R   0.320960 0.374160 0.325570 -0.508566
O15   O     O_R   0.179040 0.874160 0.674430 -0.489376
O16   O     O_R   0.820960 0.874160 0.325570 -0.508546
O17   O     O_3   0.665350 0.165340 0.749070 -0.266388
O18   O     O_3   0.334650 0.165340 0.250930 -0.327417
O19   O     O_3   0.165350 0.665340 0.749070 -0.266402
O20   O     O_3   0.834650 0.665340 0.250930 -0.327412
O21   O     O_R   0.762640 0.040960 0.825200 -0.514919
O22   O     O_R   0.237360 0.040960 0.174800 -0.530250
O23   O     O_R   0.262640 0.540960 0.825200 -0.514915
O24   O     O_R   0.737360 0.540960 0.174800 -0.530247
O25   O     O_R   0.667400 0.923970 0.829950 -0.493197
O26   O     O_R   0.332600 0.923970 0.170050 -0.496092
O27   O     O_R   0.167400 0.423970 0.829950 -0.493195
O28   O     O_R   0.832600 0.423970 0.170050 -0.496098
O29   O     O_R   0.553960 0.081340 0.821780 -0.468499
O30   O     O_R   0.446040 0.081340 0.178220 -0.454901
O31   O     O_R   0.053960 0.581340 0.821780 -0.468516
O32   O     O_R   0.946040 0.581340 0.178220 -0.454907
O33   O     O_R   0.543180 0.283240 0.826740 -0.493221
O34   O     O_R   0.456820 0.283240 0.173260 -0.535065
O35   O     O_R   0.043180 0.783240 0.826740 -0.493220
O36   O     O_R   0.956820 0.783240 0.173260 -0.535066
O37   O     O_R   0.678360 0.375140 0.822710 -0.484594
O38   O     O_R   0.321640 0.375140 0.177290 -0.463522
O39   O     O_R   0.178360 0.875140 0.822710 -0.484578
O40   O     O_R   0.821640 0.875140 0.177290 -0.463521
O41   O     O_R   0.785050 0.289380 0.670560 -0.527657
O42   O     O_R   0.214950 0.289380 0.329440 -0.481901
O43   O     O_R   0.285050 0.789380 0.670560 -0.527657
O44   O     O_R   0.714950 0.789380 0.329440 -0.481943
O45   O     O_R   0.763320 0.039990 0.676930 -0.529006
O46   O     O_R   0.236680 0.039990 0.323070 -0.526783
O47   O     O_R   0.263320 0.539990 0.676930 -0.529029
O48   O     O_R   0.736680 0.539990 0.323070 -0.526779
O49   O     O_R   0.668130 0.922920 0.670000 -0.449687
O50   O     O_R   0.331870 0.922920 0.330000 -0.497011
O51   O     O_R   0.168130 0.422920 0.670000 -0.449625
O52   O     O_R   0.831870 0.422920 0.330000 -0.497012
C93   C     C_2   0.507936 0.942150 0.080344 0.650583
O53   O     O_2   0.551288 0.929329 0.128498 -0.478305
O54   O     O_R   0.463110 0.845221 0.061630 -0.681903
H37   H     H_    0.471705 0.769511 0.091606 0.348165
C94   C     C_2   0.503277 0.939460 0.924207 0.655527
O55   O     O_2   0.547401 0.863260 0.940396 -0.494937
O56   O     O_R   0.453328 0.914055 0.870752 -0.683635
H38   H     H_    0.459010 0.829493 0.849728 0.334132
C95   C     C_2   0.007949 0.442152 0.080342 0.650549
O57   O     O_2   0.051306 0.429339 0.128495 -0.478313
O58   O     O_R   0.963124 0.345213 0.061631 -0.681905
H39   H     H_    0.971721 0.269503 0.091608 0.348158
C96   C     C_2   0.003241 0.439475 0.924203 0.655513
O59   O     O_2   0.047364 0.363261 0.940368 -0.494932
O60   O     O_R   0.953263 0.414090 0.870774 -0.683683
H40   H     H_    0.958925 0.329529 0.849747 0.334148
O61   O     O_3   0.845263 0.248646 0.422840 -0.710850
H41   H     H_    0.824162 0.221469 0.376894 0.342982
O62   O     O_3   0.169539 0.232046 0.592660 -0.680923
H42   H     H_    0.139579 0.180305 0.561263 0.309373
O63   O     O_3   0.345325 0.748722 0.422855 -0.710874
H43   H     H_    0.324232 0.721492 0.376915 0.342972
O64   O     O_3   0.669490 0.732075 0.592633 -0.680909
H44   H     H_    0.639332 0.680709 0.561191 0.309278
O65   O     O_3   0.640282 0.525980 0.932707 -0.682309
H45   H     H_    0.659313 0.555177 0.886647 0.331926
O66   O     O_3   0.375144 0.482955 0.062939 -0.685590
H46   H     H_    0.404095 0.418351 0.085052 0.350285
O67   O     O_3   0.140298 0.026004 0.932701 -0.682328
H47   H     H_    0.159332 0.055194 0.886641 0.331932
O68   O     O_3   0.875128 0.982995 0.062950 -0.685592
H48   H     H_    0.904090 0.918399 0.085057 0.350282

loop_
_geom_bond_atom_site_label_1
_geom_bond_atom_site_label_2
_ccdc_geom_bond_type
C58   C62   A    
C87   C88   S    
Cr3   O3    S    
C48   C84   S    
C14   H18   S    
Cr7   O19   S    
Cr8   O32   S    
C44   O64   S    
C27   H27   S    
C95   O57   D    
C14   C18   A    
Cr9   O33   S    
C35   C36   A    
C84   C87   D    
C88   C96   S    
O64   H44   S    
C25   H25   S    
Cr10  O18   S    
C32   C75   S    
C13   H17   S    
C3    O27   A    
Cr12  O36   S    
C21   C89   A    
C96   O59   D    
C7    C11   A    
C66   O38   A    
C8    H16   S    
C50   C54   A    
C15   H19   S    
Cr3   O19   S    
C32   C36   A    
Cr4   O44   S    
C38   C42   A    
C55   C59   A    
C42   O62   S    
C49   C53   A    
Cr7   O31   S    
C4    O24   A    
C34   H30   S    
C80   O44   A    
C29   C33   A    
Cr5   O29   S    
C23   C67   S    
C57   C61   A    
C94   O56   S    
C9    C13   A    
C56   H4    S    
C52   C69   S    
C77   O13   A    
C46   C82   S    
C11   C15   A    
C57   H5    S    
C12   C16   A    
C61   C77   S    
C93   O54   S    
C49   C72   S    
C81   H10   S    
Cr6   O18   S    
C59   H7    S    
C46   O34   A    
C8    C92   A    
C51   C70   S    
C47   C83   S    
C8    C12   A    
C91   O67   S    
Cr10  O14   S    
Cr11  O39   S    
C81   C86   D    
C26   H26   S    
Cr11  O11   S    
C21   C65   S    
C44   C52   A    
Cr5   O49   S    
C83   C88   D    
C67   O3    A    
O56   H38   S    
Cr2   O18   S    
C48   O32   A    
C37   C41   A    
C47   O31   A    
C95   O58   S    
C2    O22   A    
Cr8   O52   S    
C1    C12   S    
Cr1   O41   S    
Cr12  O20   S    
C64   C80   S    
C2    C11   S    
C24   C92   A    
C41   C49   A    
C62   C78   S    
C60   C64   A    
C80   O16   A    
Cr7   O27   S    
C96   O60   S    
C55   H3    S    
C38   H34   S    
C39   H35   S    
C30   C34   A    
Cr3   O47   S    
O60   H40   S    
Cr2   O2    S    
C20   H24   S    
C7    H15   S    
Cr8   O28   S    
O68   H48   S    
O61   H41   S    
C10   C14   A    
C69   O49   A    
O66   H46   S    
C30   C73   S    
C54   H2    S    
C19   C23   A    
C78   O14   A    
C63   C79   S    
C29   C74   S    
Cr6   O6    S    
C75   O7    A    
C25   C26   A    
C85   C86   S    
C38   C62   A    
C79   O15   A    
C68   O40   A    
C17   C21   A    
Cr4   O24   S    
C73   O5    A    
C28   H28   S    
Cr5   O17   S    
C15   C19   A    
C50   C71   S    
C17   H21   S    
C5    C9    A    
O67   H47   S    
C60   H8    S    
C33   H29   S    
Cr4   O4    S    
C65   O1    A    
Cr8   O20   S    
C77   O41   A    
O62   H42   S    
Cr3   O43   S    
O63   H43   S    
C16   C20   A    
C7    C91   A    
Cr11  O35   S    
C33   C34   A    
C22   C90   A    
Cr12  O16   S    
Cr1   O17   S    
C90   O66   S    
Cr6   O26   S    
C46   O30   A    
Cr6   O50   S    
Cr10  O10   S    
Cr11  O15   S    
Cr4   O20   S    
C42   C50   A    
Cr1   O21   S    
C84   H11   S    
C1    O21   A    
C6    C90   A    
C72   O48   A    
Cr10  O38   S    
C23   C91   A    
C2    O26   A    
C35   H31   S    
C43   O63   S    
C69   O45   A    
C27   C28   A    
Cr1   O1    S    
C70   O50   A    
Cr11  O19   S    
C54   C58   A    
C25   C30   A    
Cr7   O7    S    
C53   C57   A    
C73   O9    A    
C27   C32   A    
C58   H6    S    
C4    O28   A    
Cr5   O5    S    
C83   H12   S    
C74   O6    A    
C28   C31   A    
C45   C81   S    
Cr2   O46   S    
C82   H9    S    
C71   O47   A    
C45   O29   A    
C6    C10   A    
C37   C61   A    
C22   C66   S    
C66   O2    A    
C3    O23   A    
Cr10  O34   S    
C82   C85   D    
C39   C63   A    
C19   H23   S    
C59   C63   A    
C40   C64   A    
C13   C17   A    
Cr3   O23   S    
C36   H32   S    
C92   O68   S    
C71   O51   A    
Cr12  O12   S    
C18   C22   A    
O65   H45   S    
C70   O46   A    
C41   O61   S    
C3    C10   S    
C67   O39   A    
C18   H22   S    
C72   O52   A    
Cr7   O51   S    
C43   C51   A    
C31   C76   S    
Cr12  O40   S    
C65   O37   A    
Cr8   O8    S    
Cr5   O25   S    
C40   H36   S    
C31   C35   A    
Cr9   O9    S    
C79   O43   A    
C68   O4    A    
C51   C55   A    
C85   C93   S    
C16   H20   S    
C94   O55   D    
C20   C24   A    
C5    C89   A    
Cr9   O37   S    
C24   C68   S    
C86   C94   S    
C89   O65   S    
O54   H37   S    
Cr6   O30   S    
C53   H1    S    
C45   O33   A    
C40   C44   A    
C56   C60   A    
C1    O25   A    
C76   O8    A    
C26   C29   A    
C93   O53   D    
C39   C43   A    
C5    H13   S    
C75   O11   A    
C47   O35   A    
C76   O12   A    
C74   O10   A    
C37   H33   S    
Cr2   O42   S    
O58   H39   S    
C78   O42   A    
C4    C9    S    
Cr9   O13   S    
Cr4   O48   S    
C87   C95   S    
Cr9   O17   S    
Cr2   O22   S    
C52   C56   A    
C6    H14   S    
C48   O36   A    
Cr1   O45   S    
