data_mof_unit_1187.cif
_audit_creation_date              2012-12-11T15:16:37-0500
_audit_creation_method            fapswitch 2.2
_symmetry_space_group_name_H-M    P1
_symmetry_Int_Tables_number       1
_space_group_crystal_system       triclinic
_cell_length_a                    25.161627
_cell_length_b                    7.247397
_cell_length_c                    21.942632
_cell_angle_alpha                 89.928091
_cell_angle_beta                  110.089788
_cell_angle_gamma                 90.122865
_cell_volume                      3757.90613224

loop_
_atom_site_label
_atom_site_type_symbol
_atom_type_description
_atom_site_fract_x
_atom_site_fract_y
_atom_site_fract_z
_atom_type_partial_charge
O1    O     O_R   0.554350 0.505270 0.581390 -0.524578
O2    O     O_R   0.445650 0.005270 0.418610 -0.523571
O3    O     O_R   0.553380 0.177580 0.454800 -0.543680
O4    O     O_R   0.446620 0.677580 0.545200 -0.544089
C1    C     C_R   0.565425 0.344662 0.437923 0.751903
C2    C     C_R   0.434385 0.844288 0.561957 0.750313
O5    O     O_R   0.560970 0.175640 0.583140 -0.540765
O6    O     O_R   0.439030 0.675640 0.416860 -0.541415
O7    O     O_R   0.453290 0.004120 0.547860 -0.534119
O8    O     O_R   0.546710 0.504120 0.452140 -0.534658
C3    C     C_R   0.576344 0.344092 0.607195 0.785898
C4    C     C_R   0.423672 0.843951 0.392775 0.785240
O9    O     O_3   0.464660 0.338800 0.488280 -0.378383
O10   O     O_3   0.535340 0.838800 0.511720 -0.378423
V1    V     V_3+5 0.506560 0.064420 0.502170 1.452375
V2    V     V_3+5 0.493440 0.564420 0.497830 1.451065
C5    C     C_R   0.145066 0.940658 0.289664 -0.131954
C6    C     C_R   0.855327 0.433055 0.710366 -0.133781
H1    H     H_    0.228231 0.956449 0.400879 0.122431
H2    H     H_    0.772341 0.446312 0.598872 0.122840
H3    H     H_    0.132419 0.947685 0.332142 0.131745
H4    H     H_    0.868123 0.435885 0.667941 0.132044
C7    C     C_R   0.119690 0.939739 0.172765 -0.076009
C8    C     C_R   0.880410 0.439001 0.827207 -0.070083
C9    C     C_R   0.393988 0.798373 0.275605 -0.183765
C10   C     C_R   0.605766 0.303186 0.724576 -0.184388
C11   C     C_R   0.353735 0.775987 0.213943 0.207544
C12   C     C_R   0.645862 0.283331 0.786456 0.207405
C13   C     C_R   0.296822 0.810824 0.203852 -0.164249
C14   C     C_R   0.702883 0.316804 0.796490 -0.165145
C15   C     C_R   0.278770 0.876710 0.254109 -0.014395
C16   C     C_R   0.721221 0.378603 0.745876 -0.013647
C17   C     C_R   0.319763 0.886484 0.318609 0.045918
C18   C     C_R   0.680364 0.385706 0.681258 0.045733
C19   C     C_R   0.220186 0.916784 0.242869 -0.016356
C20   C     C_R   0.779928 0.417001 0.756992 -0.015389
C21   C     C_R   0.202675 0.931547 0.297428 0.027550
C22   C     C_R   0.797634 0.427028 0.702460 0.027180
C23   C     C_R   0.242559 0.938165 0.359963 -0.242993
C24   C     C_R   0.757862 0.431465 0.639828 -0.242757
C25   C     C_R   0.300708 0.923877 0.371145 0.321445
C26   C     C_R   0.699640 0.419083 0.628591 0.321249
C27   C     C_R   0.177700 0.940628 0.179829 0.250803
C28   C     C_R   0.822368 0.443273 0.819912 0.244594
C29   C     C_R   0.103433 0.938046 0.228061 0.074536
C30   C     C_R   0.896836 0.431624 0.772077 0.078853
C31   C     C_R   0.378133 0.849545 0.328358 -0.118409
C32   C     C_R   0.621878 0.350391 0.671597 -0.117935
H5    H     H_    0.438052 0.768564 0.283281 0.104205
H6    H     H_    0.561603 0.274743 0.716978 0.103973
H7    H     H_    0.266872 0.776566 0.156686 0.176402
H8    H     H_    0.732678 0.284716 0.843959 0.172591
C33   C     C_R   0.141452 0.775615 0.908040 0.360338
C34   C     C_R   0.881933 0.259472 0.122528 0.357229
C35   C     C_R   0.180815 0.768856 0.874293 0.067684
C36   C     C_R   0.841327 0.249142 0.154244 0.083931
C37   C     C_R   0.182730 0.915849 0.832156 -0.002009
C38   C     C_R   0.819981 0.412019 0.172342 -0.001680
C39   C     C_R   0.149857 0.073659 0.829868 -0.177996
C40   C     C_R   0.833573 0.580738 0.150675 -0.190339
H9    H     H_    0.151244 0.188524 0.798809 0.154362
H10   H     H_    0.816001 0.704211 0.162764 0.157676
C41   C     C_R   0.113749 0.084431 0.865971 -0.250120
C42   C     C_R   0.869321 0.591208 0.113945 -0.238428
H11   H     H_    0.088717 0.208115 0.862142 0.146867
H12   H     H_    0.877554 0.724838 0.097146 0.171936
C43   C     C_R   0.108052 0.935544 0.904290 -0.093203
C44   C     C_R   0.894779 0.432041 0.099920 -0.102983
N1    N     N_R   0.245625 0.056247 0.778854 -0.272007
N2    N     N_R   0.741360 0.530267 0.205544 -0.278405
N3    N     N_R   0.277610 0.045035 0.741429 -0.281406
N4    N     N_R   0.708457 0.521163 0.241965 -0.286930
C45   C     C_R   0.282633 0.883485 0.712238 0.533801
C46   C     C_R   0.717185 0.390170 0.288896 0.546920
N5    N     N_R   0.253354 0.734712 0.721573 -0.200238
N6    N     N_R   0.761279 0.272394 0.298951 -0.211462
N7    N     N_R   0.221392 0.745681 0.758890 -0.273205
N8    N     N_R   0.794225 0.281759 0.262771 -0.275142
C47   C     C_R   0.217431 0.905888 0.789103 0.508846
C48   C     C_R   0.784419 0.408572 0.214515 0.517570
C49   C     C_R   0.326940 0.702815 0.641772 0.386728
C50   C     C_R   0.673435 0.208458 0.358964 0.384841
C51   C     C_R   0.364294 0.696419 0.606137 -0.253083
C52   C     C_R   0.636209 0.200122 0.394642 -0.253825
H13   H     H_    0.369257 0.568106 0.583421 0.123602
H14   H     H_    0.632079 0.072061 0.418142 0.124841
C53   C     C_R   0.394799 0.853156 0.599363 -0.080838
C54   C     C_R   0.604649 0.354879 0.400261 -0.081912
C55   C     C_R   0.387169 0.018382 0.628727 -0.176955
C56   C     C_R   0.610769 0.519576 0.369397 -0.173585
H15   H     H_    0.409904 0.142234 0.624711 0.132304
H16   H     H_    0.587043 0.641637 0.372419 0.132047
C57   C     C_R   0.350779 0.026221 0.664635 -0.216588
C58   C     C_R   0.647068 0.529062 0.333454 -0.217330
H17   H     H_    0.346952 0.156014 0.687106 0.170456
H18   H     H_    0.650387 0.658320 0.310202 0.166606
C59   C     C_R   0.320229 0.869802 0.672071 -0.009250
C60   C     C_R   0.679019 0.375160 0.327877 -0.007720
O11   O     O_R   0.953220 0.285790 0.047790 -0.501214
O12   O     O_R   0.046780 0.785790 0.952210 -0.510323
O13   O     O_R   0.939020 0.617570 0.916840 -0.537372
O14   O     O_R   0.060980 0.117570 0.083160 -0.534728
C61   C     C_R   0.924179 0.448469 0.892613 0.759849
C62   C     C_R   0.075834 0.948594 0.107394 0.779723
O15   O     O_R   0.946600 0.615450 0.045180 -0.545387
O16   O     O_R   0.053400 0.115450 0.954820 -0.547837
O17   O     O_R   0.054370 0.786770 0.081410 -0.538215
O18   O     O_R   0.945630 0.286770 0.918590 -0.543840
C63   C     C_R   0.934333 0.446084 0.061942 0.726466
C64   C     C_R   0.066611 0.946657 0.939482 0.732089
O19   O     O_3   0.035300 0.454160 0.011680 -0.369095
O20   O     O_3   0.964700 0.954160 0.988320 -0.370656
V3    V     V_3+5 0.993450 0.728620 0.997830 1.505450
V4    V     V_3+5 0.006550 0.228620 0.002170 1.504236
C65   C     C_3   0.041879 0.942117 0.221911 -0.770160
H19   H     H_    0.036427 0.939772 0.270036 0.211490
H20   H     H_    0.021921 0.069919 0.196314 0.218684
H21   H     H_    0.019625 0.820153 0.194010 0.205554
C66   C     C_3   0.958483 0.429489 0.778484 -0.771617
H22   H     H_    0.964034 0.425442 0.730425 0.214210
H23   H     H_    0.979881 0.555374 0.804344 0.202755
H24   H     H_    0.979317 0.305670 0.806273 0.200651
C67   C     C_3   0.223214 0.612557 0.887906 -0.738922
H25   H     H_    0.261702 0.650563 0.877011 0.229233
H26   H     H_    0.238668 0.577225 0.940355 0.214245
H27   H     H_    0.203245 0.489238 0.859101 0.218406
C68   C     C_3   0.816657 0.064565 0.161297 -0.766338
H28   H     H_    0.773584 0.075620 0.164039 0.236998
H29   H     H_    0.811242 0.981469 0.117111 0.211359
H30   H     H_    0.845122 0.993996 0.205306 0.217396
O21   O     O_3   0.297040 0.547447 0.647368 -0.624000
H31   H     H_    0.305804 0.444849 0.622518 0.285253
O22   O     O_3   0.703488 0.054451 0.352865 -0.627464
H32   H     H_    0.695010 0.950865 0.377669 0.284827
O23   O     O_3   0.190863 0.982495 0.125350 -0.656023
H33   H     H_    0.225317 0.060780 0.139312 0.292906
O24   O     O_3   0.809198 0.489964 0.873945 -0.660731
H34   H     H_    0.774905 0.568519 0.859252 0.292903
C69   C     C_3   0.370803 0.709809 0.158494 -0.766902
H35   H     H_    0.417191 0.687192 0.173576 0.209938
H36   H     H_    0.349027 0.577522 0.139674 0.212594
H37   H     H_    0.358549 0.813908 0.118939 0.215403
C70   C     C_3   0.628484 0.221512 0.842244 -0.765608
H38   H     H_    0.582040 0.199587 0.827170 0.209574
H39   H     H_    0.649952 0.089721 0.862082 0.212714
H40   H     H_    0.640857 0.327791 0.881028 0.216076
O25   O     O_3   0.338860 0.939744 0.433546 -0.657853
H41   H     H_    0.318486 0.967960 0.463901 0.281181
O26   O     O_3   0.661614 0.432693 0.566052 -0.658484
H42   H     H_    0.682145 0.458206 0.535609 0.281011
O27   O     O_3   0.136599 0.631565 0.947215 -0.632025
H43   H     H_    0.146981 0.514561 0.931010 0.292341
O28   O     O_3   0.908400 0.101821 0.112156 -0.644030
H44   H     H_    0.911180 0.012150 0.147186 0.280469

loop_
_geom_bond_atom_site_label_1
_geom_bond_atom_site_label_2
_ccdc_geom_bond_type
C70   H40   S    
C51   C53   A    
C41   H11   S    
O12   C64   A    
C28   O24   S    
C7    C29   A    
C11   C13   A    
C50   C60   A    
C37   C47   S    
O25   H41   S    
O1    C3    A    
O2    C4    A    
C34   O28   S    
C67   H25   S    
C23   C25   A    
O5    C3    A    
C46   N6    A    
O16   V4    S    
C42   C44   A    
O15   V3    S    
C19   C21   A    
C5    C29   A    
C10   H6    S    
O16   C64   A    
H2    C24   S    
C69   H37   S    
N8    C48   A    
C49   O21   S    
C34   C44   A    
C58   C60   A    
C38   C40   A    
C65   H19   S    
O11   C63   A    
C7    C27   A    
C40   H10   S    
O6    V2    S    
C36   C68   S    
O18   V4    S    
N1    N3    A    
C26   O26   S    
O17   V3    S    
C14   H8    S    
C1    C54   S    
C12   C14   A    
C65   H20   S    
C18   C26   A    
O27   H43   S    
C15   C17   A    
C61   O18   A    
C55   H15   S    
C19   C27   A    
C9    C31   A    
C38   C48   S    
C33   C35   A    
C57   H17   S    
C22   C24   A    
C13   C15   A    
C45   N5    A    
C3    C32   S    
C2    O7    A    
C4    C31   S    
C6    C30   A    
O20   V3    S    
C49   C51   A    
C56   C58   A    
C41   C43   A    
N7    C47   A    
C35   C67   S    
C39   H9    S    
N2    C48   A    
O23   H33   S    
N4    C46   A    
N3    C45   A    
C67   H27   S    
C11   C69   S    
C2    C53   S    
C42   H12   S    
O4    V2    S    
C45   C59   S    
C68   H29   S    
O14   V4    S    
C29   C65   S    
C43   C64   S    
C56   H16   S    
C7    C62   S    
C25   O25   S    
O6    C4    A    
C65   H21   S    
C12   C70   S    
O1    V2    S    
C5    C21   A    
C66   H22   S    
C58   H18   S    
O2    V1    S    
N5    N7    A    
C66   H23   S    
H1    C23   S    
O4    C2    A    
C51   H13   S    
C54   C56   A    
C50   C52   A    
C35   C37   A    
O22   H32   S    
C17   C31   A    
C15   C19   A    
C20   C28   A    
C37   C39   A    
C9    C11   A    
C68   H28   S    
C57   C59   A    
O11   V4    S    
O3    V1    S    
N1    C47   A    
C13   H7    S    
C66   H24   S    
C70   H39   S    
O15   C63   A    
C46   C60   S    
C6    H4    S    
C39   C41   A    
O12   V3    S    
C52   C54   A    
N6    N8    A    
C24   C26   A    
O3    C1    A    
C69   H35   S    
C16   C20   A    
C34   C36   A    
C10   C32   A    
C27   O23   S    
O24   H34   S    
C10   C12   A    
O14   C62   A    
C40   C42   A    
C8    C61   S    
C8    C30   A    
C50   O22   S    
C53   C55   A    
C70   H38   S    
C6    C22   A    
C68   H30   S    
C17   C25   A    
C1    O8    A    
C21   C23   A    
O8    V2    S    
O26   H42   S    
C20   C22   A    
C14   C16   A    
C69   H36   S    
C49   C59   A    
C8    C28   A    
O5    V1    S    
C36   C38   A    
C30   C66   S    
O19   V4    S    
C44   C63   S    
C55   C57   A    
O13   V3    S    
C33   C43   A    
C9    H5    S    
C67   H26   S    
C18   C32   A    
O13   C61   A    
O9    V2    S    
C33   O27   S    
O10   V1    S    
C52   H14   S    
N2    N4    A    
O28   H44   S    
C62   O17   A    
O21   H31   S    
O7    V1    S    
C16   C18   A    
C5    H3    S    
