data_mof_unit_1035.cif
_audit_creation_date              2013-03-05T15:54:14-0500
_audit_creation_method            fapswitch 2.2
_symmetry_space_group_name_H-M    P1
_symmetry_Int_Tables_number       1
_space_group_crystal_system       triclinic
_cell_length_a                    10.502739
_cell_length_b                    10.668219
_cell_length_c                    9.948454
_cell_angle_alpha                 91.276002
_cell_angle_beta                  90.346064
_cell_angle_gamma                 91.743268
_cell_volume                      1113.86234155

loop_
_atom_site_label
_atom_site_type_symbol
_atom_site_description
_atom_site_fract_x
_atom_site_fract_y
_atom_site_fract_z
_atom_type_partial_charge
O1    O     O_R   0.500000 0.316780 0.614690 -0.646934
O2    O     O_R   0.499990 0.316750 0.385360 -0.578170
C1    C     C_R   0.515002 0.260941 0.500505 0.938349
O3    O     O_R   0.313960 0.499980 0.614650 -0.641827
O4    O     O_R   0.313940 0.499960 0.385310 -0.612929
C2    C     C_R   0.257763 0.501882 0.499632 0.895208
Zn1   Zn    Zn3+2 0.500010 0.500020 0.653130 0.986042
Zn2   Zn    Zn3+2 0.499990 0.499980 0.346870 1.031808
O5    O     O_R   0.500010 0.683250 0.614640 -0.608276
O6    O     O_R   0.500000 0.683220 0.385310 -0.578887
O7    O     O_R   0.686060 0.500040 0.614690 -0.608637
O8    O     O_R   0.686040 0.500020 0.385350 -0.589648
C3    C     C_R   0.520257 0.739131 0.501977 0.920302
C4    C     C_R   0.742388 0.500091 0.500530 0.971031
C5    C     C_3   0.041444 0.394656 0.553789 -0.243294
C6    C     C_3   0.956715 0.402922 0.428020 0.028827
H1    H     H_    0.079033 0.307669 0.596228 0.150383
C7    C     C_3   0.877469 0.499650 0.501617 0.013793
C8    C     C_3   0.960739 0.492907 0.628267 -0.115230
C9    C     C_3   0.045270 0.600881 0.573537 -0.134515
C10   C     C_3   0.959643 0.607776 0.447284 -0.157822
C11   C     C_3   0.040373 0.510061 0.372358 -0.225991
C12   C     C_3   0.122887 0.502797 0.498983 -0.000684
H2    H     H_    0.925947 0.487630 0.733133 0.176661
H3    H     H_    0.086348 0.681882 0.632850 0.162238
H4    H     H_    0.922616 0.694767 0.404488 0.199937
H5    H     H_    0.075483 0.520618 0.268437 0.167482
H6    H     H_    0.583170 0.112989 0.293384 0.193725
C13   C     C_R   0.579689 0.135711 0.757787 0.224000
C14   C     C_R   0.535938 0.078827 0.873806 -0.297682
H7    H     H_    0.530949 0.132384 0.967394 0.174679
C15   C     C_R   0.520758 0.948962 0.873030 -0.094696
C16   C     C_R   0.569080 0.882554 0.761655 0.066567
C17   C     C_R   0.563885 0.939406 0.633679 -0.001563
C18   C     C_R   0.565430 0.070736 0.632191 0.010985
C19   C     C_R   0.552024 0.130675 0.506787 -0.071893
C20   C     C_R   0.575549 0.064367 0.387699 -0.232743
C21   C     C_R   0.593298 0.936122 0.389939 -0.039090
C22   C     C_R   0.562648 0.871618 0.508834 -0.082263
H8    H     H_    0.688428 0.570388 0.127268 0.176262
C23   C     C_R   0.282026 0.397249 0.129038 0.185568
C24   C     C_R   0.170064 0.384676 0.052215 -0.213133
H9    H     H_    0.081141 0.355021 0.098109 0.165288
C25   C     C_R   0.179797 0.367966 0.914460 -0.196280
H10   H     H_    0.099327 0.330055 0.856634 0.174589
C26   C     C_R   0.297402 0.385792 0.854513 -0.133592
H11   H     H_    0.310051 0.344909 0.756396 0.196192
C27   C     C_R   0.397766 0.447367 0.925052 0.171229
C28   C     C_R   0.394992 0.449012 0.069266 0.128488
N1    N     N_R   0.498800 0.498800 0.142780 -0.105675
C29   C     C_R   0.603543 0.538675 0.073137 -0.009345
H12   H     H_    0.690369 0.563222 0.879051 0.152872
C30   C     C_R   0.603816 0.537152 0.930578 -0.067670
N2    N     N_R   0.498760 0.498720 0.857170 -0.100281
C31   C     C_2   0.911740 0.290250 0.346342 0.379490
H13   H     H_    0.980798 0.228375 0.302366 0.099845
O9    O     O_2   0.798449 0.266982 0.328930 -0.581790
C32   C     C_2   0.470748 0.886048 0.993338 0.374574
H14   H     H_    0.447482 0.941136 0.082431 0.081492
O10   O     O_2   0.449842 0.772955 0.992618 -0.581549
C33   C     C_2   0.674562 0.797748 0.791259 0.468004
H15   H     H_    0.695708 0.775832 0.894776 0.054408
O11   O     O_2   0.745002 0.759850 0.702990 -0.601909
C34   C     C_2   0.654378 0.877198 0.271248 0.462007
H16   H     H_    0.661372 0.927721 0.177957 0.036290
O12   O     O_2   0.707227 0.777200 0.278944 -0.597459
I1    I     I_    0.277676 0.229506 0.239921 -0.452993
I2    I     I_    0.735084 0.263371 0.790920 -0.414162

loop_
_geom_bond_atom_site_label_1
_geom_bond_atom_site_label_2
_geom_bond_distance
_ccdc_geom_bond_type
C27   N2    1.367871 A    
O4    Zn2   1.993363 S    
C5    C8    1.546986 S    
C31   H13   1.083185 S    
Zn2   O6    1.983522 S    
Zn1   O5    2.000239 S    
C20   C21   1.387043 A    
C14   C15   1.389585 A    
C7    C10   1.529860 S    
C23   C24   1.399941 A    
C13   C18   1.420204 A    
C8    C9    1.543716 S    
C9    C12   1.527806 S    
C15   C32   1.476760 S    
C14   H7    1.083877 S    
Zn2   O8    1.988896 S    
C6    C11   1.535583 S    
C15   C16   1.407428 A    
C5    C12   1.527589 S    
O2    C1    1.313566 A    
O8    C4    1.286467 A    
C6    C31   1.498508 S    
C23   I1    2.122466 S    
O1    Zn1   1.983521 S    
C30   N2    1.366846 A    
C34   H16   1.085340 S    
Zn1   O7    1.993364 S    
C34   O12   1.221139 D    
C11   C12   1.529440 S    
C13   C14   1.390046 A    
C24   C25   1.382857 A    
H6    C20   1.084395 S    
O3    Zn1   1.988895 S    
O4    C2    1.284469 A    
C1    C19   1.456993 S    
C6    C7    1.523035 S    
C27   C28   1.434905 A    
C10   H4    1.109648 S    
C25   C26   1.384607 A    
C8    H2    1.109518 S    
C21   C34   1.483771 S    
C11   H5    1.106697 S    
C31   O9    1.218619 D    
H8    C29   1.080283 S    
C33   H15   1.084290 S    
C17   C18   1.401068 A    
O7    C4    1.283729 A    
C26   C27   1.401257 A    
C3    C22   1.468892 S    
O3    C2    1.285177 A    
C9    H3    1.110217 S    
C2    C12   1.416876 S    
C29   C30   1.417998 A    
C32   O10   1.219587 D    
C5    C6    1.536699 S    
C13   I2    2.113138 S    
Zn2   N1    2.030098 S    
C16   C17   1.423852 A    
C9    C10   1.544755 S    
C16   C33   1.483755 S    
C28   N1    1.394097 A    
C24   H9    1.083689 S    
C23   C28   1.431610 A    
C5    H1    1.110407 S    
C7    C8    1.533658 S    
C4    C7    1.418839 S    
C26   H11   1.070880 S    
C19   C20   1.393521 A    
O5    C3    1.296834 A    
C18   C19   1.422687 A    
Zn1   N2    2.030358 S    
N1    C29   1.365662 A    
C32   H14   1.085745 S    
C10   C11   1.545322 S    
C33   O11   1.221529 D    
O2    Zn2   2.000239 S    
C25   H10   1.082480 S    
C17   C22   1.423017 A    
H12   C30   1.078466 S    
O1    C1    1.283680 A    
O6    C3    1.306382 A    
C21   C22   1.415483 A    
