data_mof_unit_2192.cif
_audit_creation_date              2012-12-10T17:57:51-0500
_audit_creation_method            fapswitch 2.2
_symmetry_space_group_name_H-M    P1
_symmetry_Int_Tables_number       1
_space_group_crystal_system       triclinic
_cell_length_a                    10.923669
_cell_length_b                    9.669997
_cell_length_c                    15.143818
_cell_angle_alpha                 90.137031
_cell_angle_beta                  86.639566
_cell_angle_gamma                 89.42243
_cell_volume                      1596.83063365

loop_
_atom_site_label
_atom_site_type_symbol
_atom_type_description
_atom_site_fract_x
_atom_site_fract_y
_atom_site_fract_z
_atom_type_partial_charge
C1    C     C_R   0.262946 0.500065 0.494634 0.790516
C2    C     C_R   0.737595 0.499402 0.500101 0.845850
C3    C     C_R   0.280237 0.586691 0.065121 0.382718
C4    C     C_R   0.709567 0.515152 0.942163 0.386998
C5    C     C_R   0.065080 0.373642 0.498643 -0.178732
C6    C     C_R   0.935703 0.623495 0.492000 -0.208169
C7    C     C_R   0.937558 0.373275 0.500618 -0.180255
C8    C     C_R   0.062874 0.623390 0.486992 -0.184936
C9    C     C_R   0.871844 0.498502 0.498657 -0.025485
C10   C     C_R   0.128821 0.499106 0.492507 -0.011752
C11   C     C_R   0.530320 0.070527 0.424838 0.296953
C12   C     C_R   0.506144 0.929987 0.576617 0.351814
C13   C     C_R   0.471491 0.071397 0.575512 0.310675
C14   C     C_R   0.496068 0.930015 0.423477 0.375663
C15   C     C_R   0.502193 0.499547 0.329248 0.912431
C16   C     C_R   0.493612 0.500806 0.671294 0.853433
C17   C     C_R   0.596034 0.500074 0.809826 0.427831
C18   C     C_R   0.388067 0.510007 0.193866 0.398403
C19   C     C_R   0.484739 0.506669 0.769020 -0.270396
C20   C     C_R   0.500603 0.498498 0.232833 -0.265473
C21   C     C_R   0.372175 0.533141 0.821052 0.435590
C22   C     C_R   0.610939 0.493664 0.180166 0.425195
C23   C     C_R   0.375544 0.546476 0.915424 -0.087285
C24   C     C_R   0.607606 0.489026 0.086830 -0.113341
C25   C     C_R   0.488116 0.520561 0.954960 -0.130056
C26   C     C_R   0.493727 0.514271 0.048109 -0.116777
C27   C     C_R   0.597613 0.510038 0.901952 -0.125543
C28   C     C_R   0.385962 0.533790 0.102309 -0.128972
C29   C     C_R   0.273170 0.592201 0.972365 0.334214
C30   C     C_R   0.715056 0.475920 0.030218 0.234203
Cu1   Cu    Cu3+1 0.500000 0.640660 0.500000 1.065328
Cu2   Cu    Cu3+1 0.500000 0.359340 0.500000 1.055402
H1    H     H_    0.113421 0.275673 0.502115 0.192044
H2    H     H_    0.887691 0.721611 0.488638 0.164678
H3    H     H_    0.890638 0.275189 0.505029 0.185381
H4    H     H_    0.108893 0.721537 0.483162 0.155743
N1    N     N_R   0.500000 0.852070 0.500000 -0.323218
N2    N     N_R   0.500000 0.147930 0.500000 -0.317946
O1    O     O_R   0.319640 0.618740 0.499990 -0.578276
O2    O     O_R   0.680360 0.381260 0.500010 -0.556774
O3    O     O_R   0.680360 0.618740 0.500010 -0.564733
O4    O     O_R   0.319640 0.381260 0.499990 -0.563487
O5    O     O_R   0.499970 0.618800 0.370260 -0.511144
O6    O     O_R   0.500030 0.381200 0.629740 -0.577920
O7    O     O_R   0.500030 0.618800 0.629740 -0.517800
O8    O     O_R   0.499970 0.381200 0.370260 -0.586247
O9    O     O_3   0.704983 0.482897 0.758833 -0.538730
C31   C     C_3   0.738797 0.341098 0.756683 0.045771
H5    H     H_    0.696954 0.290041 0.700255 0.176959
H6    H     H_    0.710896 0.284374 0.818674 0.160415
C32   C     C_3   0.877253 0.327753 0.742663 -0.598356
H7    H     H_    0.922500 0.376837 0.798296 0.312065
H8    H     H_    0.904428 0.216836 0.738694 0.215624
H9    H     H_    0.908153 0.379188 0.680249 0.221772
O10   O     O_3   0.279576 0.503390 0.245759 -0.533915
C33   C     C_3   0.246565 0.362978 0.257033 0.029997
H10   H     H_    0.284261 0.322789 0.318532 0.170032
H11   H     H_    0.279461 0.294673 0.200689 0.158450
C34   C     C_3   0.107774 0.352226 0.266213 -0.606197
H12   H     H_    0.068953 0.374458 0.201822 0.309959
H13   H     H_    0.081232 0.246115 0.287060 0.209010
H14   H     H_    0.069462 0.427489 0.315957 0.246158
O11   O     O_3   0.257644 0.521807 0.785449 -0.515700
C35   C     C_3   0.245916 0.606951 0.710803 0.199423
H15   H     H_    0.277608 0.546957 0.653024 0.118646
H16   H     H_    0.297486 0.705339 0.714449 0.199941
C36   C     C_3   0.112387 0.640813 0.695719 -0.619955
H17   H     H_    0.064337 0.690452 0.752883 0.298729
H18   H     H_    0.109013 0.716861 0.641502 0.179810
H19   H     H_    0.062836 0.545818 0.678900 0.229652
O12   O     O_3   0.721140 0.498294 0.220456 -0.524007
C37   C     C_3   0.752799 0.638042 0.232848 0.091770
H20   H     H_    0.683963 0.691487 0.277755 0.203289
H21   H     H_    0.761281 0.695001 0.168978 0.136783
C38   C     C_3   0.873958 0.643631 0.276627 -0.734910
H22   H     H_    0.951595 0.621903 0.228417 0.284623
H23   H     H_    0.885989 0.747308 0.306361 0.217522
H24   H     H_    0.875040 0.563952 0.328588 0.257799
S1    S     S_3+6 0.144027 0.678264 0.930861 0.026439
O13   O     O_2   0.065661 0.571470 0.890287 -0.173189
O14   O     O_2   0.064865 0.754749 0.999306 -0.315177
O15   O     O_3   0.194927 0.796124 0.856447 -0.538728
H25   H     H_    0.251332 0.855120 0.888471 0.367995
S2    S     S_3+6 0.850804 0.387645 0.057896 0.099210
O16   O     O_2   0.825917 0.289094 0.133274 -0.169610
O17   O     O_2   0.900330 0.306502 0.978662 -0.237667
O18   O     O_3   0.957515 0.501367 0.084119 -0.453143
H26   H     H_    0.920097 0.593045 0.074344 0.359251
O19   O     O_3   0.187324 0.644890 0.119849 -0.505498
C39   C     C_3   0.222016 0.780982 0.141938 0.187839
H27   H     H_    0.243563 0.844464 0.081810 0.137903
H28   H     H_    0.304087 0.778751 0.181107 0.224380
C40   C     C_3   0.118324 0.852190 0.196603 -0.637878
H29   H     H_    0.101493 0.797195 0.260186 0.234481
H30   H     H_    0.143423 0.960668 0.210610 0.226538
H31   H     H_    0.032938 0.853037 0.160349 0.259347
O20   O     O_3   0.807548 0.583754 0.900741 -0.505356
C41   C     C_3   0.784715 0.728361 0.911115 0.128361
H32   H     H_    0.816084 0.763590 0.975888 0.149574
H33   H     H_    0.685724 0.757579 0.908757 0.141466
C42   C     C_3   0.851669 0.808955 0.837295 -0.562147
H34   H     H_    0.846172 0.754066 0.773314 0.271232
H35   H     H_    0.809528 0.913392 0.831968 0.219988
H36   H     H_    0.948593 0.823327 0.851817 0.273242
S3    S     S_3+6 0.637874 0.120107 0.337279 0.101569
O21   O     O_2   0.711215 0.244757 0.358017 -0.237054
O22   O     O_2   0.726199 0.001151 0.321655 -0.293315
O23   O     O_3   0.569582 0.146517 0.241843 -0.424436
H37   H     H_    0.495077 0.202061 0.257283 0.343522
S4    S     S_3+6 0.593111 0.883166 0.667973 0.034327
O24   O     O_2   0.656292 0.009506 0.700208 -0.378000
O25   O     O_2   0.509244 0.831613 0.742640 -0.249229
O26   O     O_3   0.701839 0.763832 0.641992 -0.489187
H38   H     H_    0.772776 0.816761 0.616970 0.332431
S5    S     S_3+6 0.361816 0.121213 0.662278 0.083608
O27   O     O_2   0.290814 0.250075 0.643761 -0.267883
O28   O     O_2   0.271569 0.005355 0.673637 -0.275685
O29   O     O_3   0.427832 0.139106 0.759247 -0.441209
H39   H     H_    0.494717 0.205807 0.748247 0.339725
S6    S     S_3+6 0.410013 0.886363 0.332182 0.002771
O30   O     O_2   0.346188 0.014094 0.300831 -0.392511
O31   O     O_2   0.494733 0.834126 0.257538 -0.290684
O32   O     O_3   0.301868 0.769328 0.357864 -0.498842
H40   H     H_    0.231047 0.825072 0.381723 0.332453

loop_
_geom_bond_atom_site_label_1
_geom_bond_atom_site_label_2
_ccdc_geom_bond_type
O18   H26   S    
C42   H34   S    
S2    O18   S    
O10   C33   S    
C6    C9    A    
C12   S4    S    
O20   C41   S    
O32   H40   S    
O23   H37   S    
S3    O22   D    
C40   H29   S    
Cu1   O5    S    
C23   C29   A    
C3    C28   A    
C19   C21   A    
C24   C26   A    
C11   C14   A    
C2    O3    A    
S5    O27   D    
C33   H10   S    
C8    H4    S    
C12   N1    A    
C3    C29   A    
O29   H39   S    
S4    O24   D    
C31   C32   S    
O9    C31   S    
Cu1   O1    S    
S5    O28   D    
C5    H1    S    
C11   S3    S    
Cu2   N2    S    
C16   O6    A    
S6    O32   S    
C31   H6    S    
C34   H12   S    
C42   H35   S    
C4    O20   S    
Cu2   O8    S    
C37   C38   S    
C26   C28   A    
S6    O31   D    
S4    O25   D    
C15   C20   S    
S3    O23   S    
C34   H13   S    
C36   H17   S    
C17   C27   A    
C35   C36   S    
C18   C28   A    
S2    O16   D    
C37   H21   S    
S1    O14   D    
C6    C8    A    
C25   C26   A    
Cu1   N1    S    
C36   H18   S    
C35   H16   S    
C11   N2    A    
C38   H22   S    
C2    O2    A    
C39   H28   S    
Cu1   Cu2   S    
C29   S1    S    
S5    O29   S    
Cu2   O6    S    
C38   H23   S    
S4    O26   S    
C13   N2    A    
C13   S5    S    
C18   O10   S    
C31   H5    S    
C20   C22   A    
C41   H32   S    
C42   H36   S    
C14   S6    S    
C21   C23   A    
C22   C24   A    
S1    O13   D    
C25   C27   A    
C22   O12   S    
C4    C27   A    
S6    O30   D    
C39   C40   S    
C5    C7    A    
O26   H38   S    
C7    C9    A    
C34   H14   S    
Cu1   O3    S    
C7    H3    S    
C1    C10   S    
C17   O9    S    
S2    O17   D    
C37   H20   S    
C16   O7    A    
S1    O15   S    
C40   H31   S    
C41   C42   S    
S3    O21   D    
C41   H33   S    
C33   C34   S    
C3    O19   S    
C32   H9    S    
C35   H15   S    
C36   H19   S    
C15   O5    A    
C32   H7    S    
C14   N1    A    
C39   H27   S    
C40   H30   S    
C16   C19   S    
C17   C19   A    
C33   H11   S    
C18   C20   A    
Cu2   O2    S    
C30   S2    S    
C38   H24   S    
C24   C30   A    
C21   O11   S    
C1    O1    A    
O11   C35   S    
C6    H2    S    
C1    O4    A    
C5    C10   A    
C23   C25   A    
O12   C37   S    
C12   C13   A    
C8    C10   A    
O15   H25   S    
Cu1   O7    S    
Cu2   O4    S    
C15   O8    A    
C32   H8    S    
O19   C39   S    
C2    C9    S    
C4    C30   A    
