data_mof_unit_2383.cif
_audit_creation_date              2013-03-05T16:49:35-0500
_audit_creation_method            fapswitch 2.2
_symmetry_space_group_name_H-M    P1
_symmetry_Int_Tables_number       1
_space_group_crystal_system       triclinic
_cell_length_a                    8.619373
_cell_length_b                    15.864188
_cell_length_c                    15.098068
_cell_angle_alpha                 89.726148
_cell_angle_beta                  98.253135
_cell_angle_gamma                 89.977809
_cell_volume                      2043.09459689

loop_
_atom_site_label
_atom_site_type_symbol
_atom_site_description
_atom_site_fract_x
_atom_site_fract_y
_atom_site_fract_z
_atom_type_partial_charge
O1    O     O_R   0.500000 0.378020 0.573650 -0.599516
O2    O     O_R   0.500000 0.621980 0.426350 -0.596685
O3    O     O_R   0.500070 0.378020 0.426320 -0.609273
O4    O     O_R   0.499930 0.621980 0.573680 -0.607846
C1    C     C_R   0.500097 0.339032 0.500159 0.920749
C2    C     C_R   0.499957 0.660981 0.499808 0.918322
O5    O     O_R   0.271720 0.500000 0.556430 -0.586024
O6    O     O_R   0.728280 0.500000 0.443570 -0.588774
O7    O     O_R   0.271790 0.500000 0.409110 -0.586486
O8    O     O_R   0.728210 0.500000 0.590890 -0.586939
C3    C     C_R   0.200985 0.499296 0.477193 0.924677
C4    C     C_R   0.799008 0.500680 0.522810 0.923518
Zn1   Zn    Zn3+2 0.499950 0.500000 0.598370 1.090041
Zn2   Zn    Zn3+2 0.500050 0.500000 0.401630 1.088858
C5    C     C_2   0.038893 0.484818 0.467711 0.008980
C6    C     C_2   0.961109 0.515062 0.532323 0.013027
C7    C     C_R   0.622180 0.956218 0.555402 0.005046
C8    C     C_R   0.382281 0.043896 0.442328 -0.001286
C9    C     C_R   0.504419 0.912981 0.498901 -0.064599
C10   C     C_R   0.500750 0.087098 0.498379 -0.064576
C11   C     C_R   0.385618 0.955634 0.442632 0.283282
C12   C     C_R   0.620016 0.044447 0.554238 0.289324
C13   C     C_1   0.502748 0.823830 0.499047 0.076936
C14   C     C_1   0.500507 0.176220 0.499743 0.082991
C15   C     C_1   0.500344 0.250900 0.500373 -0.087126
C16   C     C_1   0.501239 0.749135 0.499376 -0.090027
C17   C     C_R   0.381508 0.457137 0.942688 0.280190
C18   C     C_R   0.617092 0.542488 0.057248 0.297721
C19   C     C_R   0.498958 0.501617 0.904994 -0.145020
C20   C     C_R   0.499477 0.498592 0.094913 -0.139906
C21   C     C_R   0.617349 0.544601 0.962810 0.006343
C22   C     C_R   0.380662 0.455854 0.037273 0.004709
C23   C     C_1   0.499661 0.500488 0.806948 0.242987
C24   C     C_1   0.499778 0.499531 0.193020 0.242254
N1    N     N_1   0.499960 0.500020 0.270540 -0.067318
N2    N     N_1   0.500040 0.499980 0.729460 -0.066088
N3    N     N_R   0.973848 0.423138 0.402508 0.210434
O9    O     O_R   0.005742 0.426951 0.320923 -0.321965
O10   O     O_R   0.904746 0.356176 0.428120 -0.380278
N4    N     N_R   0.026198 0.576666 0.597584 0.211367
O11   O     O_R   0.995250 0.572402 0.679340 -0.326279
O12   O     O_R   0.094451 0.643907 0.571967 -0.396437
N5    N     N_R   0.739840 0.091248 0.608772 0.207902
O13   O     O_R   0.843719 0.132833 0.571629 -0.351662
O14   O     O_R   0.732214 0.101498 0.693466 -0.348866
N6    N     N_R   0.270451 0.908800 0.384758 0.211435
O15   O     O_R   0.311317 0.867343 0.317643 -0.334474
O16   O     O_R   0.130917 0.898233 0.406249 -0.390049
C25   C     C_3   0.752357 0.908687 0.613961 -0.402229
C26   C     C_3   0.884406 0.885951 0.561023 -0.656923
H1    H     H_    0.840023 0.845182 0.503327 0.270309
H2    H     H_    0.935803 0.944112 0.536085 0.283879
H3    H     H_    0.977813 0.851280 0.604927 0.264677
H4    H     H_    0.802002 0.946264 0.673028 0.259584
H5    H     H_    0.706108 0.850454 0.641822 0.215035
C27   C     C_3   0.256477 0.091703 0.380724 -0.334667
C28   C     C_3   0.317437 0.120215 0.295364 -0.770311
H6    H     H_    0.418820 0.163431 0.311197 0.257980
H7    H     H_    0.353982 0.064734 0.258733 0.286192
H8    H     H_    0.223143 0.154141 0.251347 0.255422
H9    H     H_    0.150285 0.052731 0.361695 0.257377
H10   H     H_    0.215960 0.147326 0.415584 0.224031
C29   C     C_3   0.249344 0.411707 0.076652 -0.348855
C30   C     C_3   0.302554 0.326353 0.117499 -0.721341
H11   H     H_    0.343002 0.285067 0.066206 0.289249
H12   H     H_    0.399407 0.334053 0.173788 0.243594
H13   H     H_    0.202916 0.295130 0.143543 0.254038
H14   H     H_    0.207848 0.451950 0.128575 0.224824
H15   H     H_    0.144969 0.401926 0.025569 0.242255
C31   C     C_3   0.748479 0.590253 0.924770 -0.371203
C32   C     C_3   0.895698 0.535699 0.932151 -0.701122
H16   H     H_    0.939444 0.520830 0.003259 0.258869
H17   H     H_    0.870259 0.475990 0.894733 0.276792
H18   H     H_    0.989007 0.570077 0.903284 0.278143
H19   H     H_    0.713469 0.607964 0.853510 0.211327
H20   H     H_    0.776510 0.650774 0.959878 0.257021
N7    N     N_R   0.264207 0.411670 0.884540 0.195703
O17   O     O_R   0.178593 0.450143 0.818556 -0.354770
O18   O     O_R   0.251403 0.330434 0.893070 -0.352495
N8    N     N_R   0.736981 0.585751 0.115512 0.200110
O19   O     O_R   0.734503 0.667577 0.120213 -0.351689
O20   O     O_R   0.833867 0.543318 0.173106 -0.344399

loop_
_geom_bond_atom_site_label_1
_geom_bond_atom_site_label_2
_geom_bond_distance
_ccdc_geom_bond_type
C17   C19   1.417308 A    
C8    C11   1.400474 A    
N5    O13   1.300945 A    
N7    O17   1.300889 A    
O5    C3    1.262442 A    
O1    C1    1.272996 A    
C9    C11   1.404417 A    
C29   H15   1.109203 S    
C28   H7    1.110964 S    
C25   H4    1.108834 S    
C19   C23   1.481375 S    
C23   N2    1.170468 T    
C27   C28   1.526640 S    
C24   N1    1.170233 T    
C13   C16   1.185034 T    
O4    Zn1   1.968934 S    
C5    N3    1.446401 S    
N6    O15   1.300784 A    
C3    C5    1.402981 S    
C21   C31   1.521464 S    
C4    C6    1.402797 S    
C26   H2    1.110947 S    
C31   C32   1.526188 S    
C8    C27   1.522878 S    
N4    O12   1.302099 A    
O2    C2    1.272619 A    
C18   N8    1.434603 S    
N7    O18   1.300847 A    
N6    O16   1.300593 A    
C26   H3    1.110444 S    
C20   C24   1.481012 S    
C30   H13   1.110378 S    
C10   C14   1.414103 S    
C14   C15   1.184829 T    
Zn1   N2    1.979093 S    
N8    O20   1.300822 A    
C7    C25   1.522313 S    
Zn2   N1    1.979095 S    
C32   H17   1.110943 S    
C28   H8    1.110441 S    
O3    C1    1.272294 A    
C25   H5    1.110861 S    
C30   H12   1.109721 S    
C9    C13   1.414386 S    
O7    Zn2   1.986815 S    
N3    O9    1.301164 A    
O7    C3    1.268551 A    
C12   N5    1.434627 S    
O6    C4    1.262464 A    
C26   H1    1.110578 S    
N5    O14   1.300770 A    
O3    Zn2   1.968937 S    
O8    C4    1.268461 A    
C6    N4    1.446248 S    
C1    C15   1.398133 S    
O4    C2    1.272881 A    
N4    O11   1.301192 A    
C10   C12   1.403899 A    
C31   H20   1.108806 S    
C27   H10   1.111125 S    
O1    Zn1   1.972541 S    
C11   N6    1.434804 S    
C29   H14   1.111386 S    
O6    Zn2   1.978185 S    
C17   C22   1.429166 A    
C18   C21   1.426384 A    
C22   C29   1.521499 S    
N8    O19   1.300723 A    
C17   N7    1.437028 S    
O8    Zn1   1.986816 S    
C32   H18   1.110368 S    
C7    C12   1.399788 A    
C30   H11   1.110157 S    
C18   C20   1.413620 A    
C32   H16   1.109820 S    
N3    O10   1.302103 A    
C20   C22   1.419905 A    
C28   H6    1.110337 S    
C2    C16   1.398539 S    
C7    C9    1.409260 A    
C8    C10   1.409461 A    
O2    Zn2   1.972537 S    
C29   C30   1.527915 S    
O5    Zn1   1.978184 S    
C19   C21   1.420843 A    
C25   C26   1.525768 S    
C31   H19   1.109673 S    
C27   H9    1.108696 S    
C5    C6    1.350310 D    
