data_mof_unit_1658.cif
_audit_creation_date              2012-12-11T14:31:14-0500
_audit_creation_method            fapswitch 2.2
_symmetry_space_group_name_H-M    P1
_symmetry_Int_Tables_number       1
_space_group_crystal_system       triclinic
_cell_length_a                    8.359205
_cell_length_b                    14.938461
_cell_length_c                    14.978128
_cell_angle_alpha                 97.22301
_cell_angle_beta                  99.335126
_cell_angle_gamma                 97.857379
_cell_volume                      1807.22486186

loop_
_atom_site_label
_atom_site_type_symbol
_atom_type_description
_atom_site_fract_x
_atom_site_fract_y
_atom_site_fract_z
_atom_type_partial_charge
Ba1   Ba    Ba6+2 0.154730 0.543770 0.458180 1.673780
Ba2   Ba    Ba6+2 0.655430 0.456220 0.541750 1.665101
C1    C     C_3   0.281783 0.766817 0.123590 -0.349844
C2    C     C_R   0.103807 0.077474 0.546727 -0.036362
C3    C     C_R   0.964137 0.889884 0.534555 -0.042773
C4    C     C_3   0.958204 0.784573 0.275328 0.322592
C5    C     C_R   0.127468 0.923434 0.576953 -0.058596
C6    C     C_R   0.196470 0.014211 0.581703 -0.093403
C7    C     C_R   0.893869 0.796008 0.527152 0.024168
C8    C     C_R   0.732466 0.766886 0.480215 -0.286181
C9    C     C_R   0.914070 0.203157 0.472902 -0.018702
C10   C     C_R   0.842802 0.109466 0.466890 -0.046156
C11   C     C_R   0.938312 0.046665 0.503856 0.018545
C12   C     C_3   0.370412 0.746347 0.214717 0.337714
C13   C     C_R   0.679421 0.076072 0.424991 -0.074920
C14   C     C_R   0.610719 0.985047 0.418845 -0.091075
C15   C     C_R   0.703330 0.921653 0.453487 -0.035844
C16   C     C_3   0.984996 0.881662 0.252914 -0.371458
C17   C     C_R   0.868675 0.952524 0.497051 0.013915
C18   C     C_R   0.635330 0.828419 0.445695 0.010547
C19   C     C_R   0.074319 0.232357 0.520460 -0.261659
C20   C     C_R   0.216790 0.501095 0.772427 -0.218321
C21   C     C_R   0.131232 0.450114 0.826978 0.041947
C22   C     C_R   0.207185 0.444693 0.916471 -0.136325
C23   C     C_3   0.593906 0.738704 0.671101 0.258050
C24   C     C_R   0.369753 0.490468 0.952815 0.003237
C25   C     C_R   0.458300 0.532096 0.891765 -0.128115
C26   C     C_R   0.385099 0.533886 0.801734 0.031241
C27   C     C_R   0.614918 0.531320 0.085429 -0.081749
C28   C     C_3   0.691489 0.207671 0.246299 0.713190
C29   C     C_R   0.681612 0.544191 0.178698 0.064079
C30   C     C_R   0.420593 0.477384 0.210570 0.068875
C31   C     C_R   0.351210 0.468072 0.117558 -0.071889
C32   C     C_R   0.446443 0.495263 0.052493 0.024791
C33   C     C_R   0.584977 0.516198 0.240787 -0.214782
C34   C     C_3   0.648462 0.841526 0.697282 -0.352274
C35   C     C_3   0.816353 0.143379 0.233841 -0.374474
C36   C     C_3   0.180665 0.775844 0.747056 0.210891
C37   C     C_3   0.142069 0.863525 0.796563 -0.348574
C38   C     C_3   0.222269 0.267117 0.340153 0.327259
C39   C     C_3   0.225764 0.164699 0.321948 -0.354636
C40   C     C_3   0.550799 0.746532 0.209557 -0.333181
C41   C     C_3   0.221812 0.223857 0.770007 -0.282574
C42   C     C_3   0.505473 0.302916 0.836394 -0.259416
C43   C     C_3   0.124558 0.527709 0.687892 -0.221405
C44   C     C_3   0.838950 0.212690 0.725813 0.320284
C45   C     C_3   0.807421 0.112585 0.744703 0.335775
C46   C     C_3   0.401747 0.212460 0.788048 0.307515
C47   C     C_3   0.419139 0.140899 0.852827 -0.200843
C48   C     C_R   0.171183 0.170851 0.554460 0.012525
H1    H     H_    0.312692 0.677356 0.223869 0.081736
H2    H     H_    0.096528 0.278582 0.346197 -0.017992
H3    H     H_    0.308405 0.295517 0.405236 0.058264
H4    H     H_    0.149012 0.763543 0.123534 0.156844
H5    H     H_    0.166330 0.135498 0.250608 0.146841
H6    H     H_    0.161976 0.128349 0.369333 0.050313
H7    H     H_    0.353925 0.152124 0.332076 0.113677
H8    H     H_    0.295438 0.715349 0.066062 0.073450
H9    H     H_    0.696222 0.707859 0.647994 0.043766
H10   H     H_    0.485820 0.725863 0.614608 0.059262
H11   H     H_    0.764182 0.855491 0.748464 0.168407
H12   H     H_    0.879925 0.130091 0.299771 0.006378
H13   H     H_    0.669883 0.873405 0.636584 0.046645
H14   H     H_    0.552614 0.873422 0.726904 0.138046
H15   H     H_    0.332310 0.836065 0.111372 0.131605
H16   H     H_    0.872321 0.896549 0.211117 0.114581
H17   H     H_    0.726931 0.228763 0.685866 0.092185
H18   H     H_    0.929007 0.218222 0.679559 -0.087445
H19   H     H_    0.674488 0.085522 0.727206 0.038494
H20   H     H_    0.864797 0.068961 0.697503 -0.049040
H21   H     H_    0.372561 0.160900 0.916638 0.181511
H22   H     H_    0.549361 0.132972 0.871951 0.194716
H23   H     H_    0.753603 0.076368 0.194511 0.124357
H24   H     H_    0.074259 0.771299 0.314073 0.127510
H25   H     H_    0.349808 0.073264 0.818445 0.114596
H26   H     H_    0.207295 0.880681 0.606303 0.091306
H27   H     H_    0.323923 0.033444 0.613653 0.111924
H28   H     H_    0.483335 0.965744 0.386498 0.118136
H29   H     H_    0.599580 0.119459 0.397652 0.094937
H30   H     H_    0.679082 0.695660 0.473708 0.069958
H31   H     H_    0.127531 0.303662 0.527401 0.051717
H32   H     H_    0.697383 0.552547 0.041185 0.070205
H33   H     H_    0.137096 0.404263 0.955880 0.103379
H34   H     H_    0.909293 0.173523 0.196399 0.133822
H35   H     H_    0.222880 0.439440 0.098098 0.083521
H36   H     H_    0.865235 0.780552 0.320113 -0.011975
H37   H     H_    0.583801 0.565346 0.911891 0.077472
H38   H     H_    0.638051 0.524685 0.312789 0.071905
H39   H     H_    0.016566 0.931212 0.317388 0.086118
H40   H     H_    0.087245 0.891242 0.214529 0.145957
H41   H     H_    0.588265 0.174988 0.274050 -0.069823
H42   H     H_    0.565242 0.708788 0.143444 0.086436
H43   H     H_    0.614586 0.817889 0.216843 0.121404
H44   H     H_    0.606994 0.712456 0.265358 0.026815
H45   H     H_    0.273677 0.791236 0.704455 0.040901
H46   H     H_    0.807313 0.988801 0.940275 0.370624
H47   H     H_    0.148333 0.158293 0.733722 0.107990
H48   H     H_    0.180127 0.241574 0.835766 0.156319
H49   H     H_    0.202952 0.280183 0.729653 0.016163
H50   H     H_    0.500066 0.355530 0.790528 0.123031
H51   H     H_    0.460331 0.327182 0.899363 0.097900
H52   H     H_    0.633878 0.293525 0.858241 0.190050
H53   H     H_    0.001337 0.541286 0.698242 0.155899
H54   H     H_    0.184574 0.593275 0.674114 0.105949
H55   H     H_    0.116149 0.474140 0.628164 0.126794
H56   H     H_    0.239697 0.738697 0.799763 0.054480
H57   H     H_    0.833627 0.287253 0.096279 0.351732
H58   H     H_    0.074210 0.900988 0.747588 0.120270
H59   H     H_    0.258045 0.908010 0.832087 0.112192
H60   H     H_    0.065278 0.847106 0.848108 0.147402
O1    O     O_2   0.174080 0.723060 0.553930 -0.490526
O2    O     O_2   0.794328 0.436918 0.820539 -0.488817
O3    O     O_3   0.890529 0.276576 0.806470 -0.579865
O4    O     O_3   0.901570 0.609580 0.550840 -0.471722
O5    O     O_3   0.408220 0.452130 0.390170 -0.497755
O6    O     O_2   0.675490 0.547140 0.721820 -0.442033
O7    O     O_3   0.553143 0.703177 0.748063 -0.641872
O8    O     O_2   0.492692 0.174880 0.540242 -0.500342
O9    O     O_3   0.462417 0.179332 0.709094 -0.627871
O10   O     O_3   0.370350 0.665080 0.388270 -0.494928
O11   O     O_2   0.305585 0.825739 0.454024 -0.498519
O12   O     O_3   0.266619 0.306036 0.265770 -0.572918
O13   O     O_3   0.033749 0.719608 0.701031 -0.632856
O14   O     O_3   0.353810 0.814180 0.285824 -0.616644
O15   O     O_2   0.134790 0.452800 0.278150 -0.451948
O16   O     O_3   0.937650 0.618620 0.340860 -0.495008
O17   O     O_2   0.023262 0.566355 0.180822 -0.486816
O18   O     O_2   0.052363 0.074540 0.869028 -0.333189
O19   O     O_2   0.869081 0.171457 0.930275 -0.246720
O20   O     O_3   0.759105 0.999276 0.878304 -0.545848
O21   O     O_2   0.583048 0.145611 0.065665 -0.311210
O22   O     O_2   0.443466 0.260927 0.136410 -0.272929
O23   O     O_3   0.906685 0.720952 0.194363 -0.629064
O24   O     O_3   0.733641 0.313871 0.104095 -0.499873
O25   O     O_2   0.636200 0.276890 0.446040 -0.475292
O26   O     O_3   0.908720 0.390410 0.449080 -0.459116
O27   O     O_3   0.439930 0.334910 0.611650 -0.470049
O28   O     O_3   0.766055 0.291906 0.299920 -0.609355
O29   O     O_3   0.402060 0.547860 0.609750 -0.492710
O30   O     O_3   0.872630 0.381370 0.659060 -0.506021
P1    P     P_3+3 0.004200 0.709230 0.580350 0.957134
P2    P     P_3+3 0.305000 0.425570 0.290900 1.060650
P3    P     P_3+3 0.888591 0.609568 0.222351 0.964352
P4    P     P_3+3 0.806080 0.290760 0.419570 0.982764
P5    P     P_3+3 0.921767 0.387570 0.778547 0.948682
P6    P     P_3+3 0.417780 0.783179 0.394122 0.911481
P7    P     P_3+3 0.506867 0.583947 0.722869 0.950578
P8    P     P_3+3 0.387956 0.216625 0.605188 0.915809
S1    S     S_3+6 0.878587 0.092491 0.859519 -0.083353
S2    S     S_3+6 0.606831 0.230519 0.135007 -0.056391

loop_
_geom_bond_atom_site_label_1
_geom_bond_atom_site_label_2
_ccdc_geom_bond_type
O10   P6    S    
C28   O28   S    
C40   H43   S    
Ba2   P4    S    
O27   P8    S    
C41   H48   S    
C2    C6    A    
C35   H12   S    
C5    C6    A    
C45   H20   S    
C44   H18   S    
C21   P5    S    
O29   P7    S    
C24   C25   A    
Ba2   O29   S    
C22   H33   S    
Ba1   O15   S    
C4    O23   S    
C36   C37   S    
C1    H4    S    
C28   S2    S    
C13   C14   A    
O24   S2    S    
O16   P3    S    
C15   C18   A    
O22   S2    D    
O2    P5    D    
Ba1   Ba2   S    
Ba2   O5    S    
O3    P5    S    
C2    C11   A    
C31   H35   S    
C45   H19   S    
Ba1   P2    S    
C43   H53   S    
Ba2   O6    S    
C24   C32   S    
C37   H60   S    
C13   H29   S    
C45   S1    S    
C8    C18   A    
C14   C15   A    
C47   H22   S    
C36   H45   S    
C21   C22   A    
C47   H25   S    
C35   H34   S    
C23   H10   S    
C34   H13   S    
C7    C8    A    
C30   P2    S    
C36   O13   S    
Ba1   O29   S    
C12   C40   S    
O5    P2    S    
C20   C26   A    
C16   H39   S    
C1    H15   S    
C19   C48   A    
C43   H55   S    
C4    H24   S    
C46   O9    S    
C37   H58   S    
C4    C16   S    
O23   P3    S    
C12   O14   S    
C11   C17   A    
C16   H40   S    
O4    P1    S    
Ba2   O4    S    
Ba1   O16   S    
C3    C5    A    
C42   H52   S    
O9    P8    S    
C38   H2    S    
O14   P6    S    
C27   C32   A    
C9    C19   A    
Ba2   O26   S    
C28   C35   S    
C2    C48   A    
Ba1   O10   S    
C36   H56   S    
C30   C33   A    
C39   H6    S    
C3    C7    A    
C23   H9    S    
C43   H54   S    
C40   H42   S    
C33   H38   S    
C12   H1    S    
C10   C13   A    
O15   P2    D    
C9    C10   A    
O13   P1    S    
O20   S1    S    
C31   C32   A    
O17   P3    D    
C25   H37   S    
C1    C12   S    
C46   C47   S    
C19   H31   S    
C6    H27   S    
C18   P6    S    
C16   H16   S    
Ba1   O4    S    
O12   P2    S    
C34   H11   S    
Ba1   O26   S    
H46   O20   S    
C41   C46   S    
C48   P8    S    
C35   H23   S    
C44   C45   S    
O25   P4    D    
C26   P7    S    
C7    P1    S    
C44   O3    S    
C40   H44   S    
Ba2   O27   S    
C41   H47   S    
C41   H49   S    
C28   H41   S    
C23   O7    S    
O30   P5    S    
O6    P7    D    
C42   H51   S    
C5    H26   S    
C3    C17   A    
H57   O24   S    
C38   O12   S    
Ba2   O25   S    
C4    H36   S    
O7    P7    S    
Ba2   O30   S    
C30   C31   A    
C9    P4    S    
C8    H30   S    
C39   H7    S    
C44   H17   S    
O26   P4    S    
O28   P4    S    
Ba1   O1    S    
C42   H50   S    
C22   C24   A    
C39   H5    S    
C29   C33   A    
O8    P8    D    
C15   C17   A    
C14   H28   S    
C29   P3    S    
C27   H32   S    
Ba1   P1    S    
O1    P1    D    
C23   C34   S    
O11   P6    D    
C1    H8    S    
O18   S1    D    
C37   H59   S    
C20   C43   S    
C10   C11   A    
C27   C29   A    
C38   H3    S    
C47   H21   S    
C25   C26   A    
C20   C21   A    
O21   S2    D    
C38   C39   S    
Ba1   O5    S    
O19   S1    D    
C34   H14   S    
C42   C46   S    
