data_mof_unit_313.cif
_audit_creation_date              2012-12-10T19:12:19-0500
_audit_creation_method            fapswitch 2.2
_symmetry_space_group_name_H-M    P1
_symmetry_Int_Tables_number       1
_space_group_crystal_system       triclinic
_cell_length_a                    7.788657
_cell_length_b                    9.095629
_cell_length_c                    17.145603
_cell_angle_alpha                 89.57671
_cell_angle_beta                  93.782945
_cell_angle_gamma                 90.003572
_cell_volume                      1211.96169636

loop_
_atom_site_label
_atom_site_type_symbol
_atom_type_description
_atom_site_fract_x
_atom_site_fract_y
_atom_site_fract_z
_atom_type_partial_charge
C1    C     C_R   0.499978 0.220036 0.500003 0.844239
C2    C     C_R   0.500021 0.779963 0.499993 0.827408
C3    C     C_R   0.521220 0.497201 0.651230 0.882546
C4    C     C_R   0.478831 0.500443 0.348794 0.882794
C5    C     C_R   0.534246 0.495384 0.736948 -0.271579
C6    C     C_R   0.466342 0.497727 0.263136 -0.272775
C7    C     C_R   0.393879 0.540847 0.777530 -0.361668
C8    C     C_R   0.605975 0.545068 0.222348 -0.360668
C9    C     C_R   0.404477 0.542576 0.858679 0.598097
C10   C     C_R   0.597198 0.543841 0.141233 0.600360
C11   C     C_R   0.556221 0.494459 0.901286 0.156346
C12   C     C_R   0.447960 0.490579 0.098840 0.153040
C13   C     C_R   0.698758 0.449610 0.860558 -0.063189
C14   C     C_R   0.306589 0.442455 0.139881 -0.058181
C15   C     C_R   0.686800 0.450330 0.778607 0.570769
C16   C     C_R   0.316332 0.447465 0.221793 0.572115
C17   C     C_1   0.499989 0.065373 0.499998 -0.145864
C18   C     C_1   0.500009 0.934630 0.499995 -0.149334
Cu1   Cu    Cu3+1 0.669080 0.500010 0.500000 1.060889
Cu2   Cu    Cu3+1 0.330920 0.499990 0.500000 1.061015
H1    H     H_    0.721769 0.585977 0.253361 0.231151
H2    H     H_    0.276299 0.578351 0.746321 0.232181
N1    N     N_1   0.076820 0.499970 0.500010 -0.021980
N2    N     N_1   0.923180 0.500030 0.499990 -0.021925
N3    N     N_2   0.572225 0.493949 0.984281 -0.133943
N4    N     N_2   0.432935 0.487550 0.015799 -0.140035
O1    O     O_R   0.642760 0.288400 0.500000 -0.573630
O2    O     O_R   0.357240 0.711600 0.500000 -0.584499
O3    O     O_R   0.357190 0.288380 0.500000 -0.573008
O4    O     O_R   0.642810 0.711620 0.500000 -0.584453
O5    O     O_R   0.658410 0.498660 0.613920 -0.524001
O6    O     O_R   0.341590 0.501340 0.386080 -0.524578
O7    O     O_R   0.372840 0.498650 0.613930 -0.592999
O8    O     O_R   0.627160 0.501350 0.386070 -0.593158
F1    F     F_    0.733647 0.598094 0.104888 -0.651634
F2    F     F_    0.267956 0.595727 0.894972 -0.654357
C19   C     C_3   0.864623 0.399033 0.903348 -0.282763
C20   C     C_3   0.878250 0.231658 0.903803 -0.765651
H3    H     H_    0.774510 0.183001 0.937212 0.251105
H4    H     H_    0.868043 0.188332 0.843300 0.290285
H5    H     H_    0.004782 0.197917 0.931808 0.243408
H6    H     H_    0.976105 0.446760 0.874857 0.276954
H7    H     H_    0.874306 0.438246 0.964515 0.230482
C21   C     C_3   0.144486 0.383512 0.097569 -0.288031
C22   C     C_3   0.136093 0.216189 0.103966 -0.762631
H8    H     H_    0.244385 0.165960 0.074546 0.250424
H9    H     H_    0.142430 0.180022 0.166068 0.291746
H10   H     H_    0.012915 0.176525 0.075359 0.243146
H11   H     H_    0.029694 0.432432 0.122587 0.272574
H12   H     H_    0.137197 0.414392 0.034836 0.227158
F3    F     F_    0.823940 0.405223 0.739814 -0.646857
F4    F     F_    0.179922 0.400825 0.260949 -0.646841

loop_
_geom_bond_atom_site_label_1
_geom_bond_atom_site_label_2
_ccdc_geom_bond_type
C21   H11   S    
C19   H7    S    
C9    F2    S    
C20   H4    S    
N1    N2    T    
C5    C7    A    
C19   C20   S    
C15   F3    S    
C2    C18   S    
C7    H2    S    
Cu1   O1    S    
C13   C19   S    
Cu1   Cu2   S    
Cu2   N1    S    
C2    O4    A    
Cu1   O5    S    
C1    O3    A    
Cu1   N2    S    
C22   H8    S    
C3    O5    A    
C11   C13   A    
C4    O6    A    
C10   C12   A    
Cu2   O7    S    
C14   C21   S    
C12   C14   A    
C17   C18   T    
C4    O8    A    
Cu2   O3    S    
C9    C11   A    
C13   C15   A    
C20   H3    S    
C10   F1    S    
C14   C16   A    
C5    C15   A    
C2    O2    A    
C11   N3    S    
C6    C16   A    
Cu2   O2    S    
C7    C9    A    
C21   C22   S    
C20   H5    S    
C4    C6    S    
Cu2   O6    S    
C22   H9    S    
C21   H12   S    
C19   H6    S    
C1    O1    A    
C3    O7    A    
C6    C8    A    
C22   H10   S    
N3    N4    D    
Cu1   O4    S    
C1    C17   S    
C8    C10   A    
C16   F4    S    
C12   N4    S    
C3    C5    S    
Cu1   O8    S    
C8    H1    S    
