data_mof_unit_776.cif
_audit_creation_date              2012-12-11T16:07:27-0500
_audit_creation_method            fapswitch 2.2
_symmetry_space_group_name_H-M    P1
_symmetry_Int_Tables_number       1
_space_group_crystal_system       triclinic
_cell_length_a                    6.931148
_cell_length_b                    14.368979
_cell_length_c                    15.9103
_cell_angle_alpha                 90.235266
_cell_angle_beta                  90.05756
_cell_angle_gamma                 90.060524
_cell_volume                      1584.54773325

loop_
_atom_site_label
_atom_site_type_symbol
_atom_type_description
_atom_site_fract_x
_atom_site_fract_y
_atom_site_fract_z
_atom_type_partial_charge
O1    O     O_R   0.494320 0.415010 0.412140 -0.516969
O2    O     O_R   0.824010 0.404260 0.587250 -0.544105
O3    O     O_R   0.994320 0.584990 0.587860 -0.537692
C1    C     C_R   0.654777 0.381803 0.616368 0.657645
O4    O     O_R   0.824040 0.403870 0.412760 -0.548349
O5    O     O_R   0.994350 0.584590 0.412130 -0.539952
C2    C     C_R   0.654880 0.380892 0.383956 0.686558
O6    O     O_R   0.494300 0.415410 0.587870 -0.537542
O7    O     O_3   0.660800 0.559290 0.500000 -0.369978
V1    V     V_3+5 0.935650 0.489000 0.500000 1.385541
O8    O     O_R   0.324060 0.595740 0.412750 -0.547985
C3    C     C_R   0.154719 0.619305 0.384579 0.664325
O9    O     O_R   0.324040 0.596130 0.587240 -0.543303
C4    C     C_R   0.155330 0.618437 0.616308 0.670999
V2    V     V_3+5 0.435660 0.511000 0.500000 1.398558
O10   O     O_3   0.160640 0.440710 0.500000 -0.355904
C5    C     C_3   0.055119 0.668311 0.773500 -0.142298
C6    C     C_3   0.229161 0.716918 0.816480 -0.141399
H1    H     H_    0.990760 0.600965 0.792922 0.093508
C7    C     C_3   0.121362 0.810396 0.811854 -0.003215
C8    C     C_3   0.947134 0.762584 0.769658 -0.114769
C9    C     C_3   0.037227 0.781904 0.682337 -0.143375
C10   C     C_3   0.211269 0.830508 0.725314 -0.144031
C11   C     C_3   0.319258 0.736238 0.729158 -0.116170
C12   C     C_3   0.145035 0.688429 0.686961 -0.004044
H2    H     H_    0.793595 0.773680 0.786728 0.104387
H3    H     H_    0.958265 0.808346 0.626605 0.092949
H4    H     H_    0.275622 0.897846 0.705877 0.090589
H5    H     H_    0.472797 0.725147 0.712085 0.104292
C13   C     C_3   0.282227 0.839839 0.252402 -0.336302
H6    H     H_    0.424516 0.838388 0.220136 0.149239
H7    H     H_    0.262199 0.912083 0.276012 0.135229
C14   C     C_3   0.287522 0.770727 0.327174 -0.393671
H8    H     H_    0.252414 0.808324 0.386499 0.138108
H9    H     H_    0.305382 0.717534 0.116560 0.123413
H10   H     H_    0.347475 0.622097 0.228245 0.116326
C15   C     C_3   0.169305 0.714796 0.153592 -0.378265
C16   C     C_3   0.923820 0.805964 0.236210 0.093562
C17   C     C_3   0.120702 0.813127 0.188488 0.075930
H11   H     H_    0.812907 0.779963 0.191036 0.113065
C18   C     C_3   0.142265 0.689370 0.313155 0.061450
C19   C     C_3   0.192803 0.643168 0.226304 0.086626
C20   C     C_3   0.937625 0.734407 0.309059 -0.352305
H12   H     H_    0.905451 0.768344 0.370486 0.135217
H13   H     H_    0.823858 0.680678 0.300456 0.120870
H14   H     H_    0.053750 0.692291 0.109280 0.144215
C21   C     C_3   0.429428 0.293322 0.713592 -0.305834
H15   H     H_    0.361326 0.359674 0.734359 0.130840
H16   H     H_    0.345197 0.266974 0.658810 0.141056
C22   C     C_3   0.417171 0.221845 0.785651 -0.318124
H17   H     H_    0.343486 0.254364 0.840522 0.134760
H18   H     H_    0.692568 0.413942 0.787465 0.119128
H19   H     H_    0.674003 0.307583 0.894752 0.117071
C23   C     C_3   0.753703 0.346291 0.766108 -0.325348
C24   C     C_3   0.731056 0.216472 0.660127 -0.325809
C25   C     C_3   0.642746 0.311168 0.687253 0.119114
H20   H     H_    0.884735 0.226105 0.641877 0.137700
H21   H     H_    0.653286 0.189119 0.603988 0.120095
C26   C     C_3   0.621501 0.187781 0.811658 0.121441
C27   C     C_3   0.741201 0.274388 0.838670 -0.319684
C28   C     C_3   0.718588 0.144500 0.732647 -0.320424
H22   H     H_    0.634847 0.082673 0.711210 0.117335
H23   H     H_    0.866432 0.120019 0.748555 0.135171
H24   H     H_    0.889571 0.252878 0.856984 0.139797
C29   C     C_3   0.542948 0.352915 0.234638 -0.319569
H25   H     H_    0.628747 0.413432 0.212195 0.124748
C30   C     C_3   0.524672 0.280252 0.162597 -0.329968
H26   H     H_    0.591820 0.308412 0.104493 0.122272
H27   H     H_    0.369266 0.268026 0.148688 0.142525
H28   H     H_    0.368122 0.131495 0.250808 0.139048
C31   C     C_3   0.532523 0.219794 0.340563 0.084933
C32   C     C_3   0.847749 0.278655 0.284908 -0.397752
C33   C     C_3   0.643026 0.309830 0.312956 0.115934
H29   H     H_    0.922348 0.245125 0.338753 0.140911
H30   H     H_    0.935268 0.339998 0.265707 0.153607
C34   C     C_3   0.623220 0.187231 0.186996 0.098489
C35   C     C_3   0.520875 0.148536 0.266211 -0.368569
C36   C     C_3   0.836660 0.208847 0.211000 -0.318050
H31   H     H_    0.913985 0.238325 0.155873 0.145155
H32   H     H_    0.912479 0.143602 0.229003 0.149419
H33   H     H_    0.616053 0.187113 0.392543 0.093605
H34   H     H_    0.590411 0.082121 0.285383 0.118903
O11   O     O_R   0.771990 0.083520 0.910980 -0.541179
O12   O     O_R   0.442180 0.095020 0.086060 -0.545184
O13   O     O_R   0.271950 0.914280 0.086680 -0.544832
C37   C     C_R   0.611488 0.117405 0.115279 0.680477
O14   O     O_R   0.442270 0.094630 0.911580 -0.544776
O15   O     O_R   0.272040 0.913890 0.910940 -0.537032
C38   C     C_R   0.611076 0.117114 0.882498 0.649860
O16   O     O_R   0.771900 0.083910 0.086710 -0.535341
O17   O     O_3   0.605520 0.939610 0.998840 -0.364247
V3    V     V_3+5 0.330640 0.009880 0.998810 1.377011
O18   O     O_R   0.942330 0.902710 0.911540 -0.543719
C39   C     C_R   0.111053 0.880402 0.882498 0.671825
O19   O     O_R   0.942240 0.903100 0.086030 -0.530237
C40   C     C_R   0.110815 0.882537 0.116557 0.705272
V4    V     V_3+5 0.830640 0.987830 0.998780 1.399814
O20   O     O_3   0.105630 0.058150 0.998800 -0.371417
H35   H     H_    0.308103 0.690484 0.872221 0.097898
H36   H     H_    0.436848 0.743336 0.333960 0.145101
N1    N     N_3   0.859742 0.897463 0.266824 -0.688591
H37   H     H_    0.718992 0.890904 0.289628 0.212235
H38   H     H_    0.945074 0.918841 0.317559 0.224357
N2    N     N_3   0.079630 0.558924 0.208219 -0.689019
H39   H     H_    0.110594 0.507922 0.252892 0.209823
H40   H     H_    0.932100 0.573214 0.210769 0.226215
H41   H     H_    0.327349 0.161677 0.764945 0.132121
H42   H     H_    0.907899 0.358665 0.750125 0.135684
H43   H     H_    0.397812 0.380340 0.250939 0.143502
N3    N     N_3   0.340012 0.241334 0.373315 -0.662636
H44   H     H_    0.251586 0.262682 0.323926 0.233752
H45   H     H_    0.279917 0.180315 0.397633 0.208361

loop_
_geom_bond_atom_site_label_1
_geom_bond_atom_site_label_2
_ccdc_geom_bond_type
C13   H7    S    
C24   C25   S    
O18   C39   A    
C34   C37   S    
C18   C19   S    
H10   C19   S    
O19   C40   A    
C1    O6    A    
N2    H40   S    
V4    O20   S    
V3    O20   S    
C2    C33   S    
C23   C27   S    
N1    H37   S    
C6    C11   S    
C22   C26   S    
H9    C15   S    
O12   C37   A    
C16   N1    S    
O5    C3    A    
C13   H6    S    
O13   C40   A    
C36   H32   S    
V2    O10   S    
C31   N3    S    
C29   C33   S    
C26   C38   S    
C15   C19   S    
C28   H23   S    
C11   H5    S    
C32   C36   S    
N3    H45   S    
N3    H44   S    
O8    V2    S    
O13   V3    S    
O15   V3    S    
C29   C30   S    
C9    C12   S    
C10   C11   S    
O1    V2    S    
O7    V1    S    
O16   V4    S    
C26   C27   S    
N1    H38   S    
O9    C4    A    
C1    C25   S    
H28   C35   S    
C18   C20   S    
C32   H30   S    
N2    H39   S    
C8    H2    S    
H18   C23   S    
C22   H17   S    
C21   C22   S    
O15   C39   A    
O11   C38   A    
C23   C25   S    
C26   C28   S    
C30   H26   S    
C34   C35   S    
C32   H29   S    
C37   O16   A    
O17   V3    S    
O4    C2    A    
C36   H31   S    
O17   V4    S    
C30   H27   S    
O2    C1    A    
C20   H12   S    
C3    C18   S    
C21   H15   S    
C7    C10   S    
H19   C27   S    
C5    C6    S    
C24   H20   S    
C10   H4    S    
C11   C12   S    
C20   H13   S    
C29   H43   S    
O3    C4    A    
O6    V2    S    
C9    H3    S    
O14   C38   A    
C22   H41   S    
C6    H35   S    
O2    V1    S    
O18   V4    S    
C31   C35   S    
O14   V3    S    
C31   C33   S    
C7    C39   S    
C13   C14   S    
O1    C2    A    
C34   C36   S    
C32   C33   S    
C19   N2    S    
O5    V1    S    
O8    C3    A    
O19   V4    S    
C21   H16   S    
C23   H42   S    
C27   H24   S    
C14   H36   S    
C14   C18   S    
O9    V2    S    
O7    V2    S    
C5    C12   S    
O4    V1    S    
C15   C17   S    
O3    V1    S    
V1    O10   S    
C16   H11   S    
C16   C17   S    
C35   H34   S    
C24   C28   S    
C5    H1    S    
C14   H8    S    
C13   C17   S    
C6    C7    S    
C4    C12   S    
C28   H22   S    
C5    C8    S    
C17   C40   S    
C16   C20   S    
C7    C8    S    
C29   H25   S    
O11   V4    S    
C24   H21   S    
C9    C10   S    
C30   C34   S    
O12   V3    S    
C15   H14   S    
C8    C9    S    
C21   C25   S    
C31   H33   S    
