data_mof_unit_905.cif
_audit_creation_date              2012-12-11T14:34:01-0500
_audit_creation_method            fapswitch 2.2
_symmetry_space_group_name_H-M    P1
_symmetry_Int_Tables_number       1
_space_group_crystal_system       triclinic
_cell_length_a                    13.835418
_cell_length_b                    13.995019
_cell_length_c                    27.372565
_cell_angle_alpha                 89.96989
_cell_angle_beta                  90.108035
_cell_angle_gamma                 119.619353
_cell_volume                      4607.48723838

loop_
_atom_site_label
_atom_site_type_symbol
_atom_type_description
_atom_site_fract_x
_atom_site_fract_y
_atom_site_fract_z
_atom_type_partial_charge
C1    C     C_R   0.234575 0.786577 0.569089 0.543536
C2    C     C_R   0.213178 0.447977 0.569168 0.547649
C3    C     C_R   0.551681 0.764589 0.569288 0.544503
C4    C     C_3   0.658658 0.735357 0.791001 -0.247362
C5    C     C_3   0.246614 0.943727 0.785225 -0.244981
C6    C     C_3   0.052827 0.307875 0.785976 -0.243802
C7    C     C_3   0.632232 0.719902 0.735585 -0.243875
C8    C     C_3   0.267287 0.922042 0.731890 -0.240354
C9    C     C_3   0.073537 0.348485 0.732283 -0.241817
C10   C     C_1   0.704731 0.862170 0.860725 -0.039576
C11   C     C_1   0.113677 0.877449 0.853269 -0.040833
C12   C     C_1   0.117818 0.235122 0.852948 -0.045129
C13   C     C_1   0.621841 0.810786 0.660022 -0.013521
C14   C     C_1   0.180599 0.813785 0.657831 -0.016487
C15   C     C_1   0.183233 0.368685 0.658096 -0.020170
C16   C     C_1   0.596583 0.793431 0.617541 0.035590
C17   C     C_1   0.201939 0.803346 0.616304 0.033869
C18   C     C_1   0.195717 0.399870 0.616508 0.032830
C19   C     C_R   0.065767 0.151696 0.096133 0.566515
C20   C     C_R   0.776846 0.883686 0.087928 0.552194
C21   C     C_R   0.117126 0.893669 0.087967 0.564979
C22   C     C_R   0.069754 0.161095 0.943164 0.531200
C23   C     C_R   0.779741 0.887164 0.950804 0.550180
C24   C     C_R   0.090799 0.929218 0.943337 0.528058
C25   C     C_R   0.601878 0.885461 0.358204 -0.108539
C26   C     C_R   0.103633 0.722603 0.360737 -0.116126
C27   C     C_R   0.275471 0.382349 0.359650 -0.116518
C28   C     C_R   0.621384 0.896811 0.308055 -0.009144
C29   C     C_R   0.088734 0.732944 0.310985 -0.012143
C30   C     C_R   0.255389 0.336217 0.312996 -0.009766
C31   C     C_R   0.657445 0.916875 0.206484 -0.004740
C32   C     C_R   0.068144 0.749384 0.209179 -0.004556
C33   C     C_R   0.218060 0.258441 0.216052 -0.008889
C34   C     C_R   0.232373 0.787617 0.431679 0.546198
C35   C     C_R   0.212382 0.445484 0.431277 0.548713
C36   C     C_R   0.553800 0.766223 0.431260 0.547042
C37   C     C_R   0.624341 0.985435 0.230769 0.041151
C38   C     C_R   0.992899 0.651328 0.234207 0.049072
C39   C     C_R   0.327776 0.311481 0.235636 0.052817
C40   C     C_R   0.606528 0.974062 0.281393 -0.116782
C41   C     C_R   0.005835 0.644398 0.284784 -0.112160
C42   C     C_R   0.344187 0.349199 0.284052 -0.105161
C43   C     C_R   0.691323 0.932928 0.157205 -0.122563
C44   C     C_R   0.060638 0.763990 0.158579 -0.120860
C45   C     C_R   0.196290 0.227171 0.166731 -0.109397
C46   C     C_R   0.719141 0.860103 0.134667 -0.011922
C47   C     C_R   0.138047 0.861675 0.135849 -0.014423
C48   C     C_R   0.087994 0.179270 0.147918 -0.012670
C49   C     C_R   0.644860 0.737021 0.360639 -0.112830
C50   C     C_R   0.257192 0.909971 0.362939 -0.111691
C51   C     C_R   0.079271 0.320921 0.369391 -0.108060
C52   C     C_R   0.661194 0.744308 0.310409 0.014079
C53   C     C_R   0.247236 0.920648 0.313017 0.015413
C54   C     C_R   0.056892 0.273558 0.322852 0.020553
C55   C     C_R   0.649151 0.825045 0.283917 0.036173
C56   C     C_R   0.162815 0.830588 0.286681 0.038084
C57   C     C_R   0.146276 0.282343 0.294232 0.037264
C58   C     C_R   0.683275 0.669092 0.285632 0.082068
C59   C     C_R   0.324702 0.016059 0.288243 0.068528
C60   C     C_R   0.948573 0.223122 0.303199 0.097633
C61   C     C_R   0.693458 0.675156 0.235229 -0.071317
C62   C     C_R   0.320458 0.019120 0.237774 -0.089365
C63   C     C_R   0.930059 0.182075 0.255719 -0.078903
C64   C     C_R   0.685815 0.757127 0.209284 -0.012515
C65   C     C_R   0.236087 0.931842 0.211759 -0.006097
C66   C     C_R   0.018267 0.192932 0.226866 0.000003
C67   C     C_3   0.557136 0.850370 0.738272 -0.210060
C68   C     C_3   0.130460 0.721028 0.739208 -0.210924
C69   C     C_3   0.276135 0.407085 0.739406 -0.208145
C70   C     C_R   0.663584 0.832913 0.233214 0.032286
C71   C     C_R   0.155000 0.837231 0.235905 0.034609
C72   C     C_R   0.127439 0.242758 0.245988 0.036172
C73   C     C_R   0.706226 0.767329 0.159836 -0.106713
C74   C     C_R   0.229711 0.940889 0.161894 -0.102524
C75   C     C_R   0.999295 0.159837 0.178237 -0.122630
C76   C     C_R   0.608768 0.802315 0.384055 -0.004980
C77   C     C_R   0.191992 0.808977 0.385946 -0.006713
C78   C     C_R   0.188212 0.378217 0.387160 -0.006972
C79   C     C_3   0.762768 0.922571 0.723440 -0.009553
C80   C     C_3   0.064180 0.853707 0.714348 -0.008353
C81   C     C_3   0.137693 0.212302 0.713661 -0.007289
C82   C     C_3   0.783337 0.937592 0.779389 -0.195232
C83   C     C_3   0.042957 0.866202 0.768982 -0.198644
C84   C     C_3   0.121253 0.176402 0.767987 -0.198943
C85   C     C_1   0.733364 0.872846 0.902842 0.010625
C86   C     C_1   0.103075 0.899809 0.894636 0.011906
C87   C     C_1   0.097703 0.202184 0.894354 0.005447
C88   C     C_3   0.643573 0.826593 0.712858 0.046211
C89   C     C_3   0.159986 0.826564 0.709374 0.042464
C90   C     C_3   0.168605 0.334762 0.709491 0.043959
C91   C     C_3   0.575124 0.859045 0.794774 -0.024965
C92   C     C_3   0.118996 0.740376 0.794634 -0.024104
C93   C     C_3   0.257273 0.373706 0.794443 -0.022506
C94   C     C_3   0.680431 0.850160 0.807992 0.016957
C95   C     C_3   0.128605 0.855747 0.802037 0.012833
C96   C     C_3   0.138347 0.272464 0.801817 0.016040
Cr1   Cr    Cr6+3 0.164410 0.584450 0.499910 1.062901
Cr2   Cr    Cr6+3 0.415550 0.579960 0.499910 1.064670
Cr3   Cr    Cr6+3 0.420040 0.835590 0.499910 1.064965
Cr4   Cr    Cr6+3 0.155170 0.075460 0.019960 1.054507
Cr5   Cr    Cr6+3 0.924540 0.079710 0.019960 1.041967
Cr6   Cr    Cr6+3 0.920290 0.844830 0.019960 1.046326
H1    H     H_    0.471476 0.782802 0.730076 0.077798
H2    H     H_    0.197024 0.698982 0.734636 0.080631
H3    H     H_    0.299376 0.495178 0.735949 0.079250
H4    H     H_    0.502122 0.786857 0.811465 0.121653
H5    H     H_    0.190768 0.742065 0.813992 0.132742
H6    H     H_    0.260264 0.443792 0.815044 0.125870
H7    H     H_    0.732883 0.726367 0.798581 0.160921
H8    H     H_    0.256236 0.027263 0.788005 0.166355
H9    H     H_    0.966697 0.237519 0.789587 0.160999
H10   H     H_    0.701989 0.003932 0.137013 0.163160
H11   H     H_    0.994651 0.702911 0.136407 0.182592
H12   H     H_    0.262929 0.244507 0.141726 0.190034
H13   H     H_    0.573671 0.936203 0.376265 0.157616
H14   H     H_    0.051921 0.644574 0.378746 0.149691
H15   H     H_    0.360159 0.427529 0.373196 0.148716
H16   H     H_    0.579581 0.024992 0.300115 0.184127
H17   H     H_    0.950409 0.569153 0.304018 0.178437
H18   H     H_    0.427597 0.390963 0.299164 0.182562
H19   H     H_    0.723978 0.708325 0.142143 0.164404
H20   H     H_    0.291677 0.015414 0.144062 0.164204
H21   H     H_    0.915866 0.122760 0.163261 0.114571
H22   H     H_    0.709839 0.616864 0.216375 0.210065
H23   H     H_    0.382983 0.090747 0.218893 0.202956
H24   H     H_    0.847093 0.145839 0.240573 0.150372
H25   H     H_    0.562304 0.926324 0.722927 0.185206
H26   H     H_    0.053108 0.650452 0.724550 0.187289
H27   H     H_    0.346897 0.400514 0.723977 0.186677
H28   H     H_    0.651111 0.674509 0.381321 0.172883
H29   H     H_    0.323000 0.976502 0.383296 0.174796
H30   H     H_    0.013199 0.317756 0.391523 0.173360
H31   H     H_    0.824158 0.902366 0.707213 0.155153
H32   H     H_    0.088777 0.932763 0.695463 0.163063
H33   H     H_    0.058273 0.160848 0.693792 0.160863
H34   H     H_    0.804728 0.021772 0.790895 0.185295
H35   H     H_    0.956847 0.805108 0.779610 0.184535
H36   H     H_    0.178145 0.145516 0.778567 0.175677
H37   H     H_    0.857029 0.928969 0.788603 0.079588
H38   H     H_    0.049886 0.947753 0.774576 0.079641
H39   H     H_    0.035279 0.106753 0.772774 0.088526
H40   H     H_    0.546198 0.650516 0.729984 0.128849
H41   H     H_    0.335240 0.901186 0.731203 0.131384
H42   H     H_    0.095543 0.436498 0.731139 0.129823
H43   H     H_    0.689290 0.696954 0.717172 0.179926
H44   H     H_    0.296456 0.998054 0.709998 0.183345
H45   H     H_    0.995848 0.301850 0.710746 0.178606
H46   H     H_    0.587887 0.669382 0.811684 0.157540
H47   H     H_    0.310831 0.942663 0.809396 0.168261
H48   H     H_    0.059146 0.374641 0.810182 0.155796
O1    O     O_R   0.137150 0.468200 0.553200 -0.498327
O2    O     O_R   0.531800 0.668950 0.553200 -0.495974
O3    O     O_R   0.331050 0.862850 0.553200 -0.494276
O4    O     O_R   0.179100 0.982980 0.967000 -0.489210
O5    O     O_R   0.017020 0.196120 0.967000 -0.468996
O6    O     O_R   0.803880 0.820900 0.967000 -0.504837
O7    O     O_R   0.173970 0.688730 0.549930 -0.493412
O8    O     O_R   0.311270 0.485240 0.549930 -0.491595
O9    O     O_R   0.514760 0.826030 0.549930 -0.490137
O10   O     O_R   0.140110 0.470540 0.446010 -0.510077
O11   O     O_R   0.529460 0.669570 0.446010 -0.512683
O12   O     O_R   0.330430 0.859890 0.446010 -0.511818
O13   O     O_R   0.176710 0.690910 0.450560 -0.500447
O14   O     O_R   0.309090 0.485800 0.450560 -0.498700
O15   O     O_R   0.514200 0.823290 0.450560 -0.498558
O16   O     O_3   0.333333 0.666667 0.499990 -0.290091
O17   O     O_R   0.176750 0.985260 0.074180 -0.520329
O18   O     O_R   0.014740 0.191490 0.074180 -0.474882
O19   O     O_R   0.808510 0.823250 0.074180 -0.508198
O20   O     O_R   0.146100 0.172630 0.068980 -0.478341
O21   O     O_R   0.827370 0.973470 0.068980 -0.519126
O22   O     O_R   0.026530 0.853900 0.068980 -0.485120
O23   O     O_3   1.000000 0.000000 0.020040 -0.302623
O24   O     O_R   0.148270 0.170520 0.969620 -0.478036
O25   O     O_R   0.829480 0.977750 0.969620 -0.518273
O26   O     O_R   0.022250 0.851730 0.969620 -0.470169
C97   C     C_2   0.576545 0.960068 0.815503 0.561846
O27   O     O_2   0.643015 0.051860 0.800616 -0.490220
O28   O     O_R   0.499959 0.947406 0.851693 -0.706950
H49   H     H_    0.507920 0.020160 0.862637 0.350111
C98   C     C_2   0.015280 0.646124 0.816683 0.566599
O29   O     O_2   0.923359 0.619419 0.799941 -0.499718
O30   O     O_R   0.025616 0.588453 0.856189 -0.691243
H50   H     H_    0.951185 0.526817 0.867769 0.352224
C99   C     C_2   0.350085 0.357600 0.814874 0.568082
O31   O     O_2   0.371548 0.290375 0.796807 -0.499210
O32   O     O_R   0.412412 0.421640 0.854448 -0.695242
H51   H     H_    0.472506 0.404441 0.864898 0.352821
C100  C     C_2   0.603692 0.066637 0.204619 0.556145
O33   O     O_2   0.629147 0.154935 0.223781 -0.453772
O34   O     O_R   0.550993 0.040683 0.159045 -0.709183
H52   H     H_    0.539581 0.101877 0.145547 0.339967
C101  C     C_2   0.902559 0.552663 0.209526 0.586460
O35   O     O_2   0.882725 0.460993 0.222395 -0.453030
O36   O     O_R   0.836865 0.563025 0.173397 -0.738506
H53   H     H_    0.777112 0.489369 0.160475 0.360007
C102  C     C_2   0.428374 0.333497 0.207011 0.589661
O37   O     O_2   0.516337 0.417777 0.214555 -0.497651
O38   O     O_R   0.424941 0.257609 0.172914 -0.746949
H54   H     H_    0.499578 0.282235 0.156853 0.350344
I1    I     I_    0.699573 0.541616 0.320422 -0.309345
I2    I     I_    0.453418 0.158289 0.323136 -0.301348
I3    I     I_    0.810203 0.214953 0.340801 -0.306863
I4    I     I_    0.796208 0.074867 0.689221 -0.403479
I5    I     I_    0.912798 0.735480 0.678384 -0.397868
I6    I     I_    0.257106 0.178764 0.678259 -0.401710

loop_
_geom_bond_atom_site_label_1
_geom_bond_atom_site_label_2
_ccdc_geom_bond_type
C15   C18   T    
C37   C100  S    
C4    H7    S    
C10   C85   T    
C82   C94   S    
Cr3   O9    S    
C2    C18   S    
C33   C45   A    
C6    H9    S    
Cr5   O23   S    
C91   H4    S    
C19   O20   A    
C27   C78   A    
Cr2   O11   S    
C6    C9    S    
C53   C59   A    
C67   H1    S    
C79   I4    S    
Cr2   O2    S    
C98   O29   D    
Cr6   O23   S    
C67   C88   S    
C33   C39   A    
C31   C43   A    
Cr4   O17   S    
C75   H21   S    
C40   H16   S    
C37   C40   A    
C69   C93   S    
C92   C98   S    
C25   H13   S    
C93   H6    S    
C64   C70   A    
C99   O32   S    
C23   O25   A    
C5    H8    S    
Cr5   O5    S    
C11   C86   T    
Cr6   O26   S    
Cr1   O16   S    
C4    H46   S    
C30   C57   A    
C91   C97   S    
C60   I3    S    
C5    H47   S    
C100  O34   S    
C84   C96   S    
C80   C89   S    
C102  O38   S    
C35   O10   A    
C79   C88   S    
C36   C76   S    
C33   C72   A    
C5    C95   S    
C45   H12   S    
C28   C55   A    
C31   C70   A    
C66   C72   A    
Cr2   O8    S    
C58   I1    S    
C28   C40   A    
Cr1   O13   S    
C64   C73   A    
Cr5   O21   S    
C32   C38   A    
C39   C42   A    
C68   H26   S    
C12   C87   T    
C44   C47   A    
Cr3   O16   S    
C56   C71   A    
Cr6   O19   S    
C98   O30   S    
C20   O19   A    
C39   C102  S    
C63   C66   A    
C84   H36   S    
O38   H54   S    
C23   O6    A    
C27   C30   A    
C3    O9    A    
C14   C17   T    
C100  O33   D    
C4    C7    S    
C83   H38   S    
C22   O24   A    
C9    H42   S    
C24   O4    A    
C81   H33   S    
C32   C71   A    
C22   O5    A    
C27   H15   S    
C32   C44   A    
C79   H31   S    
C50   C53   A    
Cr4   O20   S    
O34   H52   S    
C26   C77   A    
Cr1   O10   S    
C38   C41   A    
C34   O13   A    
C21   C47   S    
C69   H3    S    
C19   C48   S    
C68   C92   S    
C54   C60   A    
O36   H53   S    
C45   C48   A    
C97   O28   S    
C65   C71   A    
C9    H45   S    
C92   C95   S    
C65   C74   A    
C31   C37   A    
C25   C28   A    
Cr1   O7    S    
C61   C64   A    
O30   H50   S    
C14   C89   S    
C82   H37   S    
Cr5   O18   S    
C67   H25   S    
C62   H23   S    
Cr3   O12   S    
C92   H5    S    
C7    C88   S    
Cr1   O1    S    
C2    O8    A    
C49   C52   A    
C83   C95   S    
C67   C91   S    
C68   C89   S    
C3    O2    A    
C49   C76   A    
C22   C87   S    
C41   H17   S    
C1    O3    A    
Cr2   O16   S    
C52   C58   A    
C4    C94   S    
C81   C90   S    
C74   H20   S    
C44   H11   S    
C97   O27   D    
C93   C96   S    
C6    C96   S    
C60   C63   A    
Cr4   O24   S    
C36   O11   A    
Cr5   O25   S    
C5    C8    S    
C19   O18   A    
C69   C90   S    
C24   O26   A    
C50   C77   A    
Cr6   O6    S    
C83   H35   S    
C81   C84   S    
C80   C83   S    
C53   C56   A    
Cr4   O4    S    
C2    O1    A    
C59   C62   A    
C62   C65   A    
C29   C41   A    
C1    C17   S    
C8    H44   S    
C68   H2    S    
C47   C74   A    
C34   O12   A    
C91   C94   S    
C9    C90   S    
C79   C82   S    
Cr2   O14   S    
C51   H30   S    
C52   C55   A    
C55   C70   A    
C29   C56   A    
C21   O22   A    
C49   H28   S    
C35   C78   S    
C73   H19   S    
C35   O14   A    
C21   O17   A    
C38   C101  S    
C51   C54   A    
C25   C76   A    
C1    O7    A    
C51   C78   A    
C23   C85   S    
O32   H51   S    
C34   C77   S    
C15   C90   S    
C59   I2    S    
C42   H18   S    
C99   O31   D    
C48   C75   A    
C84   H39   S    
C58   C61   A    
C66   C75   A    
Cr3   O3    S    
C13   C88   S    
C36   O15   A    
C80   H32   S    
C61   H22   S    
C80   I5    S    
C8    H41   S    
C30   C42   A    
C7    H40   S    
C57   C72   A    
C82   H34   S    
C102  O37   D    
C43   C46   A    
C26   H14   S    
C63   H24   S    
C50   H29   S    
O28   H49   S    
C6    H48   S    
C20   O21   A    
C11   C95   S    
C26   C29   A    
C69   H27   S    
C101  O35   D    
C43   H10   S    
C13   C16   T    
Cr4   O23   S    
C10   C94   S    
C12   C96   S    
C8    C89   S    
C101  O36   S    
Cr3   O15   S    
Cr6   O22   S    
C24   C86   S    
C46   C73   A    
C20   C46   S    
C3    C16   S    
C81   I6    S    
C7    H43   S    
C54   C57   A    
C93   C99   S    
