data_mof_unit_2187.cif
_audit_creation_date              2012-12-10T19:27:34-0500
_audit_creation_method            fapswitch 2.2
_symmetry_space_group_name_H-M    P1
_symmetry_Int_Tables_number       1
_space_group_crystal_system       triclinic
_cell_length_a                    23.414357
_cell_length_b                    10.50719
_cell_length_c                    9.796036
_cell_angle_alpha                 91.273335
_cell_angle_beta                  89.816099
_cell_angle_gamma                 90.537932
_cell_volume                      2409.29976173

loop_
_atom_site_label
_atom_site_type_symbol
_atom_type_description
_atom_site_fract_x
_atom_site_fract_y
_atom_site_fract_z
_atom_type_partial_charge
C1    C     C_R   0.500287 0.257558 0.498686 0.847488
C2    C     C_R   0.702389 0.509822 0.623815 -0.198150
C3    C     C_R   0.238253 0.488607 0.625994 -0.212776
C4    C     C_R   0.761410 0.504522 0.625856 -0.207181
C5    C     C_R   0.208286 0.497235 0.503771 0.245894
C6    C     C_R   0.791527 0.483174 0.504644 0.243093
C7    C     C_3   0.543856 0.045143 0.575513 -0.161612
C8    C     C_3   0.456157 0.954864 0.424482 -0.162123
C9    C     C_3   0.549529 0.956396 0.448550 -0.195513
C10   C     C_3   0.450484 0.043609 0.551447 -0.195402
C11   C     C_3   0.499615 0.877734 0.503176 0.034077
C12   C     C_R   0.499718 0.742443 0.501314 0.848336
C13   C     C_3   0.500397 0.122270 0.496821 0.034361
C14   C     C_3   0.493907 0.963843 0.630174 -0.140982
C15   C     C_3   0.506106 0.036164 0.369825 -0.141169
C16   C     C_R   0.389439 0.500395 0.500236 0.877567
C17   C     C_R   0.610555 0.498803 0.499810 0.876992
C18   C     C_3   0.493297 0.385974 0.044415 0.330350
C19   C     C_3   0.506720 0.614072 0.955596 0.327172
C20   C     C_3   0.540954 0.430935 0.950109 0.322024
C21   C     C_3   0.459041 0.569081 0.049814 0.324706
C22   C     C_3   0.452319 0.455096 0.951739 0.325705
C23   C     C_R   0.236800 0.506058 0.378202 0.597281
C24   C     C_3   0.547707 0.544893 0.048392 0.317765
C25   C     C_R   0.880089 0.599369 0.505763 0.522609
C26   C     C_R   0.119795 0.380366 0.510717 0.528306
C27   C     C_R   0.880625 0.371805 0.511589 0.564326
C28   C     C_R   0.119100 0.607969 0.505994 0.562639
C29   C     C_R   0.940284 0.371412 0.512599 -0.029483
C30   C     C_R   0.059480 0.608326 0.507105 -0.028068
C31   C     C_R   0.969903 0.488776 0.510068 -0.018456
C32   C     C_R   0.029898 0.490945 0.509997 -0.018328
C33   C     C_R   0.939667 0.603992 0.507042 -0.018750
C34   C     C_R   0.763188 0.467547 0.379539 0.585676
C35   C     C_R   0.060172 0.375732 0.512268 -0.019817
C36   C     C_R   0.970834 0.257200 0.515529 -0.152700
C37   C     C_R   0.028951 0.722566 0.504829 -0.152944
C38   C     C_R   0.030303 0.259339 0.515304 -0.152400
C39   C     C_R   0.969514 0.720414 0.504722 -0.153497
C40   C     C_3   0.623324 0.315852 0.982302 -0.284041
C41   C     C_3   0.377278 0.685962 0.015718 -0.293686
C42   C     C_3   0.487855 0.169946 0.997402 -0.336259
C43   C     C_3   0.511872 0.830270 0.002678 -0.338500
C44   C     C_3   0.365737 0.352193 0.987351 -0.315447
C45   C     C_R   0.296826 0.510275 0.378167 -0.339082
C46   C     C_3   0.633486 0.651329 0.014523 -0.290538
C47   C     C_3   0.226872 0.450924 0.148393 -0.314598
C48   C     C_3   0.780030 0.517488 0.154638 -0.302901
C49   C     C_R   0.703239 0.471311 0.378274 -0.325626
C50   C     C_R   0.327064 0.500156 0.500978 -0.093219
C51   C     C_R   0.672883 0.494181 0.500179 -0.091968
C52   C     C_R   0.297367 0.489856 0.624787 -0.210891
H1    H     H_    0.052731 0.169696 0.517184 0.192187
H2    H     H_    0.420454 0.913463 0.363200 0.158999
H3    H     H_    0.488365 0.931408 0.736272 0.181952
H4    H     H_    0.511663 0.068612 0.263738 0.181930
H5    H     H_    0.948943 0.165976 0.517583 0.191423
H6    H     H_    0.050831 0.813800 0.502691 0.191841
H7    H     H_    0.603799 0.289151 0.081602 0.180232
H8    H     H_    0.656060 0.391232 0.999131 0.179573
H9    H     H_    0.645479 0.230649 0.940405 0.179370
H10   H     H_    0.344828 0.610985 0.993806 0.180916
H11   H     H_    0.397829 0.715451 0.918620 0.183929
H12   H     H_    0.947096 0.810058 0.502516 0.192625
H13   H     H_    0.354516 0.769847 0.058820 0.180912
H14   H     H_    0.532661 0.138849 0.984449 0.184818
H15   H     H_    0.470631 0.199152 0.897062 0.206536
H16   H     H_    0.462055 0.087108 0.029944 0.157317
H17   H     H_    0.528119 0.800647 0.103816 0.205757
H18   H     H_    0.467176 0.862514 0.013813 0.183449
H19   H     H_    0.538290 0.912582 0.971260 0.157718
H20   H     H_    0.366489 0.402171 0.088730 0.182484
H21   H     H_    0.376916 0.250842 0.999233 0.201473
H22   H     H_    0.321210 0.354383 0.949342 0.160647
H23   H     H_    0.319885 0.522954 0.283571 0.187977
H24   H     H_    0.622025 0.753000 0.007896 0.195709
H25   H     H_    0.631993 0.605264 0.911319 0.177311
H26   H     H_    0.678259 0.648596 0.050156 0.157118
H27   H     H_    0.243276 0.355930 0.176950 0.159905
H28   H     H_    0.260566 0.507945 0.097637 0.154638
H29   H     H_    0.192314 0.434080 0.072760 0.205906
H30   H     H_    0.772102 0.617846 0.188287 0.168874
H31   H     H_    0.742461 0.476513 0.100264 0.152272
H32   H     H_    0.815906 0.519282 0.080455 0.202586
H33   H     H_    0.589823 0.916127 0.406897 0.150529
H34   H     H_    0.680451 0.454408 0.283568 0.192508
H35   H     H_    0.410190 0.083887 0.593095 0.150703
H36   H     H_    0.319662 0.483136 0.720827 0.210997
H37   H     H_    0.679970 0.526294 0.719058 0.174496
H38   H     H_    0.215505 0.481037 0.721972 0.155121
H39   H     H_    0.783977 0.517733 0.721546 0.152884
H40   H     H_    0.579559 0.086546 0.636789 0.159241
N1    N     N_R   0.852208 0.484598 0.507814 -0.340564
N2    N     N_R   0.147598 0.495169 0.507283 -0.340775
N3    N     N_3   0.499960 0.500030 0.863290 -0.189192
N4    N     N_3   0.500040 0.499970 0.136710 -0.189243
O1    O     O_R   0.500000 0.313960 0.616610 -0.593150
O2    O     O_2   0.149907 0.271477 0.511930 -0.552665
O3    O     O_2   0.851108 0.260924 0.514133 -0.538559
O4    O     O_2   0.148539 0.718972 0.503426 -0.539618
O5    O     O_3   0.582971 0.354922 0.885669 -0.583397
O6    O     O_3   0.416661 0.644585 0.113628 -0.586425
O7    O     O_3   0.484496 0.265185 0.100844 -0.587538
O8    O     O_3   0.515482 0.734961 0.899283 -0.588063
O9    O     O_3   0.401650 0.409062 0.889632 -0.593224
O10   O     O_3   0.598471 0.590106 0.110899 -0.588409
O11   O     O_3   0.204108 0.519625 0.261068 -0.591154
O12   O     O_R   0.500000 0.686040 0.383390 -0.593660
O13   O     O_3   0.795414 0.439484 0.263645 -0.594515
O14   O     O_R   0.500030 0.313950 0.383350 -0.579729
O15   O     O_R   0.499970 0.686050 0.616650 -0.579486
O16   O     O_R   0.416140 0.499970 0.616650 -0.583633
O17   O     O_R   0.583860 0.500030 0.383350 -0.579801
O18   O     O_R   0.416170 0.499960 0.383400 -0.589155
O19   O     O_R   0.583830 0.500040 0.616600 -0.589943
O20   O     O_2   0.850059 0.708280 0.501844 -0.555615
Zn1   Zn    Zn3+2 0.499980 0.500010 0.655740 1.051086
Zn2   Zn    Zn3+2 0.500020 0.499990 0.344260 1.051309

loop_
_geom_bond_atom_site_label_1
_geom_bond_atom_site_label_2
_ccdc_geom_bond_type
C26   N2    A    
C25   N1    A    
C40   H8    S    
C27   C29   A    
C18   N4    S    
C22   N3    S    
C47   H27   S    
C42   O7    S    
C17   C51   S    
C46   H24   S    
C5    N2    S    
C17   O17   A    
C44   O9    S    
N3    Zn1   S    
C39   H12   S    
C29   C36   A    
C16   O16   A    
C33   C39   A    
C3    H38   S    
C23   C45   A    
C47   H28   S    
N4    Zn2   S    
C19   C21   S    
C16   C50   S    
C24   N4    S    
O16   Zn1   S    
C11   C14   S    
C41   O6    S    
C28   N2    A    
C43   O8    S    
C9    H33   S    
C40   O5    S    
C7    C14   S    
C20   C24   S    
C49   C51   A    
C50   C52   A    
C31   C33   A    
C44   H20   S    
C37   H6    S    
C4    H39   S    
C28   O4    S    
C14   H3    S    
C43   H17   S    
C40   H7    S    
C21   C22   S    
C42   H16   S    
O14   Zn2   S    
C41   H10   S    
C10   H35   S    
C32   C35   A    
O12   Zn2   S    
C52   H36   S    
C35   C38   A    
C4    C6    A    
C36   H5    S    
C10   C14   S    
C25   O20   S    
C1    O1    A    
C12   O12   A    
C41   H13   S    
C20   O5    S    
O19   Zn1   S    
C40   H9    S    
C48   H32   S    
C30   C37   A    
C2    H37   S    
C2    C4    A    
C1    O14   A    
C19   O8    S    
C31   C32   A    
C5    C23   A    
C11   C12   S    
C6    N1    S    
C23   O11   S    
C44   H22   S    
C9    C11   S    
O18   Zn2   S    
C26   O2    S    
C21   O6    S    
C8    C10   S    
C20   N3    S    
C8    C15   S    
C47   O11   S    
C13   C15   S    
C42   H15   S    
C27   N1    A    
C1    C13   S    
C41   H11   S    
C8    H2    S    
C19   N3    S    
C17   O19   A    
C46   H26   S    
C7    C9    S    
C34   C49   A    
C43   H19   S    
C18   C22   S    
C49   H34   S    
C3    C5    A    
C10   C13   S    
C16   O18   A    
C46   H25   S    
C3    C52   A    
C21   N4    S    
C43   H18   S    
C22   O9    S    
C48   H31   S    
O15   Zn1   S    
C45   H23   S    
C15   H4    S    
C28   C30   A    
C19   C24   S    
C9    C15   S    
C29   C31   A    
C30   C32   A    
C38   H1    S    
C45   C50   A    
C8    C11   S    
C7    H40   S    
C46   O10   S    
C36   C38   A    
C48   H30   S    
C48   O13   S    
C18   C20   S    
C18   O7    S    
C47   H29   S    
O1    Zn1   S    
C44   H21   S    
C27   O3    S    
C2    C51   A    
O17   Zn2   S    
C6    C34   A    
C26   C35   A    
C7    C13   S    
C24   O10   S    
C37   C39   A    
C42   H14   S    
C34   O13   S    
C12   O15   A    
C25   C33   A    
