data_mof_unit_3123.cif
_audit_creation_date              2013-03-05T15:45:57-0500
_audit_creation_method            fapswitch 2.2
_symmetry_space_group_name_H-M    P1
_symmetry_Int_Tables_number       1
_space_group_crystal_system       triclinic
_cell_length_a                    19.008106
_cell_length_b                    11.040139
_cell_length_c                    18.705452
_cell_angle_alpha                 89.915765
_cell_angle_beta                  88.803804
_cell_angle_gamma                 90.079605
_cell_volume                      3924.51533781

loop_
_atom_site_label
_atom_site_type_symbol
_atom_site_description
_atom_site_fract_x
_atom_site_fract_y
_atom_site_fract_z
_atom_type_partial_charge
O1    O     O_R   0.787510 0.042610 0.670410 -0.493239
O2    O     O_R   0.212490 0.042610 0.329590 -0.482881
O3    O     O_R   0.287510 0.542610 0.670410 -0.489765
O4    O     O_R   0.712490 0.542610 0.329590 -0.481433
O5    O     O_R   0.765670 0.292090 0.675090 -0.503324
O6    O     O_R   0.234330 0.292090 0.324910 -0.498192
O7    O     O_R   0.265670 0.792090 0.675090 -0.500619
O8    O     O_R   0.734330 0.792090 0.324910 -0.498358
C1    C     C_R   0.734210 0.385232 0.649641 0.563803
C2    C     C_R   0.265805 0.385177 0.350364 0.571780
C3    C     C_R   0.234211 0.885233 0.649642 0.567266
C4    C     C_R   0.765806 0.885177 0.350364 0.570763
O9    O     O_R   0.670220 0.409020 0.668560 -0.448012
O10   O     O_R   0.329780 0.409020 0.331440 -0.447426
O11   O     O_R   0.170220 0.909020 0.668560 -0.447255
O12   O     O_R   0.829780 0.909020 0.331440 -0.448225
O13   O     O_R   0.556580 0.251590 0.674980 -0.487689
O14   O     O_R   0.443420 0.251590 0.325020 -0.486947
O15   O     O_R   0.056580 0.751590 0.674980 -0.488984
O16   O     O_R   0.943420 0.751590 0.325020 -0.486953
C5    C     C_R   0.532631 0.154103 0.646885 0.535437
C6    C     C_R   0.467375 0.154097 0.353104 0.543801
C7    C     C_R   0.032633 0.654103 0.646883 0.534159
C8    C     C_R   0.967374 0.654097 0.353104 0.543064
O17   O     O_R   0.545890 0.049670 0.670030 -0.539522
O18   O     O_R   0.454110 0.049670 0.329970 -0.531694
O19   O     O_R   0.045890 0.549670 0.670030 -0.539226
O20   O     O_R   0.954110 0.549670 0.329970 -0.531685
O21   O     O_R   0.681340 0.957860 0.676500 -0.513776
O22   O     O_R   0.318660 0.957860 0.323500 -0.507939
O23   O     O_R   0.181340 0.457860 0.676500 -0.513657
O24   O     O_R   0.818660 0.457860 0.323500 -0.507067
C9    C     C_R   0.727477 0.020995 0.639370 0.570251
C10   C     C_R   0.272587 0.020967 0.360547 0.572738
C11   C     C_R   0.227477 0.520992 0.639370 0.570349
C12   C     C_R   0.772587 0.520967 0.360547 0.573631
O25   O     O_R   0.787380 0.044010 0.830940 -0.458118
O26   O     O_R   0.212620 0.044010 0.169060 -0.452698
O27   O     O_R   0.287380 0.544010 0.830940 -0.440661
O28   O     O_R   0.712620 0.544010 0.169060 -0.460863
O29   O     O_R   0.765540 0.293390 0.823910 -0.471778
O30   O     O_R   0.234460 0.293390 0.176090 -0.506079
O31   O     O_R   0.265540 0.793390 0.823910 -0.501992
O32   O     O_R   0.734460 0.793390 0.176090 -0.508572
C13   C     C_R   0.728094 0.376071 0.853276 0.543084
C14   C     C_R   0.271824 0.375367 0.146207 0.551926
C15   C     C_R   0.227305 0.873690 0.854281 0.539782
C16   C     C_R   0.770375 0.877475 0.148013 0.547335
O33   O     O_R   0.670090 0.410410 0.829090 -0.536669
O34   O     O_R   0.329910 0.410410 0.170910 -0.534957
O35   O     O_R   0.170090 0.910410 0.829090 -0.530663
O36   O     O_R   0.829910 0.910410 0.170910 -0.532760
O37   O     O_R   0.556450 0.252890 0.823790 -0.517250
O38   O     O_R   0.443550 0.252890 0.176210 -0.513578
O39   O     O_R   0.056450 0.752890 0.823790 -0.521555
O40   O     O_R   0.943550 0.752890 0.176210 -0.510717
C17   C     C_R   0.537601 0.155197 0.856290 0.573534
C18   C     C_R   0.469589 0.157847 0.148196 0.590176
C19   C     C_R   0.036308 0.655216 0.855901 0.565513
C20   C     C_R   0.969968 0.657866 0.148383 0.582344
O41   O     O_R   0.545750 0.051070 0.830560 -0.450823
O42   O     O_R   0.454250 0.051070 0.169440 -0.490114
O43   O     O_R   0.045750 0.551070 0.830560 -0.443948
O44   O     O_R   0.954250 0.551070 0.169440 -0.494162
O45   O     O_R   0.681210 0.959150 0.825320 -0.475031
O46   O     O_R   0.318790 0.959150 0.174680 -0.523488
O47   O     O_R   0.181210 0.459150 0.825320 -0.487133
O48   O     O_R   0.818790 0.459150 0.174680 -0.523492
C21   C     C_R   0.739935 0.977167 0.856281 0.581750
C22   C     C_R   0.258571 0.968991 0.146651 0.585805
C23   C     C_R   0.242582 0.468012 0.852967 0.578232
C24   C     C_R   0.759289 0.470940 0.145911 0.590755
Cr1   Cr    Cr6+3 0.771950 0.169480 0.750100 1.075019
Cr2   Cr    Cr6+3 0.228050 0.169480 0.249900 1.073485
Cr3   Cr    Cr6+3 0.271950 0.669480 0.750100 1.073989
Cr4   Cr    Cr6+3 0.728050 0.669480 0.249900 1.070717
Cr5   Cr    Cr6+3 0.614930 0.323340 0.749170 1.063653
Cr6   Cr    Cr6+3 0.385070 0.323340 0.250830 1.065294
Cr7   Cr    Cr6+3 0.114930 0.823340 0.749170 1.055314
Cr8   Cr    Cr6+3 0.885070 0.823340 0.250830 1.066040
Cr9   Cr    Cr6+3 0.616590 0.010620 0.750610 1.063409
Cr10  Cr    Cr6+3 0.383410 0.010620 0.249390 1.040123
Cr11  Cr    Cr6+3 0.116590 0.510620 0.750610 1.059950
Cr12  Cr    Cr6+3 0.883410 0.510620 0.249390 1.037493
O49   O     O_3   0.667820 0.167810 0.749960 -0.295224
O50   O     O_3   0.332180 0.167810 0.250040 -0.296135
O51   O     O_3   0.167820 0.667810 0.749960 -0.293826
O52   O     O_3   0.832180 0.667810 0.250040 -0.295845
C25   C     C_R   0.493111 0.155207 0.424803 -0.006499
C26   C     C_R   0.506917 0.155220 0.575168 -0.007118
C27   C     C_R   0.993112 0.655206 0.424802 -0.006689
C28   C     C_R   0.006920 0.655221 0.575166 -0.007333
C29   C     C_R   0.497715 0.260412 0.463862 -0.014662
C30   C     C_R   0.502421 0.260411 0.535946 -0.014654
C31   C     C_R   0.997719 0.760411 0.463859 -0.014698
C32   C     C_R   0.002427 0.760412 0.535942 -0.014536
C33   C     C_R   0.502725 0.045008 0.537086 -0.126906
C34   C     C_R   0.497207 0.045005 0.463045 -0.126477
C35   C     C_R   0.002726 0.545008 0.537085 -0.126884
C36   C     C_R   0.997207 0.545004 0.463044 -0.126436
C37   C     C_3   0.495457 0.394668 0.458989 0.470794
C38   C     C_3   0.504849 0.394652 0.540624 0.471149
C39   C     C_3   0.995463 0.894667 0.458982 0.470928
C40   C     C_3   0.004857 0.894654 0.540617 0.471522
H1    H     H_    0.506617 0.958085 0.563558 0.198146
H2    H     H_    0.493242 0.958094 0.436700 0.198678
H3    H     H_    0.006616 0.458086 0.563558 0.198075
H4    H     H_    0.993239 0.458093 0.436700 0.198673
C41   C     C_R   0.675667 0.929258 0.528189 -0.078875
C42   C     C_R   0.324329 0.929211 0.471817 -0.078141
C43   C     C_R   0.175669 0.429252 0.528191 -0.078571
C44   C     C_R   0.824330 0.429213 0.471817 -0.078087
H5    H     H_    0.634634 0.887211 0.560688 0.180552
H6    H     H_    0.365214 0.887004 0.439363 0.180940
H7    H     H_    0.134636 0.387204 0.560690 0.180598
H8    H     H_    0.865216 0.387005 0.439364 0.180898
C45   C     C_R   0.676464 0.908565 0.453921 0.265062
C46   C     C_R   0.323544 0.908603 0.546114 0.264731
C47   C     C_R   0.176465 0.408560 0.453923 0.264880
C48   C     C_R   0.823544 0.408604 0.546114 0.265062
C49   C     C_R   0.733324 0.953731 0.411988 -0.030513
C50   C     C_R   0.266819 0.953912 0.587987 -0.033536
C51   C     C_R   0.233324 0.453728 0.411989 -0.030872
C52   C     C_R   0.766818 0.453912 0.587987 -0.033535
C53   C     C_R   0.769281 0.053174 0.439243 -0.036790
C54   C     C_R   0.231096 0.053455 0.560605 -0.038662
C55   C     C_R   0.269280 0.553173 0.439244 -0.036910
C56   C     C_R   0.731092 0.553452 0.560603 -0.039099
H9    H     H_    0.803929 0.105253 0.404521 0.198197
H10   H     H_    0.196587 0.105594 0.595260 0.196982
H11   H     H_    0.303926 0.605255 0.404522 0.198309
H12   H     H_    0.696581 0.605588 0.595257 0.196786
C57   C     C_R   0.771663 0.070769 0.513147 0.264119
C58   C     C_R   0.228752 0.071065 0.486673 0.264001
C59   C     C_R   0.271663 0.570766 0.513148 0.263933
C60   C     C_R   0.728751 0.571064 0.486671 0.264012
C61   C     C_R   0.727368 0.002812 0.559911 -0.029093
C62   C     C_R   0.272794 0.002899 0.440019 -0.029665
C63   C     C_R   0.227370 0.502807 0.559912 -0.029033
C64   C     C_R   0.772794 0.502899 0.440018 -0.029822
C65   C     C_R   0.545009 0.060736 0.975693 0.245770
C66   C     C_R   0.537730 0.070378 0.049786 0.227242
C67   C     C_R   0.036505 0.555273 0.974595 0.248977
C68   C     C_R   0.033663 0.566255 0.048709 0.224556
C69   C     C_R   0.502174 0.169981 0.078545 0.055505
C70   C     C_R   0.522280 0.158188 0.932157 0.024729
C71   C     C_R   0.003325 0.669599 0.078906 0.051655
C72   C     C_R   0.019524 0.657538 0.931810 0.024176
C73   C     C_R   0.481622 0.266986 0.035197 -0.207182
C74   C     C_R   0.492934 0.261983 0.962302 -0.227729
C75   C     C_R   0.986782 0.770240 0.036548 -0.194443
C76   C     C_R   0.996714 0.765232 0.963331 -0.224933
H13   H     H_    0.453769 0.344350 0.057162 0.147302
H14   H     H_    0.477014 0.337265 0.929225 0.171759
H15   H     H_    0.962724 0.850606 0.059460 0.155320
H16   H     H_    0.984517 0.843898 0.931187 0.143688
C77   C     C_R   0.781405 0.035667 0.975611 0.237512
C78   C     C_R   0.181800 0.922962 0.046118 0.234259
C79   C     C_R   0.315816 0.463114 0.960297 0.232596
C80   C     C_R   0.684551 0.414060 0.046152 0.228572
C81   C     C_R   0.781879 0.016565 0.048653 -0.114669
C82   C     C_R   0.176892 0.914545 0.972461 -0.122452
C83   C     C_R   0.313814 0.462551 0.034078 -0.129824
C84   C     C_R   0.678305 0.402578 0.972759 -0.114611
H17   H     H_    0.808911 0.079819 0.082923 0.117091
H18   H     H_    0.125300 0.919553 0.949106 0.131281
H19   H     H_    0.357188 0.503781 0.061818 0.121902
H20   H     H_    0.626328 0.391380 0.951007 0.130202
C85   C     C_R   0.751621 0.912744 0.077181 0.033890
C86   C     C_R   0.237277 0.896648 0.929357 0.003223
C87   C     C_R   0.259840 0.402666 0.071640 0.017443
C88   C     C_R   0.738330 0.402422 0.927702 0.028380
C89   C     C_R   0.716777 0.829202 0.033573 -0.131858
C90   C     C_R   0.302729 0.880145 0.960259 -0.146305
C91   C     C_R   0.206316 0.344014 0.034314 -0.111222
C92   C     C_R   0.805344 0.410330 0.955842 -0.142872
H21   H     H_    0.694326 0.746283 0.055175 0.153283
H22   H     H_    0.349191 0.861245 0.927648 0.149670
H23   H     H_    0.166290 0.290984 0.062110 0.164795
H24   H     H_    0.851846 0.407579 0.921381 0.146222
C93   C     C_R   0.714849 0.847880 0.960599 -0.170799
C94   C     C_R   0.308540 0.891014 0.033679 -0.183671
C95   C     C_R   0.204912 0.352148 0.960218 -0.159922
C96   C     C_R   0.812202 0.421310 0.029147 -0.201713
H25   H     H_    0.688647 0.782600 0.927053 0.135548
H26   H     H_    0.360488 0.886382 0.056281 0.140387
H27   H     H_    0.162613 0.309597 0.931699 0.161352
H28   H     H_    0.864492 0.432907 0.050125 0.136277
C97   C     C_R   0.746835 0.950533 0.931379 0.086493
C98   C     C_R   0.248696 0.917480 0.076368 0.067922
C99   C     C_R   0.256873 0.418375 0.923410 0.061119
C100  C     C_R   0.751903 0.425502 0.074156 0.065007
O53   O     O_3   0.814680 0.136402 0.946790 -0.669669
H29   H     H_    0.843313 0.175871 0.983867 0.312394
O54   O     O_3   0.122640 0.940900 0.089078 -0.675492
H30   H     H_    0.081613 0.956318 0.058557 0.313047
O55   O     O_3   0.373739 0.510370 0.923634 -0.682788
H31   H     H_    0.409498 0.537944 0.957910 0.305136
O56   O     O_3   0.625999 0.417529 0.091143 -0.676676
H32   H     H_    0.583451 0.426627 0.061991 0.316211
N1    N     N_R   0.927729 0.940237 0.438808 0.119626
O57   O     O_R   0.923678 0.049150 0.412699 -0.302020
O58   O     O_R   0.871788 0.885583 0.463970 -0.368176
N2    N     N_R   0.072644 0.940280 0.560733 0.119909
O59   O     O_R   0.076835 0.049263 0.586552 -0.303225
O60   O     O_R   0.128522 0.885580 0.535771 -0.366374
N3    N     N_R   0.427724 0.440237 0.438814 0.119524
O61   O     O_R   0.423673 0.549153 0.412709 -0.301933
O62   O     O_R   0.371783 0.385578 0.463973 -0.368138
N4    N     N_R   0.572636 0.440277 0.560743 0.119903
O63   O     O_R   0.576826 0.549252 0.586574 -0.302287
O64   O     O_R   0.628515 0.385584 0.535779 -0.366258
O65   O     O_3   0.551649 0.444086 0.418563 -0.656192
H33   H     H_    0.544468 0.419372 0.368250 0.331117
O66   O     O_3   0.448720 0.443974 0.580976 -0.657341
H34   H     H_    0.455878 0.419256 0.631329 0.328408
O67   O     O_3   0.051654 0.944080 0.418554 -0.656331
H35   H     H_    0.044466 0.919379 0.368240 0.330814
O68   O     O_3   0.948728 0.943981 0.580968 -0.658473
H36   H     H_    0.955889 0.919271 0.631322 0.325972
O69   O     O_3   0.620390 0.848479 0.424583 -0.643313
H37   H     H_    0.620933 0.863745 0.372366 0.333485
O70   O     O_3   0.379502 0.848463 0.575547 -0.644170
H38   H     H_    0.379113 0.864008 0.627707 0.329445
O71   O     O_3   0.120390 0.348475 0.424586 -0.643395
H39   H     H_    0.120932 0.363740 0.372369 0.333275
O72   O     O_3   0.879502 0.348466 0.575549 -0.644496
H40   H     H_    0.879112 0.364014 0.627708 0.328780
O73   O     O_3   0.820755 0.149978 0.537487 -0.607826
H41   H     H_    0.851847 0.103851 0.569229 0.410837
O74   O     O_3   0.179903 0.150435 0.462168 -0.609350
H42   H     H_    0.148451 0.104210 0.430842 0.411471
O75   O     O_3   0.320756 0.649976 0.537487 -0.607965
H43   H     H_    0.351847 0.603849 0.569230 0.411116
O76   O     O_3   0.679904 0.650435 0.462163 -0.609366
H44   H     H_    0.648446 0.604203 0.430847 0.411457
O77   O     O_3   0.575910 0.959927 0.944634 -0.672051
H45   H     H_    0.575323 0.891116 0.978363 0.322888
O78   O     O_3   0.564650 0.983807 0.094809 -0.682820
H46   H     H_    0.538429 0.907799 0.085886 0.312484
O79   O     O_3   0.057252 0.447582 0.942904 -0.679478
H47   H     H_    0.053452 0.379815 0.977330 0.313043
O80   O     O_3   0.059189 0.476377 0.092352 -0.690242
H48   H     H_    0.027577 0.405499 0.087268 0.311912

loop_
_geom_bond_atom_site_label_1
_geom_bond_atom_site_label_2
_geom_bond_distance
_ccdc_geom_bond_type
C18   O42   1.274904 A    
Cr11  O51   1.988659 S    
C75   H15   1.083548 S    
O4    C12   1.313505 A    
C57   C61   1.415096 A    
C37   C38   1.541130 S    
O39   C19   1.287453 A    
O20   Cr12  2.085340 S    
O5    Cr1   1.953741 S    
N1    O57   1.300138 A    
C44   C64   1.414323 A    
C16   C85   1.432736 S    
C45   O69   1.378690 S    
C31   C32   1.353179 A    
C42   H6    1.082480 S    
O8    Cr4   1.956366 S    
C60   C64   1.414891 A    
C90   C94   1.385446 A    
O26   C22   1.269758 A    
C33   C34   1.391124 A    
C94   H26   1.083464 S    
C18   C69   1.436863 S    
C43   C63   1.414504 A    
O27   Cr3   2.074827 S    
O65   H33   0.992382 S    
O7    C3    1.285981 A    
C47   O71   1.378691 S    
C29   C30   1.353180 A    
C4    O12   1.286154 A    
C77   O53   1.381876 S    
C80   C84   1.386411 A    
C43   C47   1.407967 A    
O78   H46   0.991526 S    
C55   C59   1.397920 A    
O25   C21   1.249747 A    
C78   C98   1.403886 A    
O30   C14   1.271256 A    
C93   H25   1.083782 S    
C54   H10   1.079914 S    
O80   H48   0.991828 S    
C68   O80   1.379106 S    
O21   C9    1.307183 A    
C28   C32   1.376466 A    
C1    C52   1.501797 S    
O23   Cr11  1.925860 S    
C14   C87   1.449289 S    
C41   C61   1.414507 A    
O79   H47   0.987987 S    
C46   C50   1.411986 A    
C77   C81   1.382363 A    
O32   Cr4   1.944061 S    
C73   H13   1.082505 S    
C59   O75   1.363612 S    
O44   Cr12  2.039948 S    
C1    O9    1.287188 A    
C37   N3    1.440359 S    
C11   C63   1.500140 S    
C49   C53   1.395171 A    
C70   C74   1.390225 A    
C3    O11   1.287193 A    
O28   Cr4   2.077248 S    
O11   Cr7   2.049332 S    
C4    C49   1.502287 S    
C76   H16   1.083698 S    
C9    C61   1.500158 S    
O76   H44   0.987863 S    
C96   C100  1.408769 A    
O6    Cr2   1.956366 S    
C20   C71   1.439661 S    
C7    O19   1.258635 A    
C27   C36   1.413510 A    
C83   C87   1.396425 A    
O75   H43   0.987799 S    
Cr4   O52   1.979484 S    
C26   C33   1.413829 A    
O47   C23   1.289543 A    
O2    Cr2   2.060494 S    
C41   H5    1.082480 S    
C52   C56   1.395035 A    
C81   C85   1.383066 A    
C19   C72   1.449066 S    
O2    C10   1.313505 A    
C60   O76   1.363420 S    
O42   Cr10  2.039948 S    
C89   C93   1.381463 A    
O56   H32   0.989941 S    
O18   Cr10  2.085340 S    
C74   H14   1.082667 S    
C82   H18   1.083327 S    
C17   C70   1.443175 S    
C96   H28   1.083674 S    
N1    O58   1.301055 A    
C66   C69   1.394276 A    
C42   C46   1.407702 A    
C67   C72   1.424267 A    
C65   C66   1.394193 A    
C93   C97   1.391096 A    
C68   C71   1.394082 A    
O8    C4    1.285475 A    
O34   Cr6   2.078995 S    
C54   C58   1.397895 A    
Cr7   O51   1.991131 S    
C31   C39   1.485606 S    
O29   C13   1.276147 A    
C26   C30   1.376456 A    
C80   O56   1.381865 S    
C57   O73   1.363611 S    
C5    C26   1.437365 S    
O31   Cr3   1.947154 S    
C66   O78   1.378965 S    
O24   Cr12  1.923593 S    
O9    Cr5   2.049332 S    
C36   H4    1.082554 S    
O30   Cr2   1.944061 S    
O22   C10   1.307809 A    
O1    C9    1.312832 A    
N3    O61   1.300137 A    
O48   Cr12  1.963835 S    
C79   C99   1.416713 A    
C84   H20   1.083298 S    
C80   C100  1.398950 A    
O70   H38   0.990775 S    
C2    C51   1.502296 S    
C2    O10   1.286157 A    
C37   O65   1.404892 S    
O68   H36   0.992381 S    
C44   C48   1.407706 A    
O16   Cr8   1.961368 S    
C38   N4    1.440329 S    
O7    Cr3   1.953741 S    
O67   H35   0.992391 S    
Cr10  O50   1.991050 S    
C87   C91   1.403930 A    
C10   C62   1.499672 S    
O13   C5    1.285325 A    
O40   C20   1.271141 A    
C48   C52   1.411982 A    
O48   C24   1.269371 A    
O12   Cr8   2.052722 S    
Cr12  O52   1.991050 S    
C50   C54   1.395031 A    
O15   C7    1.285325 A    
O66   H34   0.992381 S    
C39   N1    1.440369 S    
C40   O68   1.404892 S    
O5    C1    1.285984 A    
O73   H41   0.987800 S    
C95   H27   1.081332 S    
O46   Cr10  1.963835 S    
O69   H37   0.990766 S    
O39   Cr7   1.928331 S    
O3    C11   1.312826 A    
C92   H24   1.083570 S    
O45   Cr9   1.963635 S    
O72   H40   0.990775 S    
C82   C86   1.403228 A    
C13   O33   1.259161 A    
C83   H19   1.083370 S    
C75   C76   1.379789 A    
C24   C100  1.443099 S    
C67   O79   1.383500 S    
O71   H39   0.990764 S    
C58   O74   1.363422 S    
Cr2   O50   1.979484 S    
O15   Cr7   1.961773 S    
C12   C64   1.499671 S    
O35   Cr7   2.079678 S    
Cr1   O49   1.979431 S    
C48   O72   1.378645 S    
C65   C70   1.421528 A    
C39   O67   1.404891 S    
C42   C62   1.414323 A    
Cr3   O51   1.979431 S    
O14   Cr6   1.961368 S    
O74   H42   0.987858 S    
N2    O60   1.301053 A    
O21   Cr9   1.925860 S    
N4    O63   1.300122 A    
N4    O64   1.301051 A    
C32   C40   1.485470 S    
C53   H9    1.079874 S    
C91   H23   1.083181 S    
O37   Cr5   1.928331 S    
C79   C83   1.379836 A    
C41   C45   1.407970 A    
C3    C50   1.501804 S    
C29   C37   1.485610 S    
C8    C27   1.437228 S    
C40   N2    1.440328 S    
C51   C55   1.395170 A    
C44   H8    1.082480 S    
C15   C86   1.443723 S    
O47   Cr11  1.963635 S    
O3    Cr3   2.064028 S    
C22   C98   1.448863 S    
C8    O20   1.259043 A    
C91   C95   1.389600 A    
O38   C18   1.269962 A    
C53   C57   1.397924 A    
C92   C96   1.385564 A    
C5    O17   1.258631 A    
C56   H12   1.079914 S    
C65   O77   1.382266 S    
O22   Cr10  1.923593 S    
O28   C24   1.269725 A    
C46   O70   1.378644 S    
O14   C6    1.285092 A    
C19   O43   1.256000 A    
C90   H22   1.083506 S    
C72   C76   1.393580 A    
C21   C97   1.443440 S    
O17   Cr9   2.085194 S    
O37   C17   1.284172 A    
C58   C62   1.414898 A    
C15   O35   1.261435 A    
O77   H45   0.986683 S    
O24   C12   1.307804 A    
C17   O41   1.255459 A    
C95   C99   1.397240 A    
C86   C90   1.394822 A    
C47   C51   1.412080 A    
C35   H3    1.082542 S    
C14   O34   1.266051 A    
O25   Cr1   2.074827 S    
C78   O54   1.383051 S    
C34   H2    1.082554 S    
C35   C36   1.391120 A    
C25   C34   1.413510 A    
C20   O44   1.275654 A    
C59   C63   1.415091 A    
O1    Cr1   2.064028 S    
O33   Cr5   2.079678 S    
C55   H11   1.079873 S    
C56   C60   1.397895 A    
O40   Cr8   1.931233 S    
C33   H1    1.082541 S    
C13   C88   1.439772 S    
Cr8   O52   1.988758 S    
O32   C16   1.259156 A    
O41   Cr9   2.041730 S    
C73   C74   1.377146 A    
O13   Cr5   1.961773 S    
Cr6   O50   1.988758 S    
O46   C22   1.273638 A    
Cr5   O49   1.991131 S    
O45   C21   1.283632 A    
C71   C75   1.403568 A    
O19   Cr11  2.085194 S    
C6    C25   1.437236 S    
O26   Cr2   2.077248 S    
O23   C11   1.307179 A    
O10   Cr6   2.052722 S    
C25   C29   1.376720 A    
O55   H31   0.991936 S    
C77   C97   1.422335 A    
O4    Cr4   2.060494 S    
C84   C88   1.404273 A    
O6    C2    1.285470 A    
C78   C82   1.386137 A    
O29   Cr1   1.947154 S    
O54   H30   0.990835 S    
C88   C92   1.391082 A    
C38   O66   1.404897 S    
C16   O36   1.271155 A    
C69   C73   1.403161 A    
N2    O59   1.300121 A    
C30   C38   1.485463 S    
C27   C31   1.376711 A    
Cr9   O49   1.988659 S    
O53   H29   0.991503 S    
C6    O18   1.259049 A    
C79   O55   1.385836 S    
O43   Cr11  2.041730 S    
C39   C40   1.541125 S    
N3    O62   1.301058 A    
C85   C89   1.406338 A    
C7    C28   1.437365 S    
C43   H7    1.082482 S    
C45   C49   1.412078 A    
C94   C98   1.407361 A    
C23   C99   1.457250 S    
C89   H21   1.083526 S    
O36   Cr8   2.078995 S    
O31   C15   1.273925 A    
O16   C8    1.285092 A    
C81   H17   1.084760 S    
C67   C68   1.391731 A    
C28   C35   1.413827 A    
O38   Cr6   1.931233 S    
O27   C23   1.257446 A    
