data_mof_unit_3419.cif
_audit_creation_date              2012-12-11T14:36:27-0500
_audit_creation_method            fapswitch 2.2
_symmetry_space_group_name_H-M    P1
_symmetry_Int_Tables_number       1
_space_group_crystal_system       triclinic
_cell_length_a                    13.554675
_cell_length_b                    13.538719
_cell_length_c                    27.471686
_cell_angle_alpha                 90.313561
_cell_angle_beta                  89.952427
_cell_angle_gamma                 59.824225
_cell_volume                      4358.13257316

loop_
_atom_site_label
_atom_site_type_symbol
_atom_type_description
_atom_site_fract_x
_atom_site_fract_y
_atom_site_fract_z
_atom_type_partial_charge
C1    C     C_R   0.619334 0.100261 0.570532 0.546863
C2    C     C_1   0.643640 0.717256 0.660131 -0.039134
C3    C     C_3   0.846510 0.796864 0.126888 -0.459310
C4    C     C_3   0.225700 0.302294 0.125383 -0.270578
C5    C     C_3   0.354362 0.237404 0.134625 -0.447133
C6    C     C_3   0.375007 0.461449 0.212660 -0.291148
C7    C     C_3   0.399422 0.558647 0.207649 -0.438116
C8    C     C_3   0.102280 0.135698 0.741012 -0.113579
C9    C     C_R   0.599008 0.780675 0.568977 0.549027
C10   C     C_3   0.189952 0.054382 0.778746 -0.115889
C11   C     C_1   0.104592 0.197375 0.903599 -0.016484
C12   C     C_1   0.238043 0.133838 0.619390 -0.005628
C13   C     C_3   0.078521 0.239782 0.773206 -0.111954
C14   C     C_3   0.166359 0.158320 0.810146 0.041339
C15   C     C_3   0.174154 0.249010 0.746765 -0.086733
C16   C     C_3   0.197523 0.145258 0.715195 0.059659
C17   C     C_1   0.627513 0.739087 0.617542 -0.003508
C18   C     C_3   0.261782 0.167825 0.784490 -0.079189
C19   C     C_3   0.285954 0.063529 0.752099 -0.081470
C20   C     C_1   0.138600 0.174567 0.862213 -0.061630
C21   C     C_R   0.279626 0.120925 0.570252 0.544389
C22   C     C_1   0.215760 0.139925 0.662264 -0.042119
C23   C     C_3   0.598919 0.273628 0.740983 -0.124580
C24   C     C_3   0.542879 0.238399 0.781730 -0.116450
C25   C     C_1   0.689933 0.207653 0.903626 -0.014125
C26   C     C_1   0.630357 0.127961 0.619713 0.001526
C27   C     C_3   0.712265 0.216975 0.769555 0.031133
C28   C     C_3   0.641711 0.602528 0.771688 -0.118121
C29   C     C_3   0.657040 0.182163 0.809822 -0.004817
C30   C     C_3   0.752506 0.101849 0.743280 -0.111962
C31   C     C_3   0.639449 0.158498 0.715031 0.084642
C32   C     C_3   0.696894 0.066530 0.783954 -0.085632
C33   C     C_R   0.622074 0.100793 0.431450 0.567164
C34   C     C_3   0.584674 0.123843 0.754970 0.297147
C35   C     C_1   0.671435 0.195414 0.861815 -0.061650
C36   C     C_1   0.634586 0.144108 0.662536 -0.011543
C37   C     C_R   0.727096 0.718489 0.355600 -0.128999
C38   C     C_R   0.737497 0.707929 0.304799 0.017093
C39   C     C_3   0.674315 0.669242 0.807608 0.020581
C40   C     C_R   0.756189 0.688395 0.202184 0.042507
C41   C     C_R   0.848182 0.675626 0.230938 -0.127635
C42   C     C_R   0.838482 0.686066 0.281556 -0.113446
C43   C     C_R   0.764975 0.672482 0.150876 0.016549
C44   C     C_R   0.680149 0.657397 0.126962 -0.003177
C45   C     C_R   0.599590 0.780309 0.428978 0.543658
C46   C     C_R   0.535830 0.746881 0.350125 -0.093499
C47   C     C_R   0.542095 0.743117 0.299565 0.052794
C48   C     C_R   0.644189 0.721979 0.276671 0.015467
C49   C     C_R   0.446792 0.763307 0.271672 0.234291
C50   C     C_3   0.558207 0.716487 0.746470 -0.129956
C51   C     C_R   0.455237 0.759724 0.220834 -0.129583
C52   C     C_R   0.559275 0.727904 0.198179 -0.026441
C53   C     C_R   0.653281 0.713135 0.225674 0.033114
C54   C     C_R   0.573516 0.699187 0.149135 -0.144827
C55   C     C_R   0.625488 0.739666 0.378358 -0.026711
C56   C     C_R   0.187449 0.075306 0.361938 -0.122001
C57   C     C_R   0.277488 0.121799 0.431169 0.541819
C58   C     C_R   0.157826 0.089499 0.312595 0.029593
C59   C     C_R   0.120825 0.105340 0.211373 0.007653
C60   C     C_R   0.112049 0.022480 0.239057 -0.130196
C61   C     C_3   0.656169 0.699715 0.712644 0.054487
C62   C     C_R   0.129513 0.015485 0.289164 -0.102913
C63   C     C_R   0.097898 0.117829 0.161137 0.212689
C64   C     C_R   0.112487 0.199230 0.134321 0.032300
C65   C     C_R   0.208117 0.243200 0.358691 -0.127684
C66   C     C_R   0.187132 0.253100 0.309157 0.012191
C67   C     C_R   0.163623 0.174986 0.285554 0.064420
C68   C     C_R   0.195900 0.336055 0.282598 -0.137676
C69   C     C_3   0.739626 0.586782 0.737374 -0.148980
C70   C     C_R   0.188252 0.337348 0.232226 -0.121854
C71   C     C_R   0.168439 0.257799 0.207516 0.021915
C72   C     C_3   0.590720 0.783206 0.783138 -0.050838
C73   C     C_R   0.149486 0.180315 0.234776 0.011145
C74   C     C_R   0.165372 0.254979 0.156306 -0.028389
C75   C     C_R   0.217653 0.149260 0.384461 -0.008401
C76   C     C_R   0.552854 0.236880 0.361423 0.227744
C77   C     C_R   0.558246 0.251333 0.310794 0.000529
C78   C     C_R   0.568993 0.275388 0.209053 0.032029
C79   C     C_R   0.474523 0.358780 0.236031 0.013357
C80   C     C_R   0.471787 0.346990 0.286542 -0.108405
C81   C     C_3   0.772903 0.652633 0.774077 -0.104153
C82   C     C_R   0.584015 0.289738 0.159390 -0.144293
C83   C     C_3   0.688431 0.764542 0.748727 0.279427
C84   C     C_R   0.680254 0.206809 0.134431 -0.009902
C85   C     C_R   0.737097 0.061040 0.357435 -0.147181
C86   C     C_R   0.742106 0.071713 0.307397 0.043495
C87   C     C_R   0.651449 0.166687 0.283773 -0.023075
C88   C     C_R   0.834741 0.986633 0.280574 0.251197
C89   C     C_R   0.835933 0.996860 0.230082 -0.129895
C90   C     C_R   0.747562 0.091123 0.206634 -0.020316
C91   C     C_R   0.655306 0.177523 0.233147 0.039512
C92   C     C_R   0.755101 0.103399 0.157155 -0.136050
C93   C     C_1   0.694837 0.613774 0.901313 -0.015300
C94   C     C_1   0.684461 0.644298 0.859655 -0.058918
C95   C     C_R   0.640782 0.138362 0.384029 0.011136
C96   C     C_R   0.050247 0.235774 0.950194 0.540688
C97   C     C_R   0.711195 0.563741 0.948485 0.542318
C98   C     C_R   0.722112 0.225650 0.951045 0.540017
C99   C     C_R   0.049884 0.242935 0.088076 0.556631
C100  C     C_R   0.706494 0.579314 0.084841 0.539508
C101  C     C_R   0.718201 0.232692 0.088850 0.542773
C102  C     C_3   0.789733 0.267807 0.773445 -0.272012
C103  C     C_3   0.809704 0.300484 0.722674 -0.447972
C104  C     C_3   0.858046 0.678875 0.122164 -0.263940
Cr1   Cr    Cr6+3 0.417550 0.169090 0.500530 1.067147
Cr2   Cr    Cr6+3 0.669180 0.913420 0.499920 1.033092
Cr3   Cr    Cr6+3 0.413260 0.917540 0.499520 1.035620
Cr4   Cr    Cr6+3 0.909170 0.177380 0.020380 1.058863
Cr5   Cr    Cr6+3 0.912710 0.429210 0.018220 1.004146
Cr6   Cr    Cr6+3 0.657170 0.432570 0.019030 1.019164
H1    H     H_    0.860595 0.628117 0.785821 0.104423
H2    H     H_    0.796074 0.714270 0.377150 0.133936
H3    H     H_    0.929510 0.654139 0.214946 0.105569
H4    H     H_    0.910813 0.675261 0.302598 0.132394
H5    H     H_    0.504540 0.698085 0.129598 0.134458
H6    H     H_    0.382203 0.775583 0.199019 0.102976
H7    H     H_    0.456808 0.764357 0.367457 0.199916
H8    H     H_    0.192647 0.003995 0.381912 0.137261
H9    H     H_    0.094016 0.960711 0.222426 0.111960
H10   H     H_    0.123056 0.950543 0.309466 0.156713
H11   H     H_    0.195899 0.402317 0.212939 0.102865
H12   H     H_    0.325542 0.182404 0.803526 0.113387
H13   H     H_    0.212649 0.397514 0.300630 0.094008
H14   H     H_    0.227873 0.303304 0.375969 0.134597
H15   H     H_    0.525979 0.367301 0.140516 0.126218
H16   H     H_    0.401371 0.414804 0.306571 0.124872
H17   H     H_    0.827418 0.036317 0.137493 0.136835
H18   H     H_    0.530889 0.863282 0.802679 0.091488
H19   H     H_    0.908092 0.933017 0.209268 0.072801
H20   H     H_    0.804837 0.986762 0.375330 0.198851
H21   H     H_    0.470328 0.742136 0.734558 0.106231
H22   H     H_    0.620098 0.536420 0.781729 0.115056
H23   H     H_    0.167163 0.329287 0.733090 0.109361
H24   H     H_    0.196859 0.974237 0.792537 0.107008
H25   H     H_    0.038976 0.119787 0.722453 0.107536
H26   H     H_    0.370828 0.990050 0.742364 0.140508
H27   H     H_    0.513713 0.040947 0.776820 0.312132
H28   H     H_    0.838595 0.227731 0.696797 0.149494
H29   H     H_    0.729967 0.374025 0.708600 0.150336
H30   H     H_    0.876388 0.324224 0.723779 0.131614
H31   H     H_    0.750048 0.344070 0.797583 0.145936
H32   H     H_    0.872351 0.203481 0.789557 0.149837
H33   H     H_    0.761849 0.863636 0.113310 0.160795
H34   H     H_    0.994794 0.313637 0.783989 0.107831
H35   H     H_    0.855649 0.816992 0.165071 0.154950
H36   H     H_    0.913941 0.799467 0.104898 0.137656
H37   H     H_    0.943895 0.611100 0.134050 0.138185
H38   H     H_    0.852274 0.667509 0.082614 0.171970
H39   H     H_    0.293188 0.786204 0.269842 0.313950
H40   H     H_    0.000560 0.051603 0.158372 0.314395
H41   H     H_    0.781478 0.810520 0.714071 0.317372
H42   H     H_    0.374162 0.244796 0.173140 0.170338
H43   H     H_    0.390851 0.145483 0.125460 0.161892
H44   H     H_    0.396032 0.272632 0.111244 0.133442
H45   H     H_    0.456518 0.292400 0.797683 0.105086
H46   H     H_    0.216844 0.291500 0.085925 0.170768
H47   H     H_    0.189099 0.395178 0.132095 0.133631
H48   H     H_    0.390908 0.334962 0.371833 0.307339
H49   H     H_    0.417097 0.581170 0.244190 0.188094
H50   H     H_    0.474122 0.534486 0.183640 0.162986
H51   H     H_    0.323670 0.634051 0.192024 0.125163
H52   H     H_    0.353797 0.439334 0.176731 0.134378
H53   H     H_    0.297171 0.492715 0.235553 0.130561
H54   H     H_    0.980083 0.843211 0.279996 0.311366
H55   H     H_    0.558699 0.358476 0.723202 0.106791
H56   H     H_    0.735317 0.982251 0.802131 0.144195
H57   H     H_    0.838599 0.046374 0.727293 0.106154
H58   H     H_    0.801700 0.510601 0.716594 0.106328
O1    O     O_R   0.301710 0.195650 0.554160 -0.504876
O2    O     O_R   0.635520 0.542770 0.964420 -0.507730
O3    O     O_R   0.665950 0.325030 0.970100 -0.497644
O4    O     O_R   0.522390 0.158990 0.550460 -0.492798
O5    O     O_R   0.816620 0.158530 0.074540 -0.504843
O6    O     O_R   0.004460 0.188870 0.069750 -0.430381
O7    O     O_R   0.025800 0.341780 0.072300 -0.539880
O8    O     O_R   0.807650 0.528950 0.067500 -0.508028
O9    O     O_R   0.633420 0.550490 0.071810 -0.517901
O10   O     O_R   0.664000 0.332180 0.069640 -0.502216
O11   O     O_3   0.826350 0.346390 0.019210 -0.248510
O12   O     O_R   0.658900 0.818120 0.449760 -0.498826
O13   O     O_R   0.694390 0.003530 0.554040 -0.507192
O14   O     O_R   0.657700 0.819660 0.549320 -0.493003
O15   O     O_R   0.501930 0.803280 0.552920 -0.504074
O16   O     O_R   0.318170 0.023580 0.549580 -0.495804
O17   O     O_R   0.303010 0.193990 0.446760 -0.512513
O18   O     O_R   0.523600 0.157450 0.450900 -0.436655
O19   O     O_R   0.695690 0.001860 0.446640 -0.536002
O20   O     O_3   0.517296 0.074989 0.745535 -0.669972
O21   O     O_3   0.347807 0.782923 0.294659 -0.734222
O22   O     O_3   0.059808 0.052804 0.137698 -0.685048
O23   O     O_R   0.503220 0.801620 0.445520 -0.517832
O24   O     O_3   0.713258 0.849116 0.735431 -0.690420
O25   O     O_3   0.462175 0.315706 0.389266 -0.676509
O26   O     O_3   0.922658 0.894595 0.304260 -0.734138
O27   O     O_R   0.319370 0.022040 0.450020 -0.500673
O28   O     O_3   0.499990 0.000010 0.499990 -0.260112
O29   O     O_R   0.818720 0.150820 0.967160 -0.510258
O30   O     O_R   0.006410 0.181720 0.970200 -0.495932
O31   O     O_R   0.027890 0.334070 0.964920 -0.512407
O32   O     O_R   0.809600 0.521790 0.967960 -0.498244

loop_
_geom_bond_atom_site_label_1
_geom_bond_atom_site_label_2
_ccdc_geom_bond_type
C11   C96   S    
C3    C104  S    
C96   O31   A    
C66   C68   A    
C58   C62   A    
C93   C94   T    
Cr6   O9    S    
Cr1   O4    S    
C32   H56   S    
C15   C18   S    
C85   C95   A    
C41   C42   A    
C14   C18   S    
C101  O5    A    
C28   C69   S    
C104  H37   S    
C77   C87   A    
Cr3   O27   S    
C6    C79   S    
C21   O16   A    
Cr2   O13   S    
C85   C86   A    
C96   O30   A    
C7    H51   S    
C8    C13   S    
C5    H42   S    
Cr1   O1    S    
C72   H18   S    
C45   O23   A    
C30   H57   S    
C38   C42   A    
C29   C32   S    
C87   C91   A    
C76   C95   A    
C2    C17   T    
C30   C31   S    
H54   O26   S    
C13   H34   S    
C49   O21   S    
Cr6   O10   S    
C15   C16   S    
C21   O1    A    
C12   C22   T    
C26   C36   T    
C89   H19   S    
C27   C29   S    
C60   H9    S    
C60   C62   A    
C18   C19   S    
C65   H14   S    
Cr1   O17   S    
Cr4   O29   S    
C50   C72   S    
C43   C104  S    
Cr2   O14   S    
C37   H2    S    
C101  O10   A    
C45   O12   A    
C23   H55   S    
C28   C50   S    
C42   H4    S    
C64   C99   S    
C81   H1    S    
C49   C51   A    
Cr4   O6    S    
C46   C55   A    
C100  O8    A    
C82   H15   S    
C39   C72   S    
C33   O18   A    
C67   C73   A    
C102  H31   S    
C23   C27   S    
C80   H16   S    
C59   C73   A    
C104  H38   S    
C4    C74   S    
C2    C61   S    
H27   O20   S    
Cr6   O3    S    
C66   C67   A    
C59   C60   A    
C8    C16   S    
C56   C75   A    
C6    H52   S    
C13   C14   S    
C54   H5    S    
C8    H25   S    
C84   C101  S    
C97   O32   A    
C9    O14   A    
C56   H8    S    
C100  O9    A    
C33   C95   S    
C68   H13   S    
Cr2   O12   S    
Cr3   O28   S    
C81   C83   S    
C52   C54   A    
C57   O17   A    
C40   C43   A    
C48   C53   A    
C7    H49   S    
C11   C20   T    
Cr5   O8    S    
H48   O25   S    
C51   C52   A    
C88   O26   S    
C83   O24   S    
C3    H33   S    
C76   C77   A    
C39   C81   S    
C47   C49   A    
C61   C83   S    
C103  H28   S    
C71   C73   A    
C1    O13   A    
C86   C87   A    
Cr2   O28   S    
C7    H50   S    
C28   C39   S    
C19   H26   S    
C12   C21   S    
C4    H47   S    
C24   C34   S    
C97   O2    A    
C79   C80   A    
C46   H7    S    
Cr3   O15   S    
Cr5   O11   S    
C28   H22   S    
C32   C34   S    
Cr1   O18   S    
C43   C44   A    
C39   C94   S    
C37   C38   A    
C9    O15   A    
C103  H29   S    
C85   H20   S    
H40   O22   S    
C78   C82   A    
C90   C92   A    
C47   C48   A    
C10   C19   S    
C23   C24   S    
Cr4   O5    S    
Cr5   O7    S    
C31   C34   S    
C33   O19   A    
C6    H53   S    
C34   O20   S    
C45   C55   S    
C70   C71   A    
C18   H12   S    
C98   O3    A    
Cr6   O2    S    
C9    C17   S    
C40   C41   A    
C4    H46   S    
C25   C35   T    
C3    H35   S    
C82   C84   A    
C13   C15   S    
C10   C14   S    
C1    C26   S    
C59   C63   A    
Cr5   O31   S    
C92   H17   S    
C93   C97   S    
C52   C53   A    
C14   C20   S    
C61   C69   S    
C50   C61   S    
C46   C47   A    
H41   O24   S    
C16   C22   S    
C27   C102  S    
C98   O29   A    
C78   C79   A    
C38   C48   A    
C10   H24   S    
C41   H3    S    
C4    C5    S    
C50   H21   S    
Cr2   O19   S    
C71   C74   A    
C24   H45   S    
C6    C7    S    
C15   H23   S    
C78   C91   A    
C63   O22   S    
C102  H32   S    
C29   C35   S    
C1    O4    A    
H39   O21   S    
C51   H6    S    
C65   C75   A    
Cr3   O16   S    
C57   C75   S    
Cr1   O28   S    
C62   H10   S    
C103  H30   S    
C30   C32   S    
C44   C100  S    
C70   H11   S    
C90   C91   A    
C99   O6    A    
C77   C80   A    
Cr6   O11   S    
C16   C19   S    
C5    H43   S    
C56   C58   A    
C86   C88   A    
Cr4   O30   S    
C102  C103  S    
C69   H58   S    
C72   C83   S    
C69   C81   S    
C76   O25   S    
C40   C53   A    
C63   C64   A    
C37   C55   A    
C57   O27   A    
C44   C54   A    
C58   C67   A    
C24   C29   S    
C99   O7    A    
C88   C89   A    
Cr4   O11   S    
C3    H36   S    
C8    C10   S    
C65   C66   A    
C25   C98   S    
Cr3   O23   S    
C68   C70   A    
C64   C74   A    
C31   C36   S    
Cr5   O32   S    
C84   C92   A    
C89   C90   A    
C5    H44   S    
C23   C31   S    
C27   C30   S    
