data_mof_unit_1339.cif
_audit_creation_date              2012-12-10T20:34:55-0500
_audit_creation_method            fapswitch 2.2
_symmetry_space_group_name_H-M    P1
_symmetry_Int_Tables_number       1
_space_group_crystal_system       triclinic
_cell_length_a                    10.634504
_cell_length_b                    10.655765
_cell_length_c                    9.912523
_cell_angle_alpha                 89.977102
_cell_angle_beta                  89.609732
_cell_angle_gamma                 91.399535
_cell_volume                      1122.91365242

loop_
_atom_site_label
_atom_site_type_symbol
_atom_type_description
_atom_site_fract_x
_atom_site_fract_y
_atom_site_fract_z
_atom_type_partial_charge
C1    C     C_R   0.498887 0.260160 0.499980 0.920027
C2    C     C_R   0.443961 0.932263 0.601171 0.066221
C3    C     C_3   0.308058 0.912186 0.633606 0.152804
C4    C     C_R   0.257608 0.498309 0.500045 0.883358
C5    C     C_3   0.297661 0.053363 0.624996 0.134734
C6    C     C_R   0.412960 0.430629 0.071760 0.081010
C7    C     C_R   0.581526 0.574743 0.071165 -0.062966
C8    C     C_R   0.582409 0.573804 0.927435 -0.059024
C9    C     C_R   0.407610 0.436474 0.929921 0.121767
C10   C     C_3   0.373183 0.300516 0.919203 0.062777
C11   C     C_3   0.397429 0.290867 0.070183 0.604477
C12   C     C_3   0.877995 0.493749 0.498887 0.126341
C13   C     C_R   0.504863 0.739341 0.500139 0.866152
C14   C     C_R   0.741877 0.497792 0.499484 0.801859
C15   C     C_3   0.069251 0.407299 0.611117 -0.351973
C16   C     C_3   0.924557 0.396645 0.605267 -0.075346
C17   C     C_3   0.073889 0.630290 0.526959 -0.412711
C18   C     C_3   0.070552 0.449916 0.360622 -0.337040
C19   C     C_3   0.120733 0.496523 0.499430 0.071107
C20   C     C_3   0.877747 0.259606 0.577556 -0.438320
C21   C     C_3   0.894303 0.173765 0.700523 -0.275286
C22   C     C_3   0.842331 0.041435 0.673400 -0.810556
C23   C     C_3   0.929647 0.626917 0.535745 -0.427455
C24   C     C_3   0.928121 0.459422 0.356398 -0.391478
C25   C     C_R   0.436802 0.060146 0.597545 -0.031472
C26   C     C_R   0.505007 0.127976 0.500715 -0.021529
C27   C     C_R   0.588905 0.067874 0.413931 -0.142586
C28   C     C_R   0.591787 0.937893 0.413849 -0.175872
C29   C     C_R   0.513353 0.871107 0.503547 -0.109710
Cl1   Cl    Cl    0.286044 0.852192 0.800515 -0.560043
Cl2   Cl    Cl    0.204873 0.099293 0.484586 -0.616591
Cl3   Cl    Cl    0.210977 0.283926 0.876293 -0.636038
Cl4   Cl    Cl    0.271103 0.233960 0.174638 -0.444887
Cl5   Cl    Cl    0.540629 0.211924 0.102225 -0.614420
H1    H     H_    0.095720 0.446540 0.711122 0.229769
H2    H     H_    0.113205 0.314495 0.601260 0.235908
H3    H     H_    0.650869 0.631384 0.872994 0.141700
H4    H     H_    0.437852 0.246311 0.854389 0.160174
H5    H     H_    0.887592 0.424104 0.706276 0.178848
H6    H     H_    0.113302 0.667571 0.623088 0.214094
H7    H     H_    0.899611 0.652376 0.639838 0.184994
H8    H     H_    0.111468 0.506538 0.275925 0.212150
H9    H     H_    0.096486 0.350576 0.345031 0.250847
H10   H     H_    0.885407 0.369375 0.320029 0.193703
H11   H     H_    0.739159 0.043333 0.657628 0.256928
H12   H     H_    0.903099 0.533269 0.282311 0.196338
H13   H     H_    0.888341 0.000824 0.582967 0.273624
H14   H     H_    0.860828 0.980376 0.761508 0.266298
H15   H     H_    0.995455 0.167437 0.725775 0.281858
H16   H     H_    0.844065 0.212887 0.789186 0.238820
H17   H     H_    0.776266 0.258763 0.552002 0.189090
H18   H     H_    0.929100 0.220149 0.489874 0.250863
H19   H     H_    0.105510 0.694696 0.444336 0.191828
H20   H     H_    0.891713 0.698515 0.466017 0.174582
H21   H     H_    0.649647 0.120897 0.345557 0.194112
H22   H     H_    0.651948 0.889943 0.342962 0.162798
H23   H     H_    0.256063 0.858349 0.554785 0.134376
H24   H     H_    0.271307 0.096865 0.721494 0.214165
H25   H     H_    0.648893 0.633574 0.124601 0.137057
N1    N     N_R   0.499150 0.499140 0.142800 -0.104581
N2    N     N_R   0.499150 0.499180 0.857150 -0.113293
O1    O     O_R   0.500020 0.316790 0.614690 -0.642980
O2    O     O_R   0.500000 0.316760 0.385350 -0.547434
O3    O     O_R   0.314800 0.500000 0.614670 -0.586791
O4    O     O_R   0.314790 0.499960 0.385330 -0.603728
O5    O     O_R   0.500000 0.683240 0.614650 -0.587065
O6    O     O_R   0.499980 0.683210 0.385310 -0.611602
O7    O     O_R   0.685210 0.500040 0.614670 -0.641088
O8    O     O_R   0.685200 0.500000 0.385330 -0.630130
Zn1   Zn    Zn3+2 0.500010 0.500020 0.653130 0.991960
Zn2   Zn    Zn3+2 0.499990 0.499980 0.346870 1.014475

loop_
_geom_bond_atom_site_label_1
_geom_bond_atom_site_label_2
_ccdc_geom_bond_type
N2    Zn1   S    
C5    C25   S    
C3    Cl1   S    
C22   H14   S    
C9    N2    A    
O3    Zn1   S    
C20   H17   S    
C9    C10   S    
C4    O3    A    
C23   H7    S    
C16   C20   S    
C8    N2    A    
C10   H4    S    
C25   C26   A    
C24   H12   S    
C1    O1    A    
C6    C9    A    
C21   H15   S    
C2    C3    S    
C28   H22   S    
C7    C8    A    
C20   H18   S    
C10   Cl3   S    
O5    Zn1   S    
C21   C22   S    
C15   C19   S    
C12   C23   S    
C26   C27   A    
C17   C23   S    
C5    Cl2   S    
C5    H24   S    
C6    C11   S    
C2    C29   A    
C18   C24   S    
C1    O2    A    
C7    H25   S    
C28   C29   A    
C17   C19   S    
C12   C14   S    
C22   H13   S    
C2    C25   A    
O6    Zn2   S    
C13   O5    A    
C18   H8    S    
C13   O6    A    
C4    O4    A    
C24   H10   S    
C14   O8    A    
C27   H21   S    
C1    C26   S    
C8    H3    S    
C13   C29   S    
C16   H5    S    
C15   C16   S    
C17   H19   S    
C7    N1    A    
C11   Cl4   S    
C22   H11   S    
C20   C21   S    
O1    Zn1   S    
C23   H20   S    
O7    Zn1   S    
C18   C19   S    
C10   C11   S    
C6    N1    A    
C15   H1    S    
C27   C28   A    
O8    Zn2   S    
C12   C24   S    
C21   H16   S    
C14   O7    A    
N1    Zn2   S    
C3    C5    S    
C15   H2    S    
O4    Zn2   S    
C4    C19   S    
C11   Cl5   S    
C12   C16   S    
O2    Zn2   S    
C3    H23   S    
C17   H6    S    
C18   H9    S    
