data_mof_unit_4783.cif
_audit_creation_date              2012-12-11T14:34:03-0500
_audit_creation_method            fapswitch 2.2
_symmetry_space_group_name_H-M    P1
_symmetry_Int_Tables_number       1
_space_group_crystal_system       triclinic
_cell_length_a                    13.829985
_cell_length_b                    13.964481
_cell_length_c                    27.369043
_cell_angle_alpha                 90.129526
_cell_angle_beta                  89.646302
_cell_angle_gamma                 119.554558
_cell_volume                      4597.90732627

loop_
_atom_site_label
_atom_site_type_symbol
_atom_type_description
_atom_site_fract_x
_atom_site_fract_y
_atom_site_fract_z
_atom_type_partial_charge
C1    C     C_R   0.233985 0.786822 0.568907 0.543516
C2    C     C_R   0.212751 0.447477 0.569035 0.544700
C3    C     C_R   0.552077 0.764946 0.569194 0.542375
C4    C     C_3   0.657149 0.733746 0.790431 -0.233636
C5    C     C_3   0.246738 0.945440 0.784420 -0.233541
C6    C     C_3   0.054678 0.311098 0.786658 -0.232319
C7    C     C_3   0.631245 0.718505 0.734867 -0.265401
C8    C     C_3   0.266708 0.924669 0.730608 -0.263878
C9    C     C_3   0.075232 0.352325 0.732869 -0.264338
C10   C     C_1   0.707849 0.862951 0.860253 -0.074577
C11   C     C_1   0.113708 0.878787 0.853180 -0.074090
C12   C     C_1   0.116623 0.232178 0.852504 -0.075056
C13   C     C_1   0.625494 0.812758 0.659384 -0.027308
C14   C     C_1   0.178035 0.815290 0.657222 -0.032003
C15   C     C_1   0.180476 0.365283 0.657474 -0.034921
C16   C     C_1   0.598711 0.794973 0.617094 0.005714
C17   C     C_1   0.199899 0.804136 0.615807 0.004622
C18   C     C_1   0.193986 0.397695 0.616061 0.004348
C19   C     C_R   0.063991 0.149900 0.095895 0.579709
C20   C     C_R   0.776391 0.883970 0.087808 0.549348
C21   C     C_R   0.115898 0.892858 0.087569 0.561257
C22   C     C_R   0.069822 0.160530 0.943226 0.539462
C23   C     C_R   0.779967 0.887239 0.950721 0.540782
C24   C     C_R   0.090970 0.929705 0.943469 0.536233
C25   C     C_R   0.643664 0.907088 0.363338 0.064116
C26   C     C_R   0.094139 0.751456 0.364097 0.066482
C27   C     C_R   0.254248 0.333782 0.367376 0.067826
C28   C     C_R   0.660490 0.918714 0.312235 0.024720
C29   C     C_R   0.078454 0.757804 0.313438 0.024855
C30   C     C_R   0.229345 0.284338 0.320305 0.026243
C31   C     C_R   0.688083 0.935435 0.209776 0.019149
C32   C     C_R   0.052640 0.770039 0.211967 0.012401
C33   C     C_R   0.186703 0.205037 0.222917 0.015342
C34   C     C_R   0.233651 0.787832 0.431229 0.567860
C35   C     C_R   0.211757 0.443329 0.431559 0.562821
C36   C     C_R   0.556551 0.767517 0.431775 0.564271
C37   C     C_R   0.685925 0.019870 0.236330 -0.143922
C38   C     C_R   0.960198 0.705493 0.241561 -0.134310
C39   C     C_R   0.278687 0.213959 0.247926 -0.133091
C40   C     C_R   0.673378 0.012310 0.287021 -0.121868
C41   C     C_R   0.972794 0.699296 0.291763 -0.108891
C42   C     C_R   0.299847 0.253011 0.295954 -0.109734
C43   C     C_R   0.712090 0.947145 0.159727 -0.142973
C44   C     C_R   0.039885 0.782103 0.162329 -0.132808
C45   C     C_R   0.170067 0.175443 0.173374 -0.133527
C46   C     C_R   0.718550 0.863146 0.134482 -0.005456
C47   C     C_R   0.132320 0.854167 0.134061 -0.005359
C48   C     C_R   0.079923 0.171971 0.148458 -0.009563
C49   C     C_R   0.630985 0.726570 0.358633 -0.131909
C50   C     C_R   0.292709 0.878505 0.352540 -0.138146
C51   C     C_R   0.083268 0.344515 0.364759 -0.134488
C52   C     C_R   0.648122 0.737355 0.308787 0.005381
C53   C     C_R   0.278524 0.884929 0.303270 0.001709
C54   C     C_R   0.058633 0.296669 0.318946 0.007839
C55   C     C_R   0.659822 0.831952 0.285106 0.044398
C56   C     C_R   0.171892 0.823292 0.283200 0.043021
C57   C     C_R   0.132895 0.269276 0.295830 0.043308
C58   C     C_R   0.647008 0.651224 0.282031 -0.123206
C59   C     C_R   0.371132 0.949853 0.273686 -0.122763
C60   C     C_R   0.963453 0.282429 0.294764 -0.112966
C61   C     C_R   0.656850 0.658170 0.231554 -0.136533
C62   C     C_R   0.358480 0.954464 0.223738 -0.132726
C63   C     C_R   0.944133 0.245772 0.246777 -0.120447
C64   C     C_R   0.670309 0.752305 0.207580 0.014905
C65   C     C_R   0.252946 0.894952 0.203147 0.015419
C66   C     C_R   0.018073 0.220235 0.222835 0.020453
C67   C     C_3   0.562209 0.851932 0.738908 -0.223364
C68   C     C_3   0.133838 0.725340 0.739633 -0.225207
C69   C     C_3   0.273072 0.400724 0.738836 -0.224455
C70   C     C_R   0.672023 0.839734 0.234144 0.068419
C71   C     C_R   0.159165 0.828554 0.232734 0.066202
C72   C     C_R   0.111902 0.230081 0.247416 0.065390
C73   C     C_R   0.688985 0.762999 0.157690 -0.129384
C74   C     C_R   0.238891 0.905836 0.153810 -0.138329
C75   C     C_R   0.001864 0.189492 0.173993 -0.124638
C76   C     C_R   0.618434 0.805416 0.385443 0.009999
C77   C     C_R   0.203244 0.808781 0.382896 0.013783
C78   C     C_R   0.183236 0.370297 0.388210 0.005183
C79   C     C_3   0.771181 0.917522 0.723136 0.194915
C80   C     C_3   0.065590 0.861585 0.715104 0.195759
C81   C     C_3   0.121266 0.204197 0.713228 0.196984
C82   C     C_3   0.789408 0.937468 0.779110 -0.190891
C83   C     C_3   0.039974 0.866344 0.770083 -0.191734
C84   C     C_3   0.113964 0.170257 0.767647 -0.191745
C85   C     C_1   0.735112 0.873358 0.902521 -0.027634
C86   C     C_1   0.103346 0.900763 0.894680 -0.021511
C87   C     C_1   0.097479 0.200409 0.894151 -0.026225
C88   C     C_3   0.647929 0.827672 0.712185 0.067415
C89   C     C_3   0.158567 0.829035 0.708807 0.064446
C90   C     C_3   0.164941 0.330910 0.708779 0.062755
C91   C     C_3   0.586503 0.868971 0.794504 -0.222922
C92   C     C_3   0.114598 0.742371 0.794235 -0.220182
C93   C     C_3   0.256097 0.361408 0.792751 -0.219658
C94   C     C_3   0.685139 0.850974 0.807445 0.038352
C95   C     C_3   0.128286 0.858363 0.801802 0.036184
C96   C     C_3   0.135102 0.268127 0.801213 0.035404
Cr1   Cr    Cr6+3 0.164410 0.584450 0.499910 1.071725
Cr2   Cr    Cr6+3 0.415550 0.579960 0.499910 1.075382
Cr3   Cr    Cr6+3 0.420040 0.835590 0.499910 1.072920
Cr4   Cr    Cr6+3 0.155170 0.075460 0.019960 1.016914
Cr5   Cr    Cr6+3 0.924540 0.079710 0.019960 1.003666
Cr6   Cr    Cr6+3 0.920290 0.844830 0.019960 1.006962
H1    H     H_    0.605831 0.953581 0.805018 0.108167
H2    H     H_    0.029826 0.678076 0.805754 0.110748
H3    H     H_    0.315293 0.331766 0.801687 0.109441
H4    H     H_    0.476976 0.780976 0.733739 0.104087
H5    H     H_    0.205950 0.710779 0.736991 0.103907
H6    H     H_    0.294472 0.488756 0.738061 0.104506
H7    H     H_    0.511091 0.810255 0.815419 0.117925
H8    H     H_    0.175144 0.732588 0.817321 0.121679
H9    H     H_    0.275030 0.431967 0.817395 0.122121
H10   H     H_    0.728508 0.720276 0.798116 0.113810
H11   H     H_    0.257561 0.029510 0.787870 0.108894
H12   H     H_    0.967003 0.244071 0.790986 0.114857
H13   H     H_    0.733143 0.023758 0.141361 0.105500
H14   H     H_    0.957244 0.742484 0.146683 0.125329
H15   H     H_    0.228507 0.158398 0.153974 0.126694
H16   H     H_    0.694578 0.092199 0.217862 0.094410
H17   H     H_    0.877831 0.660552 0.225929 0.110275
H18   H     H_    0.336131 0.193477 0.229902 0.113050
H19   H     H_    0.672176 0.079880 0.305695 0.143341
H20   H     H_    0.898901 0.648060 0.312950 0.152130
H21   H     H_    0.373770 0.260953 0.312806 0.153157
H22   H     H_    0.691422 0.696891 0.137801 0.125184
H23   H     H_    0.309785 0.961016 0.131478 0.119627
H24   H     H_    0.930085 0.183195 0.155243 0.118663
H25   H     H_    0.656240 0.591003 0.211370 0.102456
H26   H     H_    0.430739 0.005885 0.201383 0.106243
H27   H     H_    0.873466 0.241075 0.227868 0.100775
H28   H     H_    0.637070 0.577877 0.300107 0.126088
H29   H     H_    0.453349 0.997051 0.289237 0.122269
H30   H     H_    0.906167 0.303782 0.312321 0.126458
H31   H     H_    0.558689 0.923118 0.723292 0.098365
H32   H     H_    0.062618 0.648887 0.725619 0.099197
H33   H     H_    0.346745 0.400476 0.723077 0.098595
H34   H     H_    0.617287 0.650780 0.375666 0.167809
H35   H     H_    0.376806 0.923578 0.366498 0.164942
H36   H     H_    0.026063 0.367930 0.380802 0.161062
H37   H     H_    0.822291 0.879277 0.712405 0.183989
H38   H     H_    0.104219 0.948336 0.702249 0.192983
H39   H     H_    0.033462 0.164215 0.700723 0.193568
H40   H     H_    0.808851 0.022056 0.789392 0.120285
H41   H     H_    0.955284 0.800288 0.780315 0.117668
H42   H     H_    0.173911 0.141653 0.776032 0.115395
H43   H     H_    0.862524 0.929824 0.790115 0.077332
H44   H     H_    0.041600 0.944882 0.777768 0.080101
H45   H     H_    0.029445 0.100579 0.775228 0.090048
H46   H     H_    0.544270 0.651118 0.729310 0.115788
H47   H     H_    0.335302 0.904670 0.728873 0.115844
H48   H     H_    0.102330 0.441805 0.732005 0.116066
H49   H     H_    0.686143 0.692048 0.716510 0.110806
H50   H     H_    0.294949 0.001213 0.709074 0.107241
H51   H     H_    0.995982 0.309830 0.712246 0.108620
H52   H     H_    0.584184 0.670470 0.811237 0.124605
H53   H     H_    0.310440 0.942284 0.807980 0.125842
H54   H     H_    0.066632 0.379589 0.811281 0.127510
O1    O     O_R   0.137150 0.468200 0.553200 -0.505791
O2    O     O_R   0.531800 0.668950 0.553200 -0.503693
O3    O     O_R   0.331050 0.862850 0.553200 -0.502857
O4    O     O_R   0.179100 0.982980 0.967000 -0.506132
O5    O     O_R   0.017020 0.196120 0.967000 -0.484173
O6    O     O_R   0.803880 0.820900 0.967000 -0.512199
O7    O     O_R   0.173970 0.688730 0.549930 -0.494858
O8    O     O_R   0.311270 0.485240 0.549930 -0.496145
O9    O     O_R   0.514760 0.826030 0.549930 -0.493764
O10   O     O_R   0.140110 0.470540 0.446010 -0.511154
O11   O     O_R   0.529460 0.669570 0.446010 -0.503780
O12   O     O_R   0.330430 0.859890 0.446010 -0.505745
O13   O     O_R   0.176710 0.690910 0.450560 -0.467703
O14   O     O_R   0.309090 0.485800 0.450560 -0.463433
O15   O     O_R   0.514200 0.823290 0.450560 -0.467953
O16   O     O_3   0.333333 0.666667 0.499990 -0.294758
O17   O     O_R   0.176750 0.985260 0.074180 -0.528960
O18   O     O_R   0.014740 0.191490 0.074180 -0.498630
O19   O     O_R   0.808510 0.823250 0.074180 -0.517252
O20   O     O_R   0.146100 0.172630 0.068980 -0.475628
O21   O     O_R   0.827370 0.973470 0.068980 -0.518940
O22   O     O_R   0.026530 0.853900 0.068980 -0.491893
O23   O     O_3   1.000000 1.000000 0.020040 -0.285899
O24   O     O_R   0.148270 0.170520 0.969620 -0.490400
O25   O     O_R   0.829480 0.977750 0.969620 -0.520564
O26   O     O_R   0.022250 0.851730 0.969620 -0.482335
I1    I     I_    0.663833 0.044285 0.406680 -0.359458
I2    I     I_    0.955141 0.661915 0.412293 -0.345769
I3    I     I_    0.396293 0.349498 0.406050 -0.347499
O27   O     O_3   0.817930 0.015708 0.694663 -0.573569
C97   C     C_3   0.759315 0.074315 0.697402 -0.114706
H55   H     H_    0.730425 0.078522 0.734807 0.092311
H56   H     H_    0.689652 0.040017 0.671030 0.140702
H57   H     H_    0.816161 0.160283 0.685787 0.128773
O28   O     O_3   0.969213 0.806274 0.685356 -0.565591
C98   C     C_3   0.911920 0.690759 0.690202 -0.111065
H58   H     H_    0.902856 0.662293 0.728599 0.089051
H59   H     H_    0.951592 0.654368 0.667043 0.138994
H60   H     H_    0.826700 0.659003 0.675880 0.135198
O29   O     O_3   0.169463 0.157306 0.681855 -0.568807
C99   C     C_3   0.286018 0.207212 0.684922 -0.113919
H61   H     H_    0.316516 0.220373 0.723087 0.090683
H62   H     H_    0.326308 0.284323 0.663247 0.138376
H63   H     H_    0.311862 0.151853 0.667328 0.135777

loop_
_geom_bond_atom_site_label_1
_geom_bond_atom_site_label_2
_ccdc_geom_bond_type
C15   C18   T    
C79   H37   S    
C10   C85   T    
C82   C94   S    
C79   O27   S    
Cr3   O3    S    
C2    C18   S    
C33   C45   A    
C4    H52   S    
C14   C17   T    
Cr2   O14   S    
C82   H40   S    
C27   C78   A    
C92   H8    S    
C60   H30   S    
C6    C9    S    
C53   C59   A    
C50   H35   S    
C54   C60   A    
C25   C28   A    
C40   H19   S    
C59   H29   S    
C67   C88   S    
C33   C39   A    
Cr1   O16   S    
C31   C43   A    
C60   C63   A    
C8    H50   S    
C23   O25   A    
C37   C40   A    
C69   C93   S    
C80   C83   S    
C34   C77   S    
C27   I3    S    
C84   H45   S    
C20   O19   A    
Cr3   O15   S    
C10   C94   S    
C11   C86   T    
C45   H15   S    
Cr1   O10   S    
C30   C57   A    
C35   O10   A    
Cr1   O13   S    
C84   C96   S    
C80   C89   S    
C99   H62   S    
C19   O20   A    
C6    H12   S    
C97   H57   S    
C36   C76   S    
C33   C72   A    
C43   H13   S    
Cr1   O1    S    
C28   C55   A    
C31   C70   A    
C66   C72   A    
C37   H16   S    
Cr2   O2    S    
C28   C40   A    
Cr1   O7    S    
Cr4   O20   S    
C3    O2    A    
C64   C73   A    
C68   H5    S    
C32   C38   A    
C39   C42   A    
Cr2   O11   S    
C12   C87   T    
C44   C47   A    
C6    H54   S    
C92   C95   S    
C23   O6    A    
C93   H3    S    
C49   C52   A    
C58   C61   A    
C81   H39   S    
C4    H10   S    
C63   C66   A    
C9    H51   S    
C69   H33   S    
C27   C30   A    
Cr6   O23   S    
C48   C75   A    
Cr5   O18   S    
C4    C7    S    
C34   O12   A    
C79   C88   S    
C5    C95   S    
C69   H6    S    
C42   H21   S    
C32   C71   A    
C9    H48   S    
C50   C53   A    
C97   H56   S    
C24   O26   A    
O28   C98   S    
C26   C77   A    
C98   H60   S    
C1    O3    A    
C38   C41   A    
C22   O24   A    
C2    O8    A    
C67   H31   S    
C22   O5    A    
C19   C48   S    
Cr3   O16   S    
C59   C62   A    
Cr6   O19   S    
C65   C71   A    
C36   O11   A    
C65   C74   A    
C31   C37   A    
Cr6   O26   S    
C41   H20   S    
C99   H63   S    
C14   C89   S    
Cr5   O23   S    
C5    C8    S    
C83   H44   S    
Cr4   O4    S    
C5    H11   S    
C7    C88   S    
Cr6   O6    S    
C73   H22   S    
C83   C95   S    
C83   H41   S    
C67   C91   S    
C68   C89   S    
C32   C44   A    
C49   C76   A    
C61   H25   S    
C22   C87   S    
C1    O7    A    
C34   O13   A    
C52   C58   A    
C93   H9    S    
C7    H49   S    
C81   C90   S    
Cr3   O9    S    
C21   O22   A    
C81   O29   S    
C49   H34   S    
C93   C96   S    
C64   C70   A    
Cr6   O22   S    
C80   O28   S    
C4    C94   S    
C38   H17   S    
C69   C90   S    
Cr4   O24   S    
C50   C77   A    
C81   C84   S    
Cr5   O25   S    
C3    O9    A    
Cr3   O12   S    
C45   C48   A    
C11   C95   S    
C36   O15   A    
C62   C65   A    
C29   C41   A    
C1    C17   S    
C30   C42   A    
C47   C74   A    
C91   H1    S    
O29   C99   S    
C9    C90   S    
C7    H46   S    
C79   C82   S    
Cr2   O8    S    
C52   C55   A    
C67   H4    S    
C20   O21   A    
C29   C56   A    
C35   C78   S    
C6    C96   S    
C51   C54   A    
C98   H58   S    
C25   C76   A    
C75   H24   S    
Cr5   O5    S    
C8    H47   S    
C51   C78   A    
Cr2   O16   S    
C97   H55   S    
C80   H38   S    
C91   C94   S    
C62   H26   S    
C91   H7    S    
C58   H28   S    
C2    O1    A    
C66   C75   A    
C13   C88   S    
C68   H32   S    
C68   C92   S    
C63   H27   S    
C57   C72   A    
C5    H53   S    
C99   H61   S    
C43   C46   A    
C53   C56   A    
C19   O18   A    
C55   C70   A    
Cr5   O21   S    
C92   H2    S    
C74   H23   S    
C51   H36   S    
C25   I1    S    
C24   O4    A    
C21   O17   A    
C82   H43   S    
C44   H14   S    
C26   C29   A    
C23   C85   S    
C13   C16   T    
Cr4   O17   S    
C61   C64   A    
C35   O14   A    
C84   H42   S    
C12   C96   S    
C8    C89   S    
C21   C47   S    
O27   C97   S    
Cr4   O23   S    
C24   C86   S    
C46   C73   A    
C20   C46   S    
C3    C16   S    
C39   H18   S    
C56   C71   A    
C98   H59   S    
C15   C90   S    
C54   C57   A    
C26   I2    S    
