data_mof_unit_490.cif
_audit_creation_date              2013-03-05T15:41:44-0500
_audit_creation_method            fapswitch 2.2
_symmetry_space_group_name_H-M    P1
_symmetry_Int_Tables_number       1
_space_group_crystal_system       triclinic
_cell_length_a                    11.150568
_cell_length_b                    12.735356
_cell_length_c                    23.509484
_cell_angle_alpha                 90.602854
_cell_angle_beta                  97.073282
_cell_angle_gamma                 68.323386
_cell_volume                      3076.58693645

loop_
_atom_site_label
_atom_site_type_symbol
_atom_site_description
_atom_site_fract_x
_atom_site_fract_y
_atom_site_fract_z
_atom_type_partial_charge
O1    O     O_R   0.196340 0.303200 0.448500 -0.504750
O2    O     O_R   0.199310 0.519670 0.454880 -0.492551
C1    C     C_R   0.149528 0.616694 0.428874 0.542901
O3    O     O_R   0.045660 0.691380 0.441680 -0.512185
O4    O     O_R   0.811930 0.659460 0.430950 -0.502504
C2    C     C_R   0.752121 0.602564 0.403106 0.543361
O5    O     O_R   0.757900 0.507620 0.421760 -0.517262
O6    O     O_R   0.988630 0.322990 0.439840 -0.498399
C3    C     C_R   0.101093 0.282314 0.423317 0.541682
O7    O     O_R   0.196380 0.301720 0.573850 -0.503690
O8    O     O_R   0.199350 0.518300 0.571080 -0.440513
C4    C     C_R   0.154033 0.618480 0.589033 0.573760
O9    O     O_R   0.045700 0.689900 0.567030 -0.538681
O10   O     O_R   0.811960 0.658090 0.547150 -0.495678
C5    C     C_R   0.749989 0.602327 0.566026 0.548317
O11   O     O_R   0.757930 0.506140 0.547110 -0.496398
O12   O     O_R   0.988670 0.321620 0.556040 -0.498601
C6    C     C_R   0.100035 0.280008 0.585380 0.536711
Cr1   Cr    Cr6+3 0.189770 0.415650 0.511620 1.072795
Cr2   Cr    Cr6+3 0.930400 0.667320 0.496770 1.021790
Cr3   Cr    Cr6+3 0.879870 0.417010 0.491650 1.034067
O13   O     O_3   0.000020 0.499990 0.500010 -0.259690
C7    C     C_R   0.679356 0.751625 0.137414 0.047960
C8    C     C_R   0.709507 0.628625 0.341905 0.009071
C9    C     C_R   0.694784 0.547342 0.249138 -0.143449
C10   C     C_R   0.690683 0.543731 0.307537 -0.134986
C11   C     C_R   0.716898 0.724422 0.316133 -0.122659
C12   C     C_R   0.714054 0.731460 0.256727 0.007228
C13   C     C_R   0.711298 0.638867 0.223418 0.036797
C14   C     C_R   0.712441 0.644807 0.164049 0.236278
C15   C     C_R   0.688242 0.841979 0.170181 -0.178962
C16   C     C_R   0.711347 0.830013 0.229816 -0.157859
H1    H     H_    0.667660 0.924031 0.150149 0.147734
H2    H     H_    0.682049 0.479161 0.224436 0.133111
H3    H     H_    0.714442 0.901277 0.254706 0.125406
H4    H     H_    0.682131 0.469731 0.326121 0.146427
H5    H     H_    0.728562 0.791518 0.342267 0.125888
C17   C     C_1   0.235715 0.162792 0.122935 0.005092
C18   C     C_2   0.180477 0.233510 0.226450 -0.121143
C19   C     C_2   0.154548 0.166104 0.262582 -0.122625
C20   C     C_1   0.131754 0.199575 0.320385 -0.045619
C21   C     C_1   0.210157 0.197854 0.169622 -0.040438
C22   C     C_1   0.115647 0.232465 0.368241 -0.000994
H6    H     H_    0.153489 0.084408 0.249369 0.138449
H7    H     H_    0.182396 0.314852 0.239853 0.139848
C23   C     C_1   0.167670 0.749495 0.123582 0.005024
C24   C     C_2   0.142587 0.688250 0.227705 -0.121425
C25   C     C_2   0.236306 0.676318 0.271665 -0.124511
C26   C     C_1   0.217575 0.652574 0.329249 -0.045504
C27   C     C_1   0.155353 0.720257 0.170571 -0.039373
C28   C     C_1   0.193712 0.634904 0.376192 0.001515
H8    H     H_    0.325380 0.687871 0.264906 0.141823
H9    H     H_    0.053091 0.677740 0.234784 0.142763
C29   C     C_1   0.628223 0.756401 0.865005 0.046356
C30   C     C_2   0.700943 0.710585 0.761577 -0.089306
C31   C     C_2   0.613080 0.706101 0.718149 -0.105461
C32   C     C_1   0.651666 0.671214 0.662443 -0.037893
C33   C     C_1   0.664276 0.736886 0.818329 0.018367
C34   C     C_1   0.690493 0.640424 0.617102 0.008139
H10   H     H_    0.512397 0.726037 0.724621 0.149524
H11   H     H_    0.801839 0.690297 0.755207 0.148489
C35   C     C_R   0.193618 0.182154 0.855205 0.013096
C36   C     C_R   0.106296 0.239748 0.642989 0.021690
C37   C     C_R   0.037174 0.144925 0.712900 -0.121017
C38   C     C_R   0.037926 0.172390 0.655878 -0.133427
C39   C     C_R   0.167920 0.284566 0.686565 -0.111603
C40   C     C_R   0.166937 0.258532 0.743186 0.037256
C41   C     C_R   0.103481 0.186047 0.756624 0.046137
C42   C     C_R   0.114719 0.150457 0.813181 -0.112743
C43   C     C_R   0.247859 0.260884 0.842451 -0.108328
C44   C     C_R   0.233192 0.300243 0.786387 -0.120895
H12   H     H_    0.073877 0.088995 0.823418 0.161686
H13   H     H_    0.308037 0.286234 0.875180 0.144371
H14   H     H_    0.986491 0.090934 0.722711 0.149659
H15   H     H_    0.280194 0.357403 0.776373 0.130947
H16   H     H_    0.986068 0.141254 0.622054 0.120519
H17   H     H_    0.215739 0.341143 0.676390 0.150103
C45   C     C_R   0.170196 0.792189 0.839793 -0.028890
C46   C     C_R   0.211885 0.649004 0.642662 0.023175
C47   C     C_R   0.351754 0.596889 0.734083 0.216861
C48   C     C_R   0.326086 0.575131 0.675240 0.213654
C49   C     C_R   0.137742 0.751169 0.664702 -0.183263
C50   C     C_R   0.154328 0.767886 0.722208 -0.057181
C51   C     C_R   0.261889 0.691866 0.757532 0.035832
C52   C     C_R   0.272385 0.709357 0.816150 -0.140547
C53   C     C_R   0.056150 0.859677 0.803897 0.189740
C54   C     C_R   0.053952 0.851812 0.745146 -0.130616
H18   H     H_    0.358816 0.656898 0.843680 0.200448
H19   H     H_    0.967282 0.904015 0.717533 0.140295
H20   H     H_    0.054311 0.812193 0.638746 0.149695
O14   O     O_R   0.113660 0.883270 0.047820 -0.497391
O15   O     O_R   0.186930 0.068530 0.043990 -0.494104
C55   C     C_R   0.265782 0.110080 0.069430 0.543516
O16   O     O_R   0.377770 0.089040 0.054220 -0.507023
O17   O     O_R   0.562800 0.872960 0.056970 -0.517033
C56   C     C_R   0.602611 0.773994 0.080578 0.575737
O18   O     O_R   0.555390 0.700940 0.062700 -0.439526
O19   O     O_R   0.295020 0.731920 0.049950 -0.487134
C57   C     C_R   0.189624 0.787656 0.069770 0.555384
O20   O     O_R   0.094290 0.884230 0.921550 -0.436562
O21   O     O_R   0.168980 0.069410 0.926940 -0.514031
C58   C     C_R   0.240102 0.115789 0.908201 0.533487
O22   O     O_R   0.358400 0.089990 0.927950 -0.502412
O23   O     O_R   0.544850 0.873850 0.939920 -0.479727
C59   C     C_R   0.573427 0.776496 0.918102 0.539515
O24   O     O_R   0.536020 0.701900 0.936430 -0.514492
O25   O     O_R   0.277070 0.732810 0.932890 -0.506551
C60   C     C_R   0.192668 0.815306 0.900147 0.548683
Cr4   Cr    Cr6+3 0.149500 0.973980 0.985330 1.074524
Cr5   Cr    Cr6+3 0.457000 0.976510 0.994660 1.049965
Cr6   Cr    Cr6+3 0.411170 0.724270 0.995270 1.067927
O26   O     O_3   0.339220 0.891590 0.991750 -0.290494
O27   O     O_3   0.731575 0.551363 0.130638 -0.676900
H21   H     H_    0.791799 0.483471 0.153604 0.316826
N1    N     N_R   0.938477 0.928747 0.825814 0.091738
O28   O     O_R   0.883463 0.881608 0.857729 -0.303548
O29   O     O_R   0.870442 0.028886 0.802801 -0.369659
O30   O     O_3   0.455106 0.523128 0.770308 -0.720345
H22   H     H_    0.479045 0.446047 0.755441 0.339954
O31   O     O_3   0.408299 0.484002 0.649031 -0.694330
H23   H     H_    0.498480 0.466435 0.667658 0.333790

loop_
_geom_bond_atom_site_label_1
_geom_bond_atom_site_label_2
_geom_bond_distance
_ccdc_geom_bond_type
C50   C54   1.392364 A    
C23   C57   1.440017 S    
C36   C38   1.397977 A    
C55   O16   1.272700 A    
O17   C56   1.278421 A    
C8    C11   1.401581 A    
C47   C51   1.413389 A    
O4    Cr2   1.934044 S    
C31   C32   1.443256 S    
C48   O31   1.380235 S    
O8    Cr1   1.924160 S    
O21   C58   1.268640 A    
C38   H16   1.083258 S    
O22   Cr5   2.050920 S    
C37   C41   1.401822 A    
C12   C13   1.416372 A    
Cr6   O26   1.978788 S    
C17   C21   1.207480 T    
O4    C2    1.279749 A    
O18   Cr6   2.053408 S    
C6    C36   1.437689 S    
C32   C34   1.207013 T    
O21   Cr4   1.926688 S    
C5    O11   1.274477 A    
C4    C46   1.459955 S    
C7    C56   1.464633 S    
C35   C43   1.399997 A    
C45   C60   1.456319 S    
O30   H22   0.989570 S    
C15   C16   1.393444 A    
C41   C42   1.385179 A    
C26   C28   1.208792 T    
O25   C60   1.300085 A    
C15   H1    1.083039 S    
C43   C44   1.384000 A    
C18   C21   1.444213 S    
C29   C59   1.436172 S    
C9    H2    1.082377 S    
C24   H9    1.086973 S    
C45   C53   1.418300 A    
C39   C40   1.377513 A    
C36   C39   1.396956 A    
O20   Cr4   2.046987 S    
Cr3   O13   1.981667 S    
C20   C22   1.207385 T    
C5    C34   1.436486 S    
C43   H13   1.083599 S    
O23   C59   1.279395 A    
O6    Cr3   1.910079 S    
C24   C27   1.446397 S    
O24   Cr6   2.026263 S    
C9    C13   1.399641 A    
C47   O30   1.382452 S    
C3    C22   1.436740 S    
O20   C60   1.281531 A    
C40   C41   1.412911 A    
C7    C14   1.403236 A    
O10   Cr2   1.914067 S    
C12   C16   1.400173 A    
Cr1   O13   1.972304 S    
O1    C3    1.264813 A    
C51   C52   1.391209 A    
Cr4   O26   1.970772 S    
C18   C19   1.342091 D    
C46   C48   1.408267 A    
C1    C28   1.439162 S    
C53   C54   1.381649 A    
O6    C3    1.275801 A    
N1    O29   1.301293 A    
C9    C10   1.381118 A    
O5    Cr3   2.052116 S    
O1    Cr1   2.040297 S    
O16   Cr5   2.030283 S    
O12   Cr3   1.933080 S    
C31   H10   1.085665 S    
C35   C42   1.397468 A    
C53   N1    1.437087 S    
C7    C15   1.405024 A    
C42   H12   1.082736 S    
C16   H3    1.083646 S    
C13   C14   1.400442 A    
C24   C25   1.342839 D    
C25   H8    1.086616 S    
O7    Cr1   2.046978 S    
C2    C8    1.459895 S    
C56   O18   1.272263 A    
C30   C31   1.341364 D    
O12   C6    1.268565 A    
C45   C52   1.405639 A    
C10   H4    1.083255 S    
C19   C20   1.444232 S    
Cr2   O13   1.978988 S    
C49   C50   1.367010 A    
C54   H19   1.085034 S    
C50   C51   1.406864 A    
C1    O3    1.266009 A    
O31   H23   0.990154 S    
O23   Cr5   1.911540 S    
O27   H21   0.990775 S    
C29   C33   1.206918 T    
C52   H18   1.083462 S    
C39   H17   1.086079 S    
C25   C26   1.446602 S    
O19   Cr6   1.911429 S    
O9    Cr2   2.050389 S    
O2    Cr1   1.929203 S    
O25   Cr6   1.934315 S    
C8    C10   1.404729 A    
C47   C48   1.423174 A    
O17   Cr5   1.934543 S    
C46   C49   1.393396 A    
O8    C4    1.275206 A    
O11   Cr3   2.025471 S    
C2    O5    1.266941 A    
C59   O24   1.267976 A    
C23   C27   1.209001 T    
C49   H20   1.085297 S    
C18   H7    1.086609 S    
C37   C38   1.390796 A    
O14   Cr4   2.043011 S    
O2    C1    1.278409 A    
C44   H15   1.084363 S    
N1    O28   1.301747 A    
O7    C6    1.263643 A    
C30   H11   1.086672 S    
C17   C55   1.437044 S    
O15   C55   1.272135 A    
C40   C44   1.397592 A    
C58   O22   1.263219 A    
O15   Cr4   1.928862 S    
Cr5   O26   1.981071 S    
O3    Cr2   2.032794 S    
C19   H6    1.086500 S    
C4    O9    1.264291 A    
O19   C57   1.270340 A    
C30   C33   1.443328 S    
C11   C12   1.396138 A    
C37   H14   1.080681 S    
O10   C5    1.274133 A    
O14   C57   1.268909 A    
C11   H5    1.084393 S    
C35   C58   1.440409 S    
C14   O27   1.383013 S    
