data_mof_unit_4788.cif
_audit_creation_date              2012-12-10T21:28:59-0500
_audit_creation_method            fapswitch 2.2
_symmetry_space_group_name_H-M    P1
_symmetry_Int_Tables_number       1
_space_group_crystal_system       triclinic
_cell_length_a                    10.614714
_cell_length_b                    16.073789
_cell_length_c                    16.805999
_cell_angle_alpha                 87.758013
_cell_angle_beta                  90.677116
_cell_angle_gamma                 91.364626
_cell_volume                      2864.23958216

loop_
_atom_site_label
_atom_site_type_symbol
_atom_type_description
_atom_site_fract_x
_atom_site_fract_y
_atom_site_fract_z
_atom_type_partial_charge
C1    C     C_R   0.498258 0.489092 0.653030 0.865473
C2    C     C_R   0.548097 0.480660 0.902882 0.311685
C3    C     C_R   0.583710 0.413439 0.858997 -0.196987
C4    C     C_R   0.739506 0.499758 0.488787 0.930041
C5    C     C_R   0.563034 0.414820 0.777191 -0.272370
C6    C     C_R   0.442546 0.491669 0.129657 0.425321
C7    C     C_R   0.429663 0.480327 0.211814 -0.018320
C8    C     C_R   0.547468 0.537934 0.098952 0.127301
C9    C     C_R   0.514710 0.520755 0.262194 -0.141485
C10   C     C_R   0.611393 0.572902 0.231421 -0.273270
C11   C     C_R   0.628739 0.581361 0.149777 0.051057
C12   C     C_R   0.937659 0.421509 0.488864 0.017642
C13   C     C_R   0.426318 0.764303 0.471910 0.433714
C14   C     C_R   0.426475 0.851532 0.481157 0.195850
C15   C     C_R   0.528283 0.890403 0.522200 0.088508
C16   C     C_R   0.502473 0.511370 0.347340 0.933584
C17   C     C_R   0.618622 0.839503 0.560112 0.339713
C18   C     C_R   0.610844 0.752573 0.551981 -0.265693
C19   C     C_R   0.553009 0.150593 0.544480 -0.308369
C20   C     C_R   0.550443 0.237716 0.546288 -0.150248
C21   C     C_R   0.490528 0.109304 0.482504 0.221530
C22   C     C_R   0.417757 0.244748 0.431538 0.605717
C23   C     C_R   0.874302 0.497777 0.476727 -0.179840
C24   C     C_R   0.425733 0.157479 0.424297 -0.122612
C25   C     C_R   0.260088 0.500048 0.509825 0.898081
C26   C     C_R   0.887771 0.342524 0.467220 0.122931
C27   C     C_R   0.938464 0.269121 0.501783 0.066348
C28   C     C_R   0.044065 0.274332 0.552838 0.074962
C29   C     C_R   0.105134 0.351779 0.561552 -0.202912
C30   C     C_R   0.056778 0.424722 0.524369 -0.031537
C31   C     C_3   0.717207 0.854981 0.681620 0.087362
C32   C     C_3   0.622993 0.908216 0.724369 -0.349798
C33   C     C_3   0.625761 0.889424 0.814056 -0.970803
C34   C     C_R   0.940841 0.574385 0.476983 -0.015322
C35   C     C_3   0.220001 0.270572 0.377416 0.131102
C36   C     C_3   0.174319 0.249085 0.293339 -0.345774
C37   C     C_3   0.064971 0.185685 0.295030 -0.951476
C38   C     C_3   0.222625 0.888108 0.499041 0.121520
C39   C     C_3   0.130821 0.957951 0.479139 -0.394289
C40   C     C_3   0.008828 0.945958 0.525848 -0.888359
C41   C     C_3   0.350083 0.739688 0.347422 0.135226
C42   C     C_3   0.257536 0.684229 0.301964 -0.284695
C43   C     C_3   0.275912 0.694483 0.212183 -1.021780
C44   C     C_3   0.147057 0.668098 0.595086 0.148303
C45   C     C_R   0.063279 0.576705 0.505554 0.444286
C46   C     C_3   0.033454 0.707268 0.633324 -0.432164
C47   C     C_3   0.062120 0.729020 0.719304 -0.961834
C48   C     C_3   0.269993 0.512494 0.050112 0.072775
C49   C     C_3   0.191806 0.474790 0.983021 -0.298631
C50   C     C_3   0.100377 0.537568 0.946022 -0.986249
C51   C     C_R   0.125122 0.500972 0.520253 -0.286600
C52   C     C_R   0.504746 0.483232 0.739231 -0.030101
C53   C     C_R   0.462417 0.549129 0.783890 0.071423
C54   C     C_R   0.484877 0.547593 0.865241 -0.235462
H1    H     H_    0.595491 0.363609 0.743375 0.164278
H2    H     H_    0.939004 0.675505 0.401097 0.198705
H3    H     H_    0.693768 0.678293 0.080761 0.191606
H4    H     H_    0.789088 0.595336 0.086610 0.197940
H5    H     H_    0.444240 0.672282 0.758293 0.184590
H6    H     H_    0.306941 0.619177 0.774532 0.171267
H7    H     H_    0.812885 0.868146 0.706225 0.166263
H8    H     H_    0.697259 0.787513 0.694628 0.122773
H9    H     H_    0.646513 0.975267 0.712391 0.232201
H10   H     H_    0.526064 0.895373 0.701551 0.207411
H11   H     H_    0.600104 0.822934 0.827271 0.260938
H12   H     H_    0.675453 0.605224 0.271086 0.182571
H13   H     H_    0.556842 0.928826 0.843305 0.267939
H14   H     H_    0.721117 0.903138 0.838898 0.266267
H15   H     H_    0.167157 0.325177 0.395984 0.161634
H16   H     H_    0.195100 0.218783 0.420957 0.110829
H17   H     H_    0.142608 0.306507 0.260909 0.197833
H18   H     H_    0.252496 0.223449 0.259188 0.254335
H19   H     H_    0.093592 0.126575 0.325746 0.262949
H20   H     H_    0.035449 0.172273 0.233154 0.267668
H21   H     H_    0.983631 0.210728 0.326130 0.262837
H22   H     H_    0.839276 0.310318 0.355574 0.174074
H23   H     H_    0.449892 0.597956 0.899174 0.143488
H24   H     H_    0.722352 0.297461 0.422190 0.228038
H25   H     H_    0.248758 0.890711 0.563500 0.115632
H26   H     H_    0.174503 0.827388 0.488031 0.200271
H27   H     H_    0.175859 0.018684 0.493732 0.217960
H28   H     H_    0.108098 0.959319 0.414362 0.229958
H29   H     H_    0.959069 0.887544 0.509066 0.275706
H30   H     H_    0.946011 0.998932 0.511932 0.272221
H31   H     H_    0.029033 0.943295 0.590898 0.263705
H32   H     H_    0.304407 0.073292 0.377074 0.210656
H33   H     H_    0.440541 0.088912 0.326622 0.210388
H34   H     H_    0.602076 0.269427 0.592465 0.170610
H35   H     H_    0.448046 0.724752 0.330463 0.137470
H36   H     H_    0.332018 0.805813 0.329845 0.160267
H37   H     H_    0.270985 0.617947 0.320779 0.232796
H38   H     H_    0.159504 0.700675 0.316439 0.221898
H39   H     H_    0.261472 0.760176 0.191845 0.272182
H40   H     H_    0.206327 0.654168 0.181188 0.259361
H41   H     H_    0.372202 0.676042 0.196056 0.271732
H42   H     H_    0.852006 0.161412 0.539183 0.211881
H43   H     H_    0.948695 0.152740 0.460834 0.185361
H44   H     H_    0.130278 0.163828 0.549624 0.165811
H45   H     H_    0.605236 0.116410 0.590228 0.175630
H46   H     H_    0.165065 0.215885 0.631692 0.184287
H47   H     H_    0.228705 0.712425 0.598294 0.161224
H48   H     H_    0.174937 0.611061 0.630272 0.124350
H49   H     H_    0.008089 0.764868 0.598786 0.232037
H50   H     H_    0.951476 0.662990 0.632624 0.219935
H51   H     H_    0.084107 0.671884 0.755633 0.264955
H52   H     H_    0.978640 0.757953 0.744995 0.262209
H53   H     H_    0.143262 0.773823 0.721851 0.258794
H54   H     H_    0.336921 0.370186 0.220669 0.233302
H55   H     H_    0.243728 0.453947 0.225073 0.171537
H56   H     H_    0.681931 0.713242 0.579145 0.180217
H57   H     H_    0.318190 0.570350 0.026017 0.140624
H58   H     H_    0.205661 0.529120 0.098497 0.128226
H59   H     H_    0.255682 0.454275 0.936031 0.235090
H60   H     H_    0.137686 0.419435 0.006882 0.222489
H61   H     H_    0.034788 0.558635 0.991755 0.267036
H62   H     H_    0.044368 0.507988 0.898113 0.269570
H63   H     H_    0.152985 0.592326 0.919660 0.259568
H64   H     H_    0.189654 0.355135 0.598143 0.159718
H65   H     H_    0.628367 0.360420 0.888207 0.149937
H66   H     H_    0.882922 0.692293 0.492759 0.204658
N1    N     N_2   0.560738 0.474993 0.986220 -0.132264
N2    N     N_3   0.796605 0.337142 0.403660 -0.426766
N3    N     N_3   0.369810 0.118623 0.356744 -0.448734
N4    N     N_3   0.880885 0.189973 0.485271 -0.475270
N5    N     N_3   0.091498 0.200525 0.592617 -0.460884
N6    N     N_3   0.329414 0.429018 0.244239 -0.406762
N7    N     N_2   0.566215 0.544446 0.016510 -0.206468
N8    N     N_R   0.515300 0.716920 0.509720 -0.155023
N9    N     N_2   0.538556 0.978900 0.531057 -0.125430
N10   N     N_2   0.488187 0.020686 0.475594 -0.102282
N11   N     N_R   0.484690 0.283070 0.490290 -0.146054
N12   N     N_3   0.883677 0.649807 0.447333 -0.423433
N13   N     N_3   0.731011 0.632469 0.119514 -0.450817
N14   N     N_3   0.394665 0.616860 0.747177 -0.460646
O1    O     O_R   0.494530 0.422540 0.612660 -0.645131
O2    O     O_3   0.350347 0.293034 0.376464 -0.608550
O3    O     O_3   0.328998 0.898548 0.449508 -0.628788
O4    O     O_3   0.331029 0.725235 0.429841 -0.579266
O5    O     O_3   0.122905 0.653731 0.513454 -0.613863
O6    O     O_3   0.356878 0.453145 0.079458 -0.637024
O7    O     O_R   0.504350 0.561840 0.618900 -0.599991
O8    O     O_R   0.678320 0.430330 0.496880 -0.619172
O9    O     O_R   0.688140 0.569640 0.503120 -0.610132
O10   O     O_R   0.495650 0.438160 0.381100 -0.549614
O11   O     O_R   0.505470 0.577460 0.387340 -0.628710
O12   O     O_R   0.311860 0.430360 0.496880 -0.611098
O13   O     O_R   0.321680 0.569670 0.503120 -0.535366
O14   O     O_3   0.719997 0.876300 0.599103 -0.628014
Zn1   Zn    Zn3+2 0.493440 0.406980 0.495830 0.965652
Zn2   Zn    Zn3+2 0.506560 0.593020 0.504170 0.975734

loop_
_geom_bond_atom_site_label_1
_geom_bond_atom_site_label_2
_ccdc_geom_bond_type
C41   H35   S    
C37   H20   S    
C22   N11   A    
C50   H63   S    
C41   C42   S    
C40   H30   S    
C49   H59   S    
C19   C20   A    
C40   H29   S    
C30   C51   A    
C4    O9    A    
C33   H11   S    
C53   C54   A    
C52   C53   A    
C12   C23   A    
C26   C27   A    
C29   C30   A    
O8    Zn1   S    
C36   C37   S    
C16   O10   A    
C9    C16   S    
C42   H37   S    
H43   N4    S    
C11   N13   S    
C4    O8    A    
C38   C39   S    
C38   H25   S    
C45   C51   A    
C45   O5    S    
C43   H40   S    
C15   C17   A    
C50   H61   S    
C31   H7    S    
C18   N8    A    
C13   N8    A    
O9    Zn2   S    
C35   C36   S    
C35   H16   S    
C47   H51   S    
C43   H41   S    
C5    C52   A    
C25   O12   A    
C9    C10   A    
C42   H38   S    
O11   Zn2   S    
C36   H17   S    
C54   H23   S    
C47   H52   S    
C49   H60   S    
C37   H21   S    
C34   N12   S    
C13   C14   A    
C31   H8    S    
H3    N13   S    
C44   C46   S    
O7    Zn2   S    
C10   H12   S    
H4    N13   S    
C48   O6    S    
H46   N5    S    
O13   Zn2   S    
C32   H10   S    
C2    C54   A    
C39   C40   S    
C4    C23   S    
C44   H48   S    
C6    C8    A    
O1    Zn1   S    
C46   H50   S    
C24   N3    S    
C22   O2    S    
C16   O11   A    
C40   H31   S    
C25   C51   S    
O10   Zn1   S    
O12   Zn1   S    
C8    N7    S    
C31   C32   S    
C15   N9    S    
C14   O3    S    
C27   N4    S    
C23   C34   A    
C17   O14   S    
C17   C18   A    
C25   O13   A    
C34   C45   A    
C39   H27   S    
C41   O4    S    
H2    N12   S    
C3    H65   S    
C31   O14   S    
H42   N4    S    
N8    Zn2   S    
C48   C49   S    
C48   H58   S    
C44   O5    S    
C47   H53   S    
C22   C24   A    
N11   Zn1   S    
C42   C43   S    
C20   N11   A    
H6    N14   S    
H32   N3    S    
C28   N5    S    
C33   H13   S    
N9    N10   D    
C29   H64   S    
C2    N1    S    
C7    C9    A    
C37   H19   S    
C46   C47   S    
C28   C29   A    
C19   H45   S    
C12   C30   A    
H66   N12   S    
C5    H1    S    
C53   N14   S    
C18   H56   S    
C39   H28   S    
C3    C5    A    
C35   O2    S    
C44   H47   S    
N1    N7    D    
C6    C7    A    
C32   H9    S    
C26   N2    S    
C46   H49   S    
H5    N14   S    
H22   N2    S    
C13   O4    S    
C2    C3    A    
C32   C33   S    
H33   N3    S    
C38   H26   S    
C8    C11   A    
C20   H34   S    
C43   H39   S    
C38   O3    S    
C41   H36   S    
C50   H62   S    
C7    N6    S    
C6    O6    S    
H24   N2    S    
C1    C52   S    
C21   N10   S    
C1    O7    A    
C10   C11   A    
H55   N6    S    
C48   H57   S    
C35   H15   S    
C49   C50   S    
C21   C24   A    
C12   C26   A    
C27   C28   A    
C14   C15   A    
H44   N5    S    
H54   N6    S    
C1    O1    A    
C36   H18   S    
C33   H14   S    
C19   C21   A    
