data_mof_unit_287.cif
_audit_creation_date              2012-12-11T15:20:18-0500
_audit_creation_method            fapswitch 2.2
_symmetry_space_group_name_H-M    P1
_symmetry_Int_Tables_number       1
_space_group_crystal_system       triclinic
_cell_length_a                    13.120801
_cell_length_b                    13.180383
_cell_length_c                    15.40619
_cell_angle_alpha                 117.818791
_cell_angle_beta                  62.37772
_cell_angle_gamma                 98.367752
_cell_volume                      2079.2618624

loop_
_atom_site_label
_atom_site_type_symbol
_atom_type_description
_atom_site_fract_x
_atom_site_fract_y
_atom_site_fract_z
_atom_type_partial_charge
C1    C     C_R   0.995774 0.832111 0.059208 0.581256
C2    C     C_R   0.670274 0.548544 0.325675 0.065388
C3    C     C_R   0.649392 0.483313 0.952712 -0.050474
C4    C     C_R   0.080410 0.788845 0.303953 -0.054120
C5    C     C_R   0.336726 0.501704 0.938082 0.542695
C6    C     C_R   0.975977 0.178887 0.777040 0.604087
C7    C     C_R   0.187088 0.528514 0.705322 0.515656
C8    C     C_R   0.046834 0.260187 0.093093 -0.172311
C9    C     C_R   0.944808 0.175367 0.002635 0.551603
C10   C     C_R   0.282795 0.615974 0.801037 0.546971
C11   C     C_R   0.258022 0.415499 0.045706 -0.082354
C12   C     C_R   0.678943 0.477995 0.222873 -0.109811
C13   C     C_R   0.060224 0.278343 0.682278 0.473038
C14   C     C_R   0.359866 0.426978 0.966073 -0.252777
C15   C     C_R   0.061694 0.168996 0.674621 -0.175987
C16   C     C_R   0.273828 0.597888 0.710603 -0.119420
C17   C     C_R   0.997007 0.159573 0.056212 -0.046752
C18   C     C_R   0.182522 0.957101 0.378017 -0.300401
C19   C     C_R   0.187511 0.051885 0.468510 0.559083
C20   C     C_R   0.119636 0.058911 0.573828 -0.185747
C21   C     C_R   0.089670 0.955239 0.579013 0.344590
C22   C     C_R   0.068339 0.866440 0.495030 0.475412
C23   C     C_R   0.747198 0.533729 0.908570 -0.120703
C24   C     C_R   0.112576 0.869023 0.392262 -0.082002
C25   C     C_R   0.542837 0.470148 0.449540 0.416731
C26   C     C_R   0.447166 0.482810 0.545941 0.427545
C27   C     C_R   0.374820 0.586217 0.612636 -0.119651
C28   C     C_R   0.399688 0.677717 0.586363 -0.220996
C29   C     C_R   0.499285 0.667447 0.492372 0.592495
C30   C     C_R   0.568126 0.562436 0.423610 -0.259004
C31   C     C_2   0.477258 0.404246 0.942193 0.568064
C32   C     C_2   0.534820 0.498453 0.971652 0.376176
C33   C     C_2   0.795477 0.930138 0.141648 0.391329
C34   C     C_R   0.028942 0.688615 0.295421 0.545097
C35   C     C_2   0.804478 0.019067 0.227485 0.457424
C36   C     C_R   0.671268 0.430849 0.999722 0.557799
C37   C     C_R   0.100198 0.795934 0.209969 -0.028970
C38   C     C_R   0.779492 0.557142 0.317755 0.469430
C39   C     C_R   0.893537 0.746316 0.967745 -0.006132
C40   C     C_R   0.898907 0.849036 0.050811 -0.236490
H1    H     H_    0.082439 0.283241 0.149917 0.171043
H2    H     H_    0.247109 0.367134 0.089373 0.152574
H3    H     H_    0.230338 0.955024 0.298054 0.194601
H4    H     H_    0.606346 0.445538 0.208055 0.207949
H5    H     H_    0.342334 0.756347 0.638699 0.207911
H6    H     H_    0.762272 0.570404 0.854267 0.181529
H7    H     H_    0.160550 0.848960 0.177664 0.174868
H8    H     H_    0.825287 0.729077 0.944198 0.152623
N1    N     N_R   0.037310 0.720000 0.995790 -0.098475
N2    N     N_R   0.946240 0.290860 0.848040 -0.164908
N3    N     N_R   0.146140 0.501160 0.788590 -0.134067
N4    N     N_R   0.025760 0.332690 0.063610 -0.068680
N5    N     N_R   0.962690 0.280000 0.004210 -0.117249
N6    N     N_R   0.209210 0.553840 0.847990 -0.128647
N7    N     N_R   0.175110 0.482040 0.063580 -0.054994
N8    N     N_R   0.996790 0.351810 0.788620 -0.130774
N9    N     N_R   0.790790 0.446160 0.152010 -0.083258
N10   N     N_R   0.824890 0.517960 0.936420 -0.078868
N11   N     N_R   0.003210 0.648190 0.211380 -0.129544
N12   N     N_R   0.774330 0.457010 0.995840 -0.120872
N13   N     N_R   0.053760 0.709140 0.151960 -0.081609
N14   N     N_R   0.853860 0.498840 0.211410 -0.082220
N15   N     N_R   0.974240 0.667310 0.936390 -0.084557
N16   N     N_R   0.225670 0.542990 0.004160 -0.085283
Ni1   Ni    Ni4+2 0.130310 0.630310 0.999970 0.288844
Ni2   Ni    Ni4+2 0.869690 0.369690 0.000030 0.226106
Ni3   Ni    Ni4+2 0.985640 0.509470 0.863740 0.283669
Ni4   Ni    Ni4+2 0.014360 0.490530 0.136260 0.303986
O1    O     O_3   0.027838 0.911253 0.137502 -0.663276
C41   C     C_3   0.108798 0.978889 0.093904 -0.202549
H9    H     H_    0.113277 0.974503 0.018045 0.145007
H10   H     H_    0.195991 0.953018 0.075521 0.204263
H11   H     H_    0.086286 0.070183 0.157579 0.177662
O2    O     O_3   0.896074 0.099167 0.786019 -0.557386
C42   C     C_3   0.822190 0.105452 0.744445 -0.248323
H12   H     H_    0.868406 0.070579 0.653468 0.132046
H13   H     H_    0.784190 0.194909 0.782055 0.162628
H14   H     H_    0.749862 0.051799 0.763959 0.165249
Cl1   Cl    Cl    0.097025 0.556145 0.661437 -0.478251
Cl2   Cl    Cl    0.836788 0.089260 0.980050 -0.694870
Cl3   Cl    Cl    0.323356 0.748608 0.876624 -0.643018
Cl4   Cl    Cl    0.061257 0.299387 0.577489 -0.492776
Cl5   Cl    Cl    0.292856 0.147711 0.444301 -0.452612
Cl6   Cl    Cl    0.089252 0.932080 0.683513 -0.518889
O3    O     O_3   0.010531 0.776163 0.512365 -0.521084
C43   C     C_3   0.894085 0.814489 0.590722 0.062342
H15   H     H_    0.849557 0.849156 0.562453 0.045502
H16   H     H_    0.885483 0.878255 0.672900 0.173082
H17   H     H_    0.849382 0.740506 0.602255 0.224088
Cl7   Cl    Cl    0.631837 0.338809 0.361281 -0.466764
Cl8   Cl    Cl    0.420387 0.369628 0.583301 -0.444302
O4    O     O_3   0.525407 0.755641 0.462611 -0.574133
C44   C     C_3   0.565086 0.845111 0.533024 -0.112561
H18   H     H_    0.639829 0.813403 0.532300 0.122621
H19   H     H_    0.494552 0.887966 0.618474 0.126277
H20   H     H_    0.595157 0.911057 0.503027 0.200756
O5    O     O_3   0.538291 0.294991 0.873615 -0.632073
C45   C     C_3   0.466483 0.205232 0.853217 -0.148268
H21   H     H_    0.425007 0.211442 0.806979 0.172980
H22   H     H_    0.400945 0.203978 0.931059 0.130145
H23   H     H_    0.520727 0.121959 0.801153 0.148655
Cl9   Cl    Cl    0.467407 0.640753 0.067041 -0.582529
O6    O     O_3   0.687186 0.894282 0.153315 -0.582901
C46   C     C_3   0.647274 0.941191 0.108021 0.084319
H24   H     H_    0.559146 0.915177 0.120663 0.182684
H25   H     H_    0.702827 0.906764 0.017834 0.134357
H26   H     H_    0.640998 0.037055 0.149930 0.171189
Cl10  Cl    Cl    0.682649 0.097335 0.351878 -0.422963
Cl11  Cl    Cl    0.078839 0.586840 0.314854 -0.480229
O7    O     O_3   0.593110 0.369922 0.050917 -0.651533
C47   C     C_3   0.642928 0.260941 0.013817 -0.118274
H27   H     H_    0.737477 0.256089 0.983031 0.169015
H28   H     H_    0.620388 0.195269 0.949013 0.176739
H29   H     H_    0.604815 0.238879 0.083244 0.191738
Cl12  Cl    Cl    0.807726 0.593080 0.428351 -0.606502
Cl13  Cl    Cl    0.445889 0.537497 0.837105 -0.546743

loop_
_geom_bond_atom_site_label_1
_geom_bond_atom_site_label_2
_ccdc_geom_bond_type
C23   N10   A    
C44   H18   S    
N1    N15   A    
C3    C23   A    
C19   C20   A    
N9    Ni2   S    
C2    C12   A    
C46   H25   S    
O5    C45   S    
N9    N14   A    
N6    Ni1   S    
O3    C43   S    
C25   Cl7   S    
N1    Ni1   S    
C18   C24   A    
C28   C29   A    
C4    C24   S    
C11   C14   A    
C43   H16   S    
N10   N12   A    
C11   H2    S    
C18   C19   A    
C22   O3    S    
O7    C47   S    
C35   Cl10  S    
C1    C40   A    
C6    C15   A    
C47   H27   S    
C41   H9    S    
C37   H7    S    
C14   C31   S    
N4    Ni4   S    
C13   N8    A    
C16   C27   S    
N12   Ni2   S    
C44   H19   S    
C23   H6    S    
C21   C22   A    
C46   H26   S    
C3    C32   S    
C19   Cl5   S    
C46   H24   S    
C6    O2    S    
C4    C34   A    
C15   C20   S    
N15   Ni3   S    
C28   H5    S    
N11   N13   A    
C33   C40   S    
O2    C42   S    
C8    H1    S    
C39   C40   A    
N7    Ni4   S    
C43   H15   S    
C26   Cl8   S    
C13   Cl4   S    
C1    O1    S    
C5    N16   A    
C9    Cl2   S    
C42   H12   S    
C29   C30   A    
N11   Ni4   S    
N2    Ni2   S    
C2    C38   A    
C31   C32   D    
C21   Cl6   S    
N7    N16   A    
C20   C21   A    
C41   H11   S    
C26   C27   A    
C47   H28   S    
N3    Ni3   S    
C6    N2    A    
N5    Ni2   S    
C42   H13   S    
C5    C14   A    
C12   N9    A    
C9    C17   A    
C7    C16   A    
C44   H20   S    
C45   H22   S    
C13   C15   A    
C5    Cl13  S    
C36   O7    S    
C34   N11   A    
C22   C24   A    
C9    N5    A    
N8    Ni3   S    
O6    C46   S    
C11   N7    A    
N4    N5    A    
C7    Cl1   S    
C25   C30   A    
C8    N4    A    
C33   O6    S    
C36   N12   A    
C43   H17   S    
C37   N13   A    
C45   H23   S    
C39   N15   A    
C10   Cl3   S    
C8    C17   A    
N14   Ni4   S    
C2    C30   S    
N3    N6    A    
N16   Ni1   S    
C25   C26   A    
C7    N3    A    
C12   H4    S    
C10   C16   A    
C18   H3    S    
C38   Cl12  S    
C3    C36   A    
O4    C44   S    
C33   C35   D    
C47   H29   S    
C32   Cl9   S    
C31   O5    S    
O1    C41   S    
C10   N6    A    
C42   H14   S    
N2    N8    A    
N13   Ni1   S    
N10   Ni3   S    
C4    C37   A    
C45   H21   S    
C27   C28   A    
C34   Cl11  S    
C41   H10   S    
C1    N1    A    
C29   O4    S    
C39   H8    S    
C38   N14   A    
