data_mof_unit_2489.cif
_audit_creation_date              2013-03-05T16:03:02-0500
_audit_creation_method            fapswitch 2.2
_symmetry_space_group_name_H-M    P1
_symmetry_Int_Tables_number       1
_space_group_crystal_system       triclinic
_cell_length_a                    6.961334
_cell_length_b                    18.213537
_cell_length_c                    20.247483
_cell_angle_alpha                 68.229112
_cell_angle_beta                  90.728354
_cell_angle_gamma                 90.38924
_cell_volume                      2383.88389836

loop_
_atom_site_label
_atom_site_type_symbol
_atom_site_description
_atom_site_fract_x
_atom_site_fract_y
_atom_site_fract_z
_atom_type_partial_charge
O1    O     O_R   0.488990 0.443920 0.942160 -0.593670
O2    O     O_R   0.823840 0.406530 0.087600 -0.595811
O3    O     O_R   0.999650 0.556080 0.057840 -0.585580
C1    C     C_R   0.655907 0.383047 0.114618 0.932955
O4    O     O_R   0.818390 0.434590 0.944530 -0.596805
O5    O     O_R   0.994160 0.584350 0.913750 -0.587630
C2    C     C_R   0.648738 0.420164 0.924399 0.971452
O6    O     O_R   0.494480 0.415650 0.086250 -0.590282
O7    O     O_3   0.662600 0.549100 0.990070 -0.257445
V1    V     V_3+5 0.935320 0.490890 0.001840 1.172939
O8    O     O_R   0.324240 0.593470 0.912400 -0.586661
C3    C     C_R   0.154701 0.616890 0.885280 0.935042
O9    O     O_R   0.329690 0.565410 0.055470 -0.573908
C4    C     C_R   0.162009 0.579206 0.076087 0.958913
V2    V     V_3+5 0.435990 0.509110 0.998160 1.189987
O10   O     O_3   0.158840 0.450900 0.009930 -0.280696
C5    C     C_3   0.930465 0.714800 0.230651 0.075268
C6    C     C_3   0.257350 0.666021 0.276215 -0.704989
C7    C     C_3   0.272520 0.717858 0.322735 0.408098
H1    H     H_    0.891005 0.712457 0.337605 0.122365
H2    H     H_    0.886212 0.652645 0.262112 0.061205
H3    H     H_    0.404422 0.652117 0.263535 0.210841
H4    H     H_    0.188040 0.608272 0.306753 0.218289
H5    H     H_    0.419030 0.743631 0.315301 0.107515
C8    C     C_1   0.114986 0.873327 0.379940 -0.213444
C9    C     C_3   0.141778 0.709790 0.206405 -0.012984
C10   C     C_3   0.925893 0.758678 0.284842 0.112193
C11   C     C_3   0.130882 0.789917 0.293747 0.024355
C12   C     C_3   0.204763 0.843714 0.219191 -0.624513
C13   C     C_3   0.239563 0.793729 0.172138 0.302537
C14   C     C_1   0.124993 0.835260 0.341888 0.203754
C15   C     C_1   0.149890 0.662804 0.159712 0.191504
C16   C     C_1   0.155582 0.624730 0.121557 -0.215720
H6    H     H_    0.397341 0.783929 0.173939 0.153948
H7    H     H_    0.103823 0.893041 0.194066 0.278684
H8    H     H_    0.342546 0.872211 0.225079 0.207761
H9    H     H_    0.101713 0.519538 0.691667 0.151659
C17   C     C_R   0.159736 0.779803 0.876692 -0.194455
C18   C     C_R   0.160606 0.857405 0.874141 -0.154262
C19   C     C_R   0.151368 0.921192 0.809102 0.395610
C20   C     C_R   0.140010 0.906198 0.746245 -0.313435
C21   C     C_R   0.136788 0.828251 0.747243 0.070055
C22   C     C_R   0.147520 0.763678 0.813711 0.104809
C23   C     C_R   0.119915 0.814436 0.683078 -0.238418
C24   C     C_R   0.110822 0.735849 0.685356 0.068602
C25   C     C_R   0.124798 0.671167 0.751720 0.129501
C26   C     C_R   0.143482 0.684907 0.816017 -0.274287
C27   C     C_R   0.087848 0.720353 0.622256 -0.299319
C28   C     C_R   0.081309 0.642814 0.623857 0.399676
C29   C     C_R   0.101434 0.579908 0.689133 -0.288657
C30   C     C_R   0.121081 0.593529 0.752123 -0.238219
H10   H     H_    0.166921 0.732708 0.928540 0.141382
H11   H     H_    0.166986 0.867877 0.923154 0.237858
H12   H     H_    0.132134 0.956273 0.696426 0.168584
H13   H     H_    0.074732 0.768394 0.571204 0.142564
H14   H     H_    0.134256 0.542378 0.801017 0.135312
H15   H     H_    0.799581 0.475919 0.306935 0.149497
C31   C     C_R   0.581868 0.223314 0.122752 -0.173709
C32   C     C_R   0.545279 0.147159 0.124890 -0.123000
C33   C     C_R   0.533563 0.084278 0.189814 -0.049446
C34   C     C_R   0.557578 0.097111 0.253140 -0.184976
C35   C     C_R   0.593765 0.173903 0.252797 0.100828
C36   C     C_R   0.606972 0.238156 0.186160 0.128647
C37   C     C_R   0.615012 0.187191 0.317389 -0.306689
C38   C     C_R   0.647349 0.265609 0.315068 -0.050757
C39   C     C_R   0.676784 0.328256 0.248081 0.070387
C40   C     C_R   0.648473 0.315239 0.183869 -0.273064
C41   C     C_R   0.648287 0.284815 0.377324 0.534221
C42   C     C_R   0.711902 0.359255 0.373818 -0.257783
C43   C     C_R   0.754508 0.418077 0.309021 -0.186310
C44   C     C_R   0.731519 0.403833 0.246582 -0.165458
H16   H     H_    0.591687 0.270193 0.070922 0.093443
H17   H     H_    0.527030 0.136819 0.075874 0.127579
H18   H     H_    0.505556 0.025190 0.191162 0.160153
H19   H     H_    0.546569 0.046176 0.302210 0.126157
H20   H     H_    0.722492 0.372238 0.421694 0.138337
H21   H     H_    0.759419 0.452627 0.197202 0.134548
O11   O     O_R   0.770890 0.084490 0.414040 -0.591975
O12   O     O_R   0.445980 0.065450 0.555510 -0.602680
O13   O     O_R   0.270670 0.915620 0.586180 -0.589507
C45   C     C_R   0.615012 0.078772 0.576860 1.046672
O14   O     O_R   0.441480 0.093500 0.412450 -0.607192
O15   O     O_R   0.266140 0.943870 0.442100 -0.593944
C46   C     C_R   0.609504 0.118301 0.386250 1.041418
O16   O     O_R   0.775410 0.056240 0.558120 -0.587479
O17   O     O_3   0.602660 0.950990 0.510100 -0.270889
V3    V     V_3+5 0.329740 0.009100 0.498130 1.170826
O18   O     O_R   0.936120 0.934420 0.444240 -0.572388
C47   C     C_R   0.104668 0.919851 0.424468 0.958492
O19   O     O_R   0.940610 0.906370 0.587310 -0.589641
C48   C     C_R   0.109995 0.882470 0.613982 0.937222
V4    V     V_3+5 0.829110 0.990690 0.501470 1.199788
O20   O     O_3   0.106080 0.049010 0.489880 -0.290546
C49   C     C_3   0.740711 0.286113 0.674533 -0.470091
C50   C     C_3   0.420599 0.227646 0.723809 -0.363803
C51   C     C_3   0.420510 0.273387 0.775229 -0.446788
H22   H     H_    0.681331 0.319488 0.620387 0.191338
H23   H     H_    0.336449 0.172409 0.747923 0.238822
H24   H     H_    0.348044 0.263759 0.672907 0.185985
H25   H     H_    0.338106 0.329303 0.750749 0.219824
H26   H     H_    0.344836 0.237858 0.824877 0.178343
C52   C     C_1   0.637466 0.374039 0.879466 -0.310730
C53   C     C_3   0.628549 0.207575 0.709136 0.225332
C54   C     C_3   0.731831 0.337572 0.721267 0.510129
C55   C     C_3   0.629574 0.290587 0.793194 0.143392
C56   C     C_3   0.730230 0.209186 0.830854 0.354265
C57   C     C_3   0.727164 0.160590 0.781497 -0.468537
C58   C     C_1   0.631129 0.336207 0.841068 -0.019314
C59   C     C_1   0.627229 0.161191 0.661861 0.037550
C60   C     C_1   0.623846 0.123721 0.623035 -0.240554
H27   H     H_    0.876209 0.145522 0.772337 0.248145
H28   H     H_    0.649787 0.103772 0.808326 0.180073
H29   H     H_    0.893367 0.273038 0.667321 0.150373
H30   H     H_    0.883565 0.350832 0.731929 0.035638
H31   H     H_    0.643377 0.176368 0.879047 0.049443
N1    N     N_R   0.792507 0.743367 0.170975 0.254911
O21   O     O_R   0.811009 0.812059 0.120187 -0.279115
O22   O     O_R   0.667259 0.694053 0.162646 -0.442656
N2    N     N_R   0.777011 0.820055 0.270670 0.227260
O23   O     O_R   0.766442 0.879561 0.210337 -0.376618
O24   O     O_R   0.685155 0.825187 0.324360 -0.462356
N3    N     N_R   0.151969 0.001209 0.806494 0.224095
O25   O     O_R   0.172732 0.016048 0.864306 -0.426868
O26   O     O_R   0.131450 0.060038 0.745997 -0.480583
N4    N     N_R   0.048217 0.628077 0.559593 0.214215
O27   O     O_R   0.077465 0.558204 0.558079 -0.466773
O28   O     O_R   0.979770 0.683464 0.502965 -0.412820
O29   O     O_3   0.576794 0.233390 0.441217 -0.707226
C61   C     C_3   0.380381 0.251086 0.446613 0.189242
H32   H     H_    0.303846 0.194377 0.473136 0.179008
H33   H     H_    0.305758 0.279876 0.394138 0.079000
C62   C     C_3   0.358552 0.302005 0.491805 -0.341698
H34   H     H_    0.454652 0.279573 0.539153 0.216442
H35   H     H_    0.399750 0.363973 0.460073 0.198920
C63   C     C_3   0.152102 0.301488 0.516495 -0.969308
H36   H     H_    0.053109 0.323415 0.469930 0.269319
H37   H     H_    0.140546 0.340660 0.547214 0.274629
H38   H     H_    0.108791 0.240712 0.551269 0.275383
O30   O     O_3   0.624457 0.406720 0.683114 -0.663157
C64   C     C_3   0.704100 0.475390 0.689375 0.137905
H39   H     H_    0.795359 0.504779 0.642530 0.176938
H40   H     H_    0.791027 0.463509 0.738814 0.091573
C65   C     C_3   0.540816 0.530600 0.689509 -0.277150
H41   H     H_    0.448797 0.541588 0.641592 0.224925
H42   H     H_    0.453205 0.501333 0.737734 0.206220
C66   C     C_3   0.614155 0.609639 0.689646 -0.950615
H43   H     H_    0.709057 0.600440 0.736486 0.271610
H44   H     H_    0.491616 0.646889 0.692313 0.275392
H45   H     H_    0.692382 0.641814 0.639832 0.276169
O31   O     O_3   0.922911 0.221236 0.848770 -0.677021
C67   C     C_3   0.980853 0.162612 0.914391 0.271303
H46   H     H_    0.137699 0.153407 0.912155 0.144914
H47   H     H_    0.912238 0.103948 0.924411 0.142124
C68   C     C_3   0.942606 0.190643 0.975654 -0.410353
H48   H     H_    0.018572 0.247634 0.965549 0.224772
H49   H     H_    0.786293 0.200624 0.978796 0.195985
C69   C     C_3   0.011525 0.130070 0.046719 -0.873124
H50   H     H_    0.933517 0.073172 0.058801 0.295771
H51   H     H_    0.983567 0.152487 0.089789 0.264965
H52   H     H_    0.168344 0.119783 0.045296 0.259575
O32   O     O_3   0.234828 0.671496 0.395170 -0.611456
C70   C     C_3   0.405508 0.640061 0.434562 0.340957
H53   H     H_    0.382320 0.635343 0.490076 0.161981
H54   H     H_    0.533922 0.678917 0.416916 0.089554
C71   C     C_3   0.447793 0.557298 0.435156 -0.413298
H55   H     H_    0.317151 0.519726 0.451430 0.252080
H56   H     H_    0.488707 0.561187 0.381195 0.192849
C72   C     C_3   0.612293 0.518281 0.486395 -0.882578
H57   H     H_    0.745076 0.554485 0.470701 0.301629
H58   H     H_    0.640739 0.458786 0.485573 0.247562
H59   H     H_    0.573585 0.511412 0.541281 0.286390
N5    N     N_R   0.191987 0.835836 0.096506 0.283362
O33   O     O_R   0.253479 0.807331 0.050553 -0.398047
O34   O     O_R   0.129700 0.908366 0.072936 -0.339757

loop_
_geom_bond_atom_site_label_1
_geom_bond_atom_site_label_2
_geom_bond_distance
_ccdc_geom_bond_type
C8    C14   1.215515 T    
C65   C66   1.525117 S    
O15   V3    1.968357 S    
C51   C55   1.553520 S    
C9    C15   1.493843 S    
C69   H50   1.111914 S    
C56   O31   1.421824 S    
C27   H13   1.081747 S    
C20   C21   1.412339 A    
C50   C51   1.556086 S    
C6    C9    1.557129 S    
C64   C65   1.523429 S    
C1    O6    1.298073 A    
O29   C61   1.421699 S    
C4    C16   1.450822 S    
O12   V3    1.976675 S    
O32   C70   1.421998 S    
C50   H23   1.108417 S    
C63   H36   1.109602 S    
C24   C25   1.423693 A    
C34   H19   1.082072 S    
C12   H8    1.113470 S    
C71   H55   1.111692 S    
C5    C9    1.570551 S    
C11   C12   1.555333 S    
C64   H40   1.113879 S    
C30   H14   1.082193 S    
O13   V3    2.000946 S    
C66   H44   1.107736 S    
O5    C3    1.298646 A    
C17   C18   1.395052 A    
C50   H24   1.112823 S    
C10   N2    1.475259 S    
C17   H10   1.082413 S    
C56   C57   1.561391 S    
V2    O10   2.167866 S    
C70   C71   1.533482 S    
V3    O20   1.702688 S    
N1    O21   1.298525 A    
C42   H20   1.081223 S    
C63   H37   1.110677 S    
C6    C7    1.563823 S    
C7    O32   1.421607 S    
C67   C68   1.533041 S    
C28   C29   1.397619 A    
C37   C46   1.490905 S    
C35   C37   1.421347 A    
O8    V2    1.995984 S    
C49   H29   1.113789 S    
C72   H59   1.107813 S    
O18   V4    1.965018 S    
C50   C53   1.554399 S    
C41   C42   1.400223 A    
C2    C52   1.450486 S    
C67   H46   1.109811 S    
C52   C58   1.215432 T    
C43   C44   1.388800 A    
O1    V2    1.961323 S    
H15   C43   1.083036 S    
O7    V1    2.147916 S    
C32   H17   1.082428 S    
C68   H49   1.110933 S    
C65   H41   1.110673 S    
C61   C62   1.534738 S    
C72   H58   1.109116 S    
C39   C40   1.416658 A    
C49   C54   1.561336 S    
C32   C33   1.389617 A    
C69   H51   1.111112 S    
O1    C2    1.298199 A    
O9    C4    1.301587 A    
C71   H56   1.109085 S    
C42   C43   1.385625 A    
C21   C23   1.415334 A    
C3    C26   1.489060 S    
C54   C55   1.566396 S    
O16   V4    1.978275 S    
N5    O34   1.302209 A    
C70   H54   1.113365 S    
N2    O24   1.301258 A    
O15   C47   1.296658 A    
C55   C58   1.492374 S    
C36   C40   1.415342 A    
C13   H6    1.111924 S    
C6    H4    1.113421 S    
C5    C10   1.579666 S    
C64   H39   1.106276 S    
C68   C69   1.526369 S    
C18   C19   1.397142 A    
O12   C45   1.300517 A    
O17   V3    2.147983 S    
C62   H34   1.109232 S    
C49   H22   1.113488 S    
O11   V4    1.991100 S    
C31   C32   1.393418 A    
C25   C30   1.411106 A    
C70   H53   1.108901 S    
C5    H2    1.116931 S    
C33   C34   1.393896 A    
O2    C1    1.297981 A    
C12   C13   1.564426 S    
C66   H45   1.108351 S    
O19   V4    1.995929 S    
C39   C44   1.415306 A    
N2    O23   1.299633 A    
C38   C41   1.427653 A    
C35   C36   1.424380 A    
C29   C30   1.391635 A    
C57   H28   1.113113 S    
C45   C60   1.453878 S    
C7    C11   1.571830 S    
C23   C48   1.486691 S    
C13   N5    1.470468 S    
C68   H48   1.112084 S    
C63   H38   1.111164 S    
C54   H30   1.118053 S    
C19   C20   1.398423 A    
C49   C53   1.549832 S    
C9    C13   1.578953 S    
O6    V2    1.995851 S    
O14   C46   1.297855 A    
O9    V2    1.964777 S    
N4    O27   1.301769 A    
C21   C22   1.422854 A    
N3    O26   1.301125 A    
N5    O33   1.299987 A    
O2    V1    2.004294 S    
C44   H21   1.081967 S    
C28   N4    1.438345 S    
C23   C24   1.415901 A    
O30   C64   1.412146 S    
O4    C2    1.301126 A    
C66   H43   1.109810 S    
C24   C27   1.413932 A    
C31   C36   1.415278 A    
C65   H42   1.110933 S    
C41   O29   1.381934 S    
C25   C26   1.418209 A    
C72   H57   1.110834 S    
C6    H3    1.112064 S    
C57   H27   1.110288 S    
C11   C14   1.494136 S    
O5    V1    2.000889 S    
C1    C40   1.486752 S    
C53   C57   1.550025 S    
O8    C3    1.301154 A    
H1    C10   1.116098 S    
O3    C4    1.299887 A    
C69   H52   1.111424 S    
C71   C72   1.525334 S    
C19   N3    1.438628 S    
C55   C56   1.559620 S    
C12   H7    1.104608 S    
C8    C47   1.450912 S    
O31   C67   1.417031 S    
C54   O30   1.420586 S    
C56   H31   1.119127 S    
C53   C59   1.493163 S    
C15   C16   1.215659 T    
O13   C48   1.298927 A    
C7    H5    1.108240 S    
O7    V2    1.717070 S    
C17   C22   1.412227 A    
O3    V1    1.968372 S    
O17   V4    1.713531 S    
C59   C60   1.217204 T    
C37   C38   1.427920 A    
H9    C29   1.081596 S    
C31   H16   1.082301 S    
O19   C48   1.299199 A    
C18   H11   1.078115 S    
C62   C63   1.526448 S    
C27   C28   1.401013 A    
C51   H25   1.112739 S    
C33   H18   1.082803 S    
V4    O20   2.167862 S    
N1    O22   1.301292 A    
C67   H47   1.116112 S    
C34   C35   1.416959 A    
C20   H12   1.081284 S    
O11   C46   1.301648 A    
O4    V1    1.976828 S    
O18   C47   1.304741 A    
C62   H35   1.109636 S    
C38   C39   1.428073 A    
C10   C11   1.565595 S    
N4    O28   1.301529 A    
C61   H32   1.107886 S    
V1    O10   1.702610 S    
N3    O25   1.301526 A    
C51   H26   1.110434 S    
C22   C26   1.418137 A    
C45   O16   1.300638 A    
O14   V3    2.004378 S    
C5    N1    1.471029 S    
C61   H33   1.118067 S    
