data_mof_unit_2155.cif
_audit_creation_date              2012-12-11T20:00:38-0500
_audit_creation_method            fapswitch 2.2
_symmetry_space_group_name_H-M    P1
_symmetry_Int_Tables_number       1
_space_group_crystal_system       triclinic
_cell_length_a                    8.235534
_cell_length_b                    16.231127
_cell_length_c                    27.078969
_cell_angle_alpha                 72.470942
_cell_angle_beta                  96.842012
_cell_angle_gamma                 95.960874
_cell_volume                      3418.19340685

loop_
_atom_site_label
_atom_site_type_symbol
_atom_type_description
_atom_site_fract_x
_atom_site_fract_y
_atom_site_fract_z
_atom_type_partial_charge
Ba1   Ba    Ba6+2 0.337820 0.939830 0.518500 1.642607
Ba2   Ba    Ba6+2 0.851970 0.060110 0.481480 1.642202
C1    C     C_3   0.072379 0.524666 0.612361 -0.370037
C2    C     C_R   0.439785 0.396626 0.187794 0.577973
C3    C     C_2   0.279955 0.277501 0.279221 -0.072857
C4    C     C_3   0.541150 0.639170 0.629776 0.335659
C5    C     C_3   0.274612 0.248018 0.337380 -0.044310
C6    C     C_1   0.474691 0.144026 0.341341 0.037669
C7    C     C_2   0.513602 0.188392 0.293347 -0.105572
C8    C     C_2   0.407824 0.258217 0.258470 0.182911
C9    C     C_R   0.519251 0.402227 0.102665 -0.079138
C10   C     C_R   0.524013 0.311366 0.120112 -0.036344
C11   C     C_R   0.566330 0.269168 0.085853 -0.058323
C12   C     C_3   0.061665 0.620793 0.604679 0.350908
C13   C     C_R   0.476530 0.444707 0.136929 -0.032574
C14   C     C_2   0.357870 0.165794 0.363645 -0.293499
C15   C     C_2   0.839163 0.837896 0.637707 -0.279350
C16   C     C_3   0.520955 0.564053 0.678746 -0.318471
C17   C     C_R   0.633690 0.455079 0.964743 0.020061
C18   C     C_R   0.589969 0.590966 0.982722 0.020638
C19   C     C_R   0.630076 0.546983 0.948161 0.050120
C20   C     C_R   0.672793 0.414706 0.928491 -0.100962
C21   C     C_R   0.707975 0.462402 0.878396 -0.059670
C22   C     C_R   0.706168 0.552854 0.861691 -0.024511
C23   C     C_3   0.080452 0.015296 0.646754 0.293056
C24   C     C_R   0.667143 0.595454 0.896406 -0.079426
C25   C     C_R   0.665715 0.686481 0.879385 -0.036508
C26   C     C_R   0.704021 0.733555 0.828201 0.597947
C27   C     C_R   0.742344 0.601052 0.810756 0.574286
C28   C     C_3   0.598532 0.884999 0.389289 0.290191
C29   C     C_2   0.906792 0.720468 0.720053 -0.087273
C30   C     C_3   0.915219 0.753085 0.662037 -0.046122
C31   C     C_1   0.717034 0.857049 0.658961 0.033426
C32   C     C_2   0.675403 0.811085 0.706372 -0.102136
C33   C     C_2   0.779088 0.739920 0.740830 0.193644
C34   C     C_3   0.084217 0.976448 0.705437 -0.354275
C35   C     C_R   0.598124 0.406742 0.016532 0.020247
C36   C     C_R   0.556543 0.450667 0.050926 0.051192
C37   C     C_R   0.551557 0.542500 0.034185 0.019352
C38   C     C_R   0.602609 0.315394 0.035486 -0.098209
C39   C     C_R   0.471197 0.534976 0.119827 -0.047942
C40   C     C_3   0.570602 0.812799 0.363466 -0.344548
C41   C     C_R   0.590175 0.682544 0.964313 -0.097104
C42   C     C_R   0.627140 0.728829 0.914052 -0.059012
C43   C     C_R   0.507546 0.582673 0.069878 -0.100722
C44   C     C_2   0.401637 0.245354 0.513022 -0.294534
C45   C     C_3   0.646408 0.361850 0.369054 0.338338
C46   C     C_R   0.801437 0.759724 0.490208 -0.308105
C47   C     C_2   0.255210 0.312609 0.563075 -0.129060
C48   C     C_2   0.269392 0.245242 0.545290 0.044588
C49   C     C_2   0.508518 0.314033 0.499102 0.005556
C50   C     C_3   0.465629 0.399264 0.504080 -0.041625
C51   C     C_3   0.379288 0.388920 0.552958 0.007409
C52   C     C_3   0.599482 0.115785 0.610115 0.312578
C53   C     C_2   0.605033 0.466139 0.500438 -0.051348
C54   C     C_2   0.571856 0.549070 0.484757 -0.037269
C55   C     C_R   0.839145 0.617838 0.455757 0.037864
C56   C     C_3   0.663401 0.437727 0.320217 0.256372
C57   C     C_R   0.701487 0.618810 0.481339 -0.050495
C58   C     C_R   0.953914 0.688703 0.445746 -0.134703
C59   C     C_R   0.931839 0.760834 0.461575 0.066582
C60   C     C_R   0.682320 0.690510 0.498554 -0.005967
C61   C     C_3   0.639959 0.189348 0.634544 -0.375042
C62   C     C_3   0.114560 0.991106 0.357597 0.300022
C63   C     C_3   0.106538 0.028057 0.298723 -0.353811
C64   C     C_3   0.126557 0.380551 0.393436 0.323347
C65   C     C_3   0.114545 0.477000 0.384339 -0.319718
C66   C     C_R   0.485755 0.264359 0.171349 0.598948
Cl1   Cl    Cl    0.534260 0.520135 0.318899 -0.658914
H1    H     H_    0.100703 0.657184 0.565631 0.073657
H2    H     H_    0.244295 0.991535 0.373677 0.010224
H3    H     H_    0.047575 0.032756 0.372846 0.076484
H4    H     H_    0.198011 0.511597 0.607375 0.148568
H5    H     H_    0.179032 0.990028 0.282483 0.137952
H6    H     H_    0.157019 0.096449 0.287819 0.067796
H7    H     H_    0.977153 0.025606 0.281747 0.135497
H8    H     H_    0.931099 0.631116 0.606091 -0.056801
H9    H     H_    0.985449 0.503734 0.583054 0.067707
H10   H     H_    0.951187 0.014955 0.629859 0.014819
H11   H     H_    0.149558 0.974480 0.631482 0.071738
H12   H     H_    0.645729 0.828099 0.329964 0.140622
H13   H     H_    0.010554 0.013911 0.721706 0.135856
H14   H     H_    0.032449 0.908225 0.715153 0.071747
H15   H     H_    0.212612 0.977826 0.723372 0.133444
H16   H     H_    0.039991 0.486610 0.651875 0.122758
H17   H     H_    0.541778 0.588763 0.713038 0.124707
H18   H     H_    0.704746 0.306356 0.364194 0.036146
H19   H     H_    0.514362 0.343759 0.373684 -0.039008
H20   H     H_    0.792136 0.465529 0.318498 0.090541
H21   H     H_    0.629484 0.414570 0.285687 0.059217
H22   H     H_    0.256958 0.370705 0.391513 -0.008478
H23   H     H_    0.605587 0.750599 0.391381 0.069929
H24   H     H_    0.090270 0.345312 0.433012 0.068643
H25   H     H_    0.202629 0.499743 0.412680 0.078372
H26   H     H_    0.989224 0.490082 0.389611 0.143826
H27   H     H_    0.478122 0.694245 0.633220 0.095842
H28   H     H_    0.144590 0.513621 0.344340 0.169982
H29   H     H_    0.623685 0.175310 0.279492 0.134018
H30   H     H_    0.571807 0.199436 0.097912 0.124408
H31   H     H_    0.989769 0.672611 0.743162 0.119726
H32   H     H_    0.737000 0.427507 0.852554 0.122448
H33   H     H_    0.676938 0.345729 0.937276 0.070182
H34   H     H_    0.439020 0.805537 0.349495 0.134384
H35   H     H_    0.634384 0.276803 0.012482 0.070581
H36   H     H_    0.194885 0.323959 0.255808 0.124469
H37   H     H_    0.438406 0.569737 0.145237 0.142447
H38   H     H_    0.563020 0.721370 0.987808 0.071931
H39   H     H_    0.673719 0.657919 0.626928 -0.049711
H40   H     H_    0.625252 0.798738 0.902409 0.123358
H41   H     H_    0.565860 0.824593 0.720325 0.132566
H42   H     H_    0.498895 0.651416 0.060618 0.074439
H43   H     H_    0.343657 0.136045 0.404675 0.082656
H44   H     H_    0.868321 0.875014 0.598819 0.078185
H45   H     H_    0.467206 0.111580 0.598033 -0.006838
H46   H     H_    0.162443 0.309327 0.589052 0.078770
H47   H     H_    0.055412 0.688720 0.423779 0.098988
H48   H     H_    0.420259 0.185642 0.504936 0.062992
H49   H     H_    0.786090 0.815781 0.502497 0.075355
H50   H     H_    0.729584 0.447889 0.513708 0.088304
H51   H     H_    0.394912 0.532609 0.678133 0.141742
H52   H     H_    0.445211 0.565631 0.475091 0.102416
H53   H     H_    0.609869 0.515215 0.682153 0.120405
H54   H     H_    0.729992 0.892578 0.402131 0.005696
H55   H     H_    0.524906 0.867465 0.423220 0.063969
H56   H     H_    0.670619 0.129562 0.575873 0.070700
H57   H     H_    0.564252 0.179605 0.667425 0.127346
H58   H     H_    0.615007 0.252284 0.605436 0.059082
H59   H     H_    0.771812 0.191405 0.649108 0.127868
N1    N     N_R   0.445033 0.306850 0.205137 -0.425499
N2    N     N_R   0.741023 0.690994 0.793980 -0.421440
O1    O     O_2   0.431310 0.922990 0.623550 -0.459740
O2    O     O_2   0.846779 0.306137 0.504909 -0.488305
O3    O     O_3   0.724826 0.385972 0.411970 -0.590557
O4    O     O_3   0.663280 0.983100 0.563360 -0.499370
O5    O     O_3   0.016420 0.932050 0.462720 -0.491796
O6    O     O_2   0.959730 0.164640 0.549160 -0.455728
O7    O     O_3   0.151781 0.100382 0.635451 -0.639814
O8    O     O_2   0.928230 0.211608 0.327662 -0.496964
O9    O     O_3   0.022157 0.352347 0.355623 -0.600939
O10   O     O_2   0.486233 0.185443 0.185403 -0.593463
O11   O     O_2   0.774138 0.562248 0.781233 -0.621239
O12   O     O_3   0.043362 0.906061 0.370125 -0.629363
O13   O     O_2   0.403909 0.435469 0.216747 -0.573222
O14   O     O_2   0.706896 0.812586 0.814556 -0.596667
O15   O     O_3   0.126250 0.812630 0.574830 -0.482768
O16   O     O_2   0.262594 0.786852 0.672237 -0.495141
O17   O     O_3   0.638921 0.038335 0.647335 -0.625575
O18   O     O_3   0.164352 0.646784 0.643647 -0.597243
O19   O     O_2   0.229950 0.835370 0.450810 -0.460146
O20   O     O_3   0.517580 0.797570 0.545130 -0.494322
O21   O     O_2   0.343009 0.694804 0.494532 -0.491332
O22   O     O_3   0.471845 0.613443 0.586404 -0.603878
O23   O     O_2   0.758370 0.077020 0.376420 -0.459330
O24   O     O_3   0.526390 0.016840 0.436620 -0.500101
O25   O     O_3   0.063420 0.187310 0.425160 -0.474980
O26   O     O_3   0.551190 0.961641 0.352690 -0.622700
O27   O     O_3   0.173250 0.067890 0.537260 -0.480595
O28   O     O_3   0.672100 0.202370 0.454860 -0.491064
P1    P     P_3+3 0.610630 0.953360 0.619150 0.990190
P2    P     P_3+3 0.057260 0.861390 0.437850 0.988486
P3    P     P_3+3 0.502365 0.699346 0.530293 0.939772
P4    P     P_3+3 0.579040 0.046590 0.380840 0.993899
P5    P     P_3+3 0.688984 0.301934 0.468361 0.955240
P6    P     P_3+3 0.120007 0.751792 0.639724 0.945793
P7    P     P_3+3 0.142591 0.145172 0.567857 0.950649
P8    P     P_3+3 0.069612 0.247598 0.360126 0.948378

loop_
_geom_bond_atom_site_label_1
_geom_bond_atom_site_label_2
_ccdc_geom_bond_type
C53   C54   D    
C7    H29   S    
C1    H16   S    
C23   H11   S    
Ba1   O15   S    
C19   C24   A    
O17   P1    S    
C40   H34   S    
Ba2   P4    S    
C2    O13   D    
O7    P7    S    
C15   H44   S    
C3    H36   S    
C10   C66   A    
C24   C25   A    
C16   H17   S    
C63   H7    S    
C17   C19   A    
C22   C24   A    
C32   C33   S    
C35   C38   A    
C36   C37   A    
C55   C57   A    
C60   P3    S    
C52   C61   S    
C34   H14   S    
C12   O18   S    
Ba1   Ba2   S    
C62   H2    S    
C22   C27   A    
C11   C38   A    
C17   C35   A    
C9    C13   A    
C25   C42   A    
C64   O9    S    
C29   C30   S    
C34   H13   S    
C6    C7    D    
O21   P3    D    
C65   H25   S    
C21   C22   A    
Ba1   O19   S    
C26   O14   D    
C45   H19   S    
C7    C8    S    
C40   H23   S    
O22   P3    S    
C50   C53   S    
C37   C43   A    
C4    O22   S    
C42   H40   S    
C28   O26   S    
O4    P1    S    
O26   P4    S    
Ba2   O24   S    
C45   O3    S    
C65   H26   S    
C12   H1    S    
C66   N1    Am   
C40   H12   S    
C15   C31   D    
O3    P5    S    
C56   H20   S    
C4    C16   S    
C52   H56   S    
C39   H37   S    
C49   C50   S    
O18   P6    S    
Ba1   P1    S    
C17   C20   A    
C13   C39   A    
C59   P2    S    
O27   P7    S    
C12   H8    S    
C18   C37   A    
C55   C58   A    
C53   H50   S    
O16   P6    D    
C44   C49   D    
Ba2   O6    S    
C63   H5    S    
C44   H48   S    
C58   C59   A    
C45   H18   S    
C11   H30   S    
O9    P8    S    
C23   O7    S    
C41   C42   A    
C35   C36   A    
C38   H35   S    
C46   C60   A    
C27   N2    Am   
Ba2   O28   S    
C27   O11   D    
C48   P7    S    
C43   H42   S    
C31   C32   D    
Ba1   O20   S    
Ba2   O25   S    
C41   H38   S    
C29   H31   S    
C10   C11   A    
C49   P5    S    
C28   H54   S    
C56   H21   S    
C33   N2    S    
C64   H22   S    
C1    C12   S    
O28   P5    S    
C16   H53   S    
C64   H24   S    
C5    C14   S    
C47   H46   S    
C5    P8    S    
C28   H55   S    
Ba2   O23   S    
C4    H27   S    
C32   H41   S    
C29   C33   D    
C66   O10   D    
Ba1   O4    S    
C16   H51   S    
C18   C41   A    
C50   C51   S    
C14   H43   S    
C3    C5    S    
O20   P3    S    
O1    P1    D    
C57   C60   A    
C4    H39   S    
O5    P2    S    
C23   H10   S    
O24   P4    S    
Ba1   P2    S    
C61   H59   S    
O12   P2    S    
Ba1   O1    S    
C63   H6    S    
C52   H45   S    
C46   H49   S    
C9    C10   A    
Ba2   O4    S    
C56   Cl1   S    
C2    N1    Am   
O15   P6    S    
C44   C48   S    
Ba2   O5    S    
C20   H33   S    
C54   C57   S    
O23   P4    D    
O8    P8    D    
C54   H52   S    
C2    C13   A    
Ba1   O27   S    
C8    N1    S    
C3    C8    D    
C6    P4    S    
C62   C63   S    
C45   C56   S    
C46   C59   A    
C21   H32   S    
C62   O12   S    
C34   H15   S    
Ba2   O27   S    
C47   C51   S    
C30   P6    S    
C64   C65   S    
C26   N2    Am   
C62   H3    S    
Ba1   O24   S    
C1    H4    S    
O19   P2    D    
O2    P5    D    
C61   H57   S    
C58   H47   S    
C65   H28   S    
C23   C34   S    
C18   C19   A    
C6    C14   D    
C47   C48   D    
O6    P7    D    
C25   C26   A    
C15   C30   S    
C39   C43   A    
C20   C21   A    
C28   C40   S    
C9    C36   A    
O25   P8    S    
Ba1   O5    S    
C1    H9    S    
C61   H58   S    
C31   P1    S    
C52   O17   S    
