data_mof_unit_3940.cif
_audit_creation_date              2012-10-26T21:00:43-0400
_audit_creation_method            fapswitch 2.2
_symmetry_space_group_name_H-M    P1
_symmetry_Int_Tables_number       1
_space_group_crystal_system       triclinic
_cell_length_a                    10.84119
_cell_length_b                    9.596424
_cell_length_c                    11.015798
_cell_angle_alpha                 90.000273
_cell_angle_beta                  92.610161
_cell_angle_gamma                 90.0
_cell_volume                      1144.85777312

loop_
_atom_site_label
_atom_site_type_symbol
_atom_type_description
_atom_site_fract_x
_atom_site_fract_y
_atom_site_fract_z
_atom_type_partial_charge
C1    C     C_R   0.262342 0.499787 0.501117 0.555447
C2    C     C_R   0.503988 0.499788 0.737868 0.543100
C3    C     C_R   0.440058 0.750547 0.107658 -0.080402
C4    C     C_R   0.559934 0.750547 0.892343 -0.080403
C5    C     C_R   0.464515 0.876256 0.050895 -0.087526
C6    C     C_R   0.535470 0.876256 0.949104 -0.087525
C7    C     C_R   0.518442 0.623677 0.939852 0.009213
C8    C     C_R   0.481553 0.623677 0.060149 0.009216
C9    C     C_R   0.491334 0.498178 0.127526 -0.029547
C10   C     C_R   0.508661 0.498178 0.872474 -0.029546
C11   C     C_R   0.507197 0.371872 0.063250 -0.050832
C12   C     C_R   0.737658 0.499787 0.498883 0.555447
C13   C     C_R   0.492794 0.371873 0.936747 -0.050831
C14   C     C_R   0.063931 0.372336 0.500420 -0.130145
C15   C     C_R   0.936069 0.372336 0.499576 -0.130145
C16   C     C_R   0.871607 0.499056 0.497864 0.022642
C17   C     C_R   0.128392 0.499057 0.502136 0.022643
C18   C     C_1   0.549994 0.245003 0.123057 0.221115
C19   C     C_1   0.449995 0.245006 0.876939 0.221116
C20   C     C_1   0.303965 0.863554 0.376514 0.191964
C21   C     C_1   0.696031 0.863554 0.623491 0.191965
C22   C     C_R   0.936254 0.625196 0.496803 -0.109679
C23   C     C_R   0.063746 0.625197 0.503202 -0.109678
C24   C     C_R   0.408478 0.075667 0.439978 0.028077
C25   C     C_R   0.591522 0.075667 0.560022 0.028075
C26   C     C_R   0.407186 0.928127 0.440427 0.096210
C27   C     C_R   0.592813 0.928128 0.559574 0.096210
C28   C     C_R   0.496011 0.499788 0.262131 0.543100
Cu1   Cu    Cu3+1 0.500000 0.640660 0.500000 0.992524
Cu2   Cu    Cu3+1 0.500000 0.359340 0.500000 0.985448
H1    H     H_    0.385793 0.752806 0.185773 0.167405
H2    H     H_    0.664579 0.132888 0.608323 0.115739
H3    H     H_    0.614202 0.752805 0.814231 0.167407
H4    H     H_    0.431365 0.972518 0.088155 0.148077
H5    H     H_    0.568618 0.972518 0.911843 0.148078
H6    H     H_    0.111950 0.273352 0.500206 0.137631
H7    H     H_    0.888050 0.273351 0.499786 0.137631
H8    H     H_    0.888904 0.724178 0.491257 0.161985
H9    H     H_    0.111095 0.724178 0.508752 0.161985
H10   H     H_    0.335420 0.132886 0.391678 0.115739
N1    N     N_R   0.500000 0.852070 0.500000 -0.249174
N2    N     N_R   0.500000 0.147940 0.500000 -0.236773
N3    N     N_1   0.586960 0.145736 0.172002 -0.306090
N4    N     N_1   0.413028 0.145740 0.827993 -0.306089
N5    N     N_1   0.219481 0.815330 0.323921 -0.340043
N6    N     N_1   0.780514 0.815331 0.676086 -0.340044
O1    O     O_R   0.319640 0.618740 0.499990 -0.496356
O2    O     O_R   0.680360 0.618740 0.500010 -0.496355
O3    O     O_R   0.319620 0.381170 0.499990 -0.516597
O4    O     O_R   0.680380 0.381170 0.500010 -0.516597
O5    O     O_R   0.500000 0.618810 0.319650 -0.510139
O6    O     O_R   0.500000 0.618810 0.680350 -0.510140
O7    O     O_R   0.499970 0.381240 0.319640 -0.487266
O8    O     O_R   0.500030 0.381240 0.680360 -0.487267

loop_
_geom_bond_atom_site_label_1
_geom_bond_atom_site_label_2
_ccdc_geom_bond_type
C25   N2    A    
C7    C10   A    
C12   O4    A    
C28   O7    A    
C11   C18   S    
Cu1   Cu2   S    
C2    O6    A    
C25   C27   A    
Cu2   O8    S    
C27   N1    A    
C1    C17   S    
C20   N5    T    
C12   O2    A    
C5    H4    S    
C25   H2    S    
Cu1   O5    S    
C21   C27   S    
C7    C8    A    
C18   N3    T    
C6    H5    S    
C3    H1    S    
C11   C13   A    
C14   C17   A    
C17   C23   A    
C20   C26   S    
Cu1   O1    S    
C4    C7    A    
C23   H9    S    
C4    C6    A    
C24   H10   S    
Cu2   O3    S    
C24   C26   A    
C21   N6    T    
C9    C11   A    
Cu2   O4    S    
C5    C6    A    
C28   O5    A    
C13   C19   S    
Cu1   O2    S    
C15   C16   A    
C22   H8    S    
C24   N2    A    
C19   N4    T    
C26   N1    A    
Cu2   O7    S    
C3    C8    A    
C2    O8    A    
C4    H3    S    
Cu2   N2    S    
C14   H6    S    
C16   C22   A    
Cu1   N1    S    
C14   C15   A    
C1    O3    A    
C10   C13   A    
C22   C23   A    
C15   H7    S    
C12   C16   S    
C9    C28   S    
C1    O1    A    
C8    C9    A    
C3    C5    A    
Cu1   O6    S    
C2    C10   S    
