data_mof_unit_4977.cif
_audit_creation_date              2013-03-05T16:02:41-0500
_audit_creation_method            fapswitch 2.2
_symmetry_space_group_name_H-M    P1
_symmetry_Int_Tables_number       1
_space_group_crystal_system       triclinic
_cell_length_a                    14.946717
_cell_length_b                    14.154352
_cell_length_c                    15.732382
_cell_angle_alpha                 91.131083
_cell_angle_beta                  88.714295
_cell_angle_gamma                 91.215235
_cell_volume                      3326.15563132

loop_
_atom_site_label
_atom_site_type_symbol
_atom_site_description
_atom_site_fract_x
_atom_site_fract_y
_atom_site_fract_z
_atom_type_partial_charge
O1    O     O_R   0.367860 0.580280 0.500020 -0.631435
O2    O     O_R   0.367860 0.419720 0.500020 -0.595750
C1    C     C_R   0.327232 0.498917 0.497447 0.931065
O3    O     O_R   0.500020 0.580310 0.377140 -0.620011
O4    O     O_R   0.500020 0.419690 0.377140 -0.582181
C2    C     C_R   0.500151 0.499182 0.338393 0.934349
Zn1   Zn    Zn3+2 0.500020 0.607200 0.499990 0.946465
Zn2   Zn    Zn3+2 0.500020 0.392800 0.499990 0.983688
O5    O     O_R   0.632160 0.580270 0.499980 -0.627534
O6    O     O_R   0.632160 0.419730 0.499980 -0.629615
O7    O     O_R   0.500010 0.580240 0.622850 -0.637844
O8    O     O_R   0.500010 0.419760 0.622850 -0.602035
C3    C     C_R   0.672986 0.500803 0.499601 0.870235
C4    C     C_R   0.499822 0.500801 0.661631 0.890734
C5    C     C_3   0.462339 0.589698 0.052828 -0.435919
C6    C     C_3   0.449366 0.414065 0.047824 -0.435559
C7    C     C_3   0.450786 0.414158 0.949820 -0.390454
C8    C     C_3   0.464017 0.592663 0.954916 -0.406294
H1    H     H_    0.394639 0.600498 0.932076 0.187100
H2    H     H_    0.380912 0.415568 0.926847 0.189561
H3    H     H_    0.391543 0.591309 0.076415 0.185643
H4    H     H_    0.378933 0.420281 0.071611 0.187990
H5    H     H_    0.472629 0.345326 0.070920 0.187307
H6    H     H_    0.495388 0.654225 0.079832 0.182485
H7    H     H_    0.481186 0.347811 0.924736 0.192899
H8    H     H_    0.504032 0.655430 0.933627 0.179221
C9    C     C_1   0.501110 0.502420 0.750530 -0.160135
C10   C     C_3   0.507159 0.498230 0.082428 0.335696
C11   C     C_3   0.504986 0.501085 0.917200 0.273919
C12   C     C_3   0.602968 0.494614 0.946057 -0.384008
C13   C     C_3   0.606666 0.492777 0.045426 0.419026
C14   C     C_1   0.502747 0.502447 0.825821 -0.089289
C15   C     C_1   0.504085 0.497226 0.174123 -0.099044
C16   C     C_1   0.501854 0.497506 0.249471 -0.162617
H9    H     H_    0.642674 0.555465 0.920141 0.165893
H10   H     H_    0.633391 0.430353 0.916505 0.169753
C17   C     C_R   0.812993 0.433534 0.451228 -0.244841
C18   C     C_R   0.768474 0.501792 0.499128 -0.039338
C19   C     C_R   0.814321 0.567979 0.548971 -0.255207
C20   C     C_R   0.907512 0.565263 0.553739 0.009359
C21   C     C_R   0.953316 0.497862 0.502025 0.072153
C22   C     C_R   0.905240 0.432063 0.451124 0.092849
C23   C     C_R   0.955357 0.628786 0.607383 -0.063189
C24   C     C_R   0.049499 0.623575 0.609870 -0.038290
C25   C     C_R   0.094542 0.558391 0.555205 0.029972
C26   C     C_R   0.046602 0.496541 0.500079 0.016346
C27   C     C_R   0.091974 0.432920 0.443057 0.022591
C28   C     C_R   0.041952 0.361717 0.398427 0.157006
C29   C     C_R   0.949053 0.363843 0.402042 -0.213073
C30   C     C_R   0.186978 0.550965 0.556333 -0.278642
C31   C     C_R   0.231618 0.496148 0.495684 -0.088264
C32   C     C_R   0.185570 0.442254 0.434127 -0.053430
H11   H     H_    0.775516 0.382471 0.412943 0.140096
H12   H     H_    0.775837 0.619478 0.584954 0.138827
H13   H     H_    0.226163 0.589286 0.603134 0.126059
H14   H     H_    0.910351 0.311149 0.366773 0.149825
C33   C     C_R   0.566167 0.798190 0.456492 -0.085671
C34   C     C_R   0.567767 0.203162 0.458318 -0.072791
N1    N     N_R   0.500070 0.750030 0.500040 -0.114264
N2    N     N_R   0.500070 0.249970 0.500040 -0.113213
C35   C     C_R   0.433889 0.799143 0.543433 0.308186
C36   C     C_R   0.434627 0.199293 0.543275 0.296085
C37   C     C_R   0.431978 0.899978 0.541117 0.047397
C38   C     C_R   0.442477 0.100181 0.553344 0.055311
C39   C     C_R   0.503580 0.949811 0.500540 -0.018376
C40   C     C_R   0.505901 0.050702 0.502943 -0.021770
C41   C     C_R   0.571051 0.899208 0.456595 -0.032750
C42   C     C_R   0.570837 0.102115 0.455614 -0.032216
C43   C     C_R   0.364954 0.953447 0.584737 -0.104323
C44   C     C_R   0.383899 0.047615 0.606916 -0.104387
C45   C     C_R   0.636989 0.051536 0.407884 0.215690
C46   C     C_R   0.641213 0.950684 0.414061 0.202260
H15   H     H_    0.615016 0.756750 0.421563 0.160913
H16   H     H_    0.618604 0.245437 0.426191 0.153768
C47   C     C_2   0.100793 0.686207 0.669403 0.481666
H17   H     H_    0.160840 0.723433 0.647543 0.062486
O9    O     O_2   0.077018 0.695256 0.743828 -0.553063
C48   C     C_2   0.231518 0.413054 0.353081 0.346702
H18   H     H_    0.200070 0.426842 0.293213 0.075716
O10   O     O_2   0.302380 0.371813 0.351863 -0.557898
C49   C     C_3   0.083588 0.276825 0.354489 -0.864330
H19   H     H_    0.105196 0.294229 0.288650 0.233186
H20   H     H_    0.140860 0.251729 0.391073 0.260015
H21   H     H_    0.035065 0.216410 0.350194 0.239285
C50   C     C_3   0.367443 0.747615 0.600602 -0.807566
H22   H     H_    0.355204 0.787805 0.660863 0.182861
H23   H     H_    0.304229 0.734030 0.566826 0.260120
H24   H     H_    0.390119 0.680452 0.622421 0.267802
C51   C     C_3   0.346850 0.245521 0.565087 -0.697688
H25   H     H_    0.294136 0.197946 0.591252 0.191105
H26   H     H_    0.356830 0.304591 0.611450 0.261087
H27   H     H_    0.316651 0.267197 0.505123 0.250659
C52   C     C_2   0.269641 0.921927 0.591103 0.375675
H28   H     H_    0.228913 0.938552 0.647024 0.062191
O11   O     O_2   0.234141 0.881787 0.530872 -0.550951
C53   C     C_2   0.353458 0.083872 0.692163 0.369518
H29   H     H_    0.301604 0.046777 0.728272 0.057537
O12   O     O_2   0.389546 0.153172 0.725117 -0.557452
C54   C     C_3   0.699677 0.105230 0.347965 -0.933558
H30   H     H_    0.731652 0.059375 0.298763 0.256484
H31   H     H_    0.661542 0.156306 0.311109 0.233768
H32   H     H_    0.751973 0.143756 0.384737 0.240597
C55   C     C_3   0.721836 0.898032 0.379138 -0.903275
H33   H     H_    0.781869 0.944333 0.370480 0.258518
H34   H     H_    0.742892 0.844909 0.425252 0.240945
H35   H     H_    0.705263 0.862191 0.317925 0.238783
C56   C     C_3   0.665744 0.577178 0.077547 -0.897155
H36   H     H_    0.666547 0.580648 0.148107 0.243030
H37   H     H_    0.735957 0.569773 0.053969 0.246159
H38   H     H_    0.642425 0.645598 0.054109 0.227841
C57   C     C_3   0.652710 0.401028 0.072438 -0.899198
H39   H     H_    0.619662 0.336866 0.045049 0.229662
H40   H     H_    0.723479 0.400641 0.049177 0.244746
H41   H     H_    0.652689 0.395201 0.142731 0.242975
C58   C     C_2   0.907134 0.701121 0.659845 0.493317
H42   H     H_    0.847350 0.681643 0.696305 0.036243
O13   O     O_2   0.933123 0.783498 0.661434 -0.532505

loop_
_geom_bond_atom_site_label_1
_geom_bond_atom_site_label_2
_geom_bond_distance
_ccdc_geom_bond_type
C6    C10   1.553572 S    
C5    C8    1.541410 S    
C40   C42   1.408915 A    
C37   C39   1.416159 A    
C52   H28   1.083424 S    
C7    C11   1.548391 S    
C21   C22   1.411737 A    
C57   H39   1.108828 S    
C8    H8    1.113283 S    
C47   H17   1.083829 S    
C49   H19   1.108863 S    
C50   H22   1.109591 S    
Zn1   O7    1.977562 S    
C17   C18   1.385680 A    
C12   H9    1.114278 S    
C8    H1    1.113501 S    
C11   C14   1.439258 S    
C43   C52   1.485608 S    
O4    C2    1.290151 A    
O7    C4    1.289733 A    
C48   O10   1.219750 D    
C33   N1    1.367324 A    
C19   H12   1.081456 S    
C34   N2    1.369338 A    
C58   H42   1.084577 S    
C36   C51   1.508148 S    
C7    H2    1.113506 S    
C28   C49   1.512791 S    
N2    C36   1.376085 A    
C41   C46   1.426096 A    
C33   H15   1.080061 S    
C17   C22   1.379345 A    
C35   C37   1.429341 A    
O5    C3    1.290832 A    
C36   C38   1.422495 A    
C23   C58   1.490047 S    
C20   C23   1.414902 A    
C27   C28   1.425259 A    
C6    C7    1.541521 S    
C58   O13   1.221109 D    
C53   O12   1.221434 D    
C21   C26   1.394491 A    
C38   C44   1.412278 A    
C4    C9    1.398891 S    
C51   H26   1.108543 S    
C17   H11   1.086167 S    
C52   O11   1.220967 D    
C56   H37   1.111583 S    
C57   H41   1.110561 S    
C33   C41   1.430125 A    
O3    Zn1   1.962458 S    
C32   C48   1.490027 S    
Zn1   N1    2.021635 S    
C49   H20   1.110537 S    
C30   C31   1.386275 A    
C50   H23   1.105816 S    
C18   C19   1.389241 A    
N1    C35   1.381277 A    
C31   C32   1.404263 A    
C37   C43   1.424114 A    
C57   H40   1.111576 S    
C19   C20   1.397976 A    
C1    C31   1.429702 S    
C48   H18   1.084973 S    
C39   C41   1.409898 A    
C25   C26   1.415375 A    
C45   C54   1.517442 S    
C2    C16   1.398354 S    
O1    C1    1.290843 A    
C38   C40   1.410816 A    
C24   C47   1.490477 S    
C44   C53   1.491441 S    
C23   C24   1.412067 A    
C11   C12   1.548046 S    
C54   H30   1.107052 S    
Zn2   O8    1.962783 S    
C53   H29   1.083439 S    
C15   C16   1.185057 T    
C55   H34   1.110213 S    
C8    C11   1.547343 S    
C5    H6    1.110694 S    
C51   H27   1.106458 S    
C47   O9    1.221059 D    
C3    C18   1.426870 S    
C35   C50   1.510734 S    
C34   C42   1.431719 A    
C20   C21   1.418749 A    
C54   H31   1.110220 S    
O8    C4    1.288595 A    
C10   C15   1.442635 S    
C6    H5    1.110652 S    
C56   H38   1.108821 S    
O3    C2    1.289429 A    
C56   H36   1.110520 S    
C49   H21   1.111511 S    
C24   C25   1.418866 A    
C34   H16   1.079963 S    
C50   H24   1.080838 S    
Zn1   O5    2.019425 S    
C26   C27   1.429095 A    
C28   C29   1.389370 A    
C6    H4    1.114006 S    
C9    C14   1.185309 T    
O1    Zn1   2.003812 S    
C13   C56   1.553615 S    
C10   C13   1.587809 S    
O2    Zn2   2.019678 S    
O6    C3    1.288270 A    
O4    Zn2   1.977201 S    
C27   C32   1.406539 A    
C46   C55   1.517109 S    
C29   H14   1.085609 S    
C30   H13   1.081428 S    
C12   H10   1.114272 S    
C7    H7    1.113337 S    
O2    C1    1.287934 A    
C45   C46   1.435530 A    
Zn2   N2    2.021699 S    
C5    C10   1.554482 S    
C12   C13   1.566273 S    
C25   C30   1.388364 A    
C42   C45   1.424612 A    
C55   H35   1.110057 S    
C43   C44   1.395909 A    
C22   C29   1.390031 A    
C5    H3    1.114001 S    
C54   H32   1.110307 S    
Zn2   O6    2.003551 S    
C39   C40   1.427501 A    
C55   H33   1.107382 S    
C13   C57   1.553567 S    
C51   H25   1.103435 S    
