data_mof_unit_908.cif
_audit_creation_date              2013-03-05T15:40:03-0500
_audit_creation_method            fapswitch 2.2
_symmetry_space_group_name_H-M    P1
_symmetry_Int_Tables_number       1
_space_group_crystal_system       triclinic
_cell_length_a                    24.458578
_cell_length_b                    17.501615
_cell_length_c                    15.591996
_cell_angle_alpha                 89.884881
_cell_angle_beta                  128.513365
_cell_angle_gamma                 89.984494
_cell_volume                      5222.43587287

loop_
_atom_site_label
_atom_site_type_symbol
_atom_site_description
_atom_site_fract_x
_atom_site_fract_y
_atom_site_fract_z
_atom_type_partial_charge
C1    C     C_R   0.337374 0.385093 0.207808 -0.021764
C2    C     C_R   0.658274 0.374219 0.779060 -0.011188
C3    C     C_R   0.842980 0.872283 0.224035 -0.001871
C4    C     C_R   0.156459 0.871197 0.775044 -0.012415
H1    H     H_    0.284403 0.381172 0.179566 0.148513
H2    H     H_    0.710565 0.367880 0.805309 0.096980
H3    H     H_    0.790944 0.865208 0.198501 0.090387
H4    H     H_    0.208417 0.863488 0.800457 0.085803
N1    N     N_R   0.389060 0.424180 0.294540 -0.040793
N2    N     N_R   0.610940 0.424180 0.705460 -0.034535
N3    N     N_R   0.889060 0.924180 0.294540 -0.035247
N4    N     N_R   0.110940 0.924180 0.705460 -0.032084
C5    C     C_R   0.599522 0.369590 0.407469 -0.086463
C6    C     C_R   0.400252 0.368644 0.591418 -0.093655
C7    C     C_R   0.103684 0.874259 0.408379 -0.097500
C8    C     C_R   0.896281 0.874194 0.591689 -0.094156
H5    H     H_    0.575344 0.357489 0.322835 0.107824
H6    H     H_    0.422020 0.357511 0.675241 0.108032
H7    H     H_    0.082148 0.864741 0.324341 0.101283
H8    H     H_    0.917457 0.864814 0.675633 0.102204
N5    N     N_R   0.579670 0.423790 0.443360 -0.056632
N6    N     N_R   0.420330 0.423790 0.556640 -0.055714
N7    N     N_R   0.079670 0.923790 0.443360 -0.054330
N8    N     N_R   0.920330 0.923790 0.556640 -0.054113
C9    C     C_R   0.674157 0.370589 0.591288 -0.064337
C10   C     C_R   0.328141 0.367815 0.407621 -0.066006
C11   C     C_R   0.177258 0.875053 0.591931 -0.075212
C12   C     C_R   0.822978 0.874912 0.408182 -0.070146
H9    H     H_    0.719921 0.361726 0.675073 0.095142
H10   H     H_    0.284637 0.356790 0.322938 0.122689
H11   H     H_    0.223472 0.868093 0.675917 0.095665
H12   H     H_    0.776904 0.867905 0.324181 0.097746
N9    N     N_R   0.625470 0.423490 0.556600 -0.037801
N10   N     N_R   0.374530 0.423490 0.443400 -0.039728
N11   N     N_R   0.125470 0.923490 0.556600 -0.038105
N12   N     N_R   0.874530 0.923490 0.443400 -0.037359
C13   C     C_R   0.567001 0.371376 0.778611 -0.071852
C14   C     C_R   0.428717 0.384850 0.208067 -0.048102
C15   C     C_R   0.064586 0.868372 0.773267 -0.085085
C16   C     C_R   0.934635 0.869195 0.225292 -0.069716
H13   H     H_    0.535217 0.362008 0.803682 0.091037
H14   H     H_    0.460085 0.381595 0.181214 0.096229
H15   H     H_    0.031520 0.857393 0.795544 0.092404
H16   H     H_    0.967400 0.858475 0.202362 0.089862
N13   N     N_R   0.555250 0.423100 0.705420 -0.051081
N14   N     N_R   0.444750 0.423100 0.294580 -0.051910
N15   N     N_R   0.055250 0.923100 0.705420 -0.051426
N16   N     N_R   0.944750 0.923100 0.294580 -0.051986
C17   C     C_R   0.362235 0.358989 0.154471 0.029281
C18   C     C_R   0.629990 0.336956 0.821341 0.019327
C19   C     C_R   0.872223 0.833883 0.183975 0.018238
C20   C     C_R   0.126555 0.832388 0.814010 0.010113
C21   C     C_R   0.657202 0.333827 0.499302 0.108007
C22   C     C_R   0.344613 0.330920 0.499285 0.105131
C23   C     C_R   0.162861 0.840651 0.500583 0.118366
C24   C     C_R   0.837377 0.840422 0.499621 0.113716
C25   C     C_R   0.313780 0.603705 0.411732 -0.085174
C26   C     C_R   0.686257 0.603396 0.588366 -0.083754
C27   C     C_R   0.813485 0.102768 0.411586 -0.080182
C28   C     C_R   0.186575 0.102311 0.588293 -0.079596
H17   H     H_    0.266039 0.603870 0.328792 0.150382
H18   H     H_    0.733957 0.603011 0.671418 0.145736
H19   H     H_    0.765692 0.101736 0.328649 0.144030
H20   H     H_    0.234353 0.100362 0.671219 0.140703
N17   N     N_R   0.375210 0.577180 0.443400 -0.035148
N18   N     N_R   0.624790 0.577180 0.556600 -0.035942
N19   N     N_R   0.875210 0.077180 0.443400 -0.036406
N20   N     N_R   0.124790 0.077180 0.556600 -0.036865
C29   C     C_R   0.424983 0.605499 0.198708 -0.088966
C30   C     C_R   0.575488 0.605094 0.801708 -0.082281
C31   C     C_R   0.924496 0.105261 0.198229 -0.079795
C32   C     C_R   0.072570 0.112737 0.795669 -0.047703
H21   H     H_    0.455791 0.603728 0.170680 0.129045
H22   H     H_    0.545046 0.603029 0.830377 0.124333
H23   H     H_    0.954919 0.103204 0.169528 0.125364
H24   H     H_    0.039583 0.118801 0.819339 0.136902
N21   N     N_R   0.445430 0.577570 0.294580 -0.062075
N22   N     N_R   0.554570 0.577570 0.705420 -0.061861
N23   N     N_R   0.945430 0.077570 0.294580 -0.061553
N24   N     N_R   0.054570 0.077570 0.705420 -0.067688
C33   C     C_R   0.667777 0.597819 0.804589 -0.022418
C34   C     C_R   0.332384 0.598028 0.195004 -0.033328
C35   C     C_R   0.166266 0.102552 0.801865 -0.034905
C36   C     C_R   0.832237 0.098243 0.195508 -0.012091
N25   N     N_R   0.611620 0.576500 0.705460 -0.046821
N26   N     N_R   0.388380 0.576500 0.294540 -0.045151
N27   N     N_R   0.111620 0.076500 0.705460 -0.039849
N28   N     N_R   0.888380 0.076500 0.294540 -0.047691
C37   C     C_R   0.387882 0.601810 0.593714 -0.080959
C38   C     C_R   0.612227 0.601778 0.406355 -0.084203
C39   C     C_R   0.887512 0.101164 0.593503 -0.084476
C40   C     C_R   0.112551 0.101242 0.406417 -0.081833
H25   H     H_    0.408213 0.595098 0.677856 0.099335
H26   H     H_    0.592023 0.595189 0.322301 0.097409
H27   H     H_    0.907607 0.093966 0.677461 0.098588
H28   H     H_    0.092444 0.094273 0.322460 0.100084
N29   N     N_R   0.421010 0.576890 0.556640 -0.054631
N30   N     N_R   0.578990 0.576890 0.443360 -0.054580
N31   N     N_R   0.921010 0.076890 0.556640 -0.055038
N32   N     N_R   0.078990 0.076890 0.443360 -0.054310
Ni1   Ni    Ni4+2 0.383200 0.500680 0.370150 0.285504
Ni2   Ni    Ni4+2 0.616800 0.500680 0.629850 0.287843
Ni3   Ni    Ni4+2 0.883200 0.000680 0.370150 0.287838
Ni4   Ni    Ni4+2 0.116800 0.000680 0.629850 0.286297
Ni5   Ni    Ni4+2 0.512440 0.500680 0.370150 0.222009
Ni6   Ni    Ni4+2 0.487560 0.500680 0.629850 0.227961
Ni7   Ni    Ni4+2 0.012440 0.000680 0.370150 0.226993
Ni8   Ni    Ni4+2 0.987560 0.000680 0.629850 0.224009
C41   C     C_R   0.319611 0.616858 0.504335 -0.017013
C42   C     C_R   0.680492 0.616642 0.495788 -0.013628
C43   C     C_R   0.819066 0.115488 0.504069 -0.011036
C44   C     C_R   0.181109 0.115214 0.495781 -0.007550
C45   C     C_R   0.354547 0.619564 0.135686 -0.085882
C46   C     C_R   0.646034 0.619017 0.864376 -0.073410
C47   C     C_R   0.853963 0.119228 0.135619 -0.072662
C48   C     C_R   0.142258 0.130625 0.856493 -0.087004
C49   C     C_2   0.721398 0.669380 0.403385 -0.098685
C50   C     C_2   0.278903 0.669282 0.597005 -0.089778
C51   C     C_2   0.224732 0.162927 0.403775 -0.080290
C52   C     C_2   0.776664 0.165270 0.595929 -0.100600
C53   C     C_2   0.737645 0.632458 0.492168 -0.105841
C54   C     C_2   0.262539 0.632717 0.508129 -0.107574
C55   C     C_2   0.239046 0.127436 0.492389 -0.124074
C56   C     C_2   0.761519 0.128844 0.507691 -0.105909
H29   H     H_    0.667928 0.672800 0.328388 0.113342
H30   H     H_    0.332376 0.672291 0.671995 0.114075
H31   H     H_    0.171378 0.168642 0.328998 0.136626
H32   H     H_    0.830148 0.170384 0.670451 0.117930
C57   C     C_2   0.272887 0.217925 0.412996 -0.004811
C58   C     C_2   0.729809 0.221985 0.586529 0.005742
C59   C     C_2   0.766313 0.728488 0.412707 0.001678
C60   C     C_2   0.234186 0.728642 0.587796 0.002954
C61   C     C_2   0.308027 0.265899 0.498530 -0.151707
C62   C     C_2   0.693775 0.269016 0.499775 -0.136581
C63   C     C_2   0.799182 0.776920 0.497630 -0.151035
C64   C     C_2   0.201172 0.777227 0.502711 -0.156712
H33   H     H_    0.270934 0.226623 0.342171 0.155229
H34   H     H_    0.733727 0.232919 0.658376 0.101011
H35   H     H_    0.764783 0.738291 0.342744 0.106384
H36   H     H_    0.235961 0.738481 0.657902 0.107073
H37   H     H_    0.308181 0.259015 0.567938 0.138216
H38   H     H_    0.691882 0.260746 0.428945 0.128514
H39   H     H_    0.799104 0.769094 0.566690 0.128855
H40   H     H_    0.201048 0.769473 0.433479 0.126202
H41   H     H_    0.283581 0.737060 0.067255 0.176753
H42   H     H_    0.711344 0.740206 0.932139 0.185658
H43   H     H_    0.793517 0.243347 0.068835 0.189953
H44   H     H_    0.222943 0.232339 0.887693 0.199705
C65   C     C_2   0.664959 0.276525 0.902866 -0.099844
C66   C     C_2   0.324241 0.311800 0.059225 -0.098464
C67   C     C_2   0.159125 0.769931 0.892673 -0.087089
C68   C     C_2   0.838156 0.772739 0.103631 -0.095172
C69   C     C_2   0.705013 0.226156 0.897464 0.022424
C70   C     C_2   0.295357 0.247829 0.063657 0.002397
C71   C     C_2   0.202488 0.721990 0.892063 0.025478
C72   C     C_2   0.795907 0.723877 0.105952 0.026519
C73   C     C_2   0.307095 0.639194 0.020514 0.311781
C74   C     C_2   0.694198 0.637551 0.979799 0.293048
C75   C     C_2   0.805821 0.138096 0.020393 0.294802
C76   C     C_2   0.184250 0.175260 0.956251 0.311939
C77   C     C_2   0.267695 0.700600 0.998504 -0.422074
C78   C     C_2   0.730237 0.701808 0.000767 -0.410507
C79   C     C_2   0.772061 0.204042 0.000460 -0.407407
C80   C     C_2   0.230360 0.221155 0.962730 -0.406647
C81   C     C_2   0.811205 0.614105 0.588725 0.577467
H45   H     H_    0.823562 0.595140 0.665197 0.005782
O1    O     O_2   0.858549 0.617212 0.582543 -0.518012
C82   C     C_2   0.188943 0.614777 0.411699 0.579645
H46   H     H_    0.176486 0.596097 0.335158 0.008103
O2    O     O_2   0.141679 0.617916 0.418067 -0.516776
C83   C     C_2   0.311666 0.105468 0.588590 0.568441
H47   H     H_    0.323309 0.087893 0.665041 0.004657
O3    O     O_2   0.358929 0.103984 0.582129 -0.533101
C84   C     C_2   0.688672 0.107448 0.412212 0.567589
H48   H     H_    0.676756 0.088777 0.336039 0.003485
O4    O     O_2   0.641561 0.107654 0.419052 -0.525435
C85   C     C_2   0.690859 0.206173 0.792365 0.632165
H49   H     H_    0.733075 0.185535 0.793545 -0.002293
O5    O     O_2   0.631958 0.209877 0.704903 -0.538537
C86   C     C_2   0.329635 0.201788 0.166989 0.598967
H50   H     H_    0.304913 0.150490 0.167085 0.041564
O6    O     O_2   0.387413 0.217758 0.251328 -0.555101
C87   C     C_2   0.193765 0.705296 0.790495 0.636654
H51   H     H_    0.238811 0.689741 0.796256 -0.002471
O7    O     O_2   0.136190 0.706757 0.700461 -0.529854
C88   C     C_2   0.806183 0.705815 0.208605 0.633377
H52   H     H_    0.762036 0.687758 0.203976 -0.007327
O8    O     O_2   0.864030 0.708391 0.298082 -0.531628
N33   N     N_R   0.290658 0.583026 0.940682 0.220460
O9    O     O_R   0.341024 0.551943 0.946062 -0.436671
O10   O     O_R   0.229250 0.551221 0.879991 -0.398672
N34   N     N_R   0.716036 0.578221 0.059155 0.229362
O11   O     O_R   0.668875 0.536418 0.050561 -0.415774
O12   O     O_R   0.780381 0.554032 0.120850 -0.380437
N35   N     N_R   0.780525 0.077885 0.941430 0.228645
O13   O     O_R   0.825368 0.033637 0.946957 -0.412389
O14   O     O_R   0.715874 0.055566 0.884252 -0.387602
N36   N     N_R   0.174414 0.171386 0.038143 0.234438
O15   O     O_R   0.187329 0.230563 0.098612 -0.430888
O16   O     O_R   0.145593 0.111494 0.044502 -0.417504
C89   C     C_2   0.665932 0.284066 0.999012 0.546597
H53   H     H_    0.646864 0.336188 0.009982 0.049808
O17   O     O_2   0.685699 0.232031 0.064542 -0.608891
C90   C     C_2   0.309350 0.344957 0.958702 0.530249
H54   H     H_    0.306209 0.406458 0.948159 0.112384
O18   O     O_2   0.305577 0.304673 0.891349 -0.581591
C91   C     C_2   0.153620 0.772522 0.982652 0.531614
H55   H     H_    0.134401 0.823810 0.995084 0.013763
O19   O     O_2   0.168038 0.717182 0.041026 -0.599120
C92   C     C_2   0.840978 0.777769 0.010985 0.547734
H56   H     H_    0.860462 0.829327 0.999554 0.041123
O20   O     O_2   0.823960 0.724199 0.949061 -0.605695
C93   C     C_2   0.738970 0.569805 0.855036 0.527618
H57   H     H_    0.782931 0.588302 0.936365 0.121110
O21   O     O_2   0.748773 0.521753 0.809354 -0.628653
C94   C     C_2   0.261114 0.569981 0.143705 0.516996
H58   H     H_    0.217891 0.585968 0.060352 0.124213
O22   O     O_2   0.250476 0.524516 0.191159 -0.624202
C95   C     C_2   0.238745 0.077441 0.855479 0.461168
H59   H     H_    0.282313 0.101962 0.932685 0.042804
O23   O     O_2   0.250322 0.025458 0.816728 -0.615522
C96   C     C_2   0.760889 0.071330 0.145480 0.531118
H60   H     H_    0.716701 0.092111 0.065595 0.118395
O24   O     O_2   0.751111 0.021878 0.189798 -0.633403

loop_
_geom_bond_atom_site_label_1
_geom_bond_atom_site_label_2
_geom_bond_distance
_ccdc_geom_bond_type
C26   H18   1.075408 S    
C35   N27   1.324685 A    
C83   H47   1.082758 S    
C81   H45   1.082943 S    
C70   C86   1.503385 S    
C30   N22   1.339479 A    
C89   H53   1.085654 S    
N18   Ni2   1.845851 S    
C29   N21   1.337710 A    
C6    H6    1.077916 S    
C66   C90   1.487050 S    
C32   H24   1.081372 S    
C24   C63   1.439949 S    
C31   N23   1.338999 A    
C12   C24   1.375562 A    
N19   Ni3   1.849100 S    
C14   C17   1.362663 A    
C2    H2    1.078618 S    
C93   H57   1.082931 S    
C30   C46   1.375777 A    
C75   N35   1.437360 S    
N31   Ni8   1.846680 S    
H42   C78   1.091466 S    
C29   C45   1.372804 A    
N8    N12   1.381725 A    
N30   Ni5   1.850623 S    
C17   C66   1.427486 S    
C4    C20   1.384715 A    
N12   Ni3   1.862803 S    
C1    H1    1.080211 S    
C76   C80   1.336498 D    
C70   C80   1.452361 S    
C8    H8    1.078481 S    
C9    C21   1.380625 A    
N4    Ni4   1.845845 S    
N24   N27   1.395094 A    
C59   C63   1.340618 D    
C87   O7    1.221579 D    
C42   C53   1.460259 S    
C51   H31   1.084849 S    
C11   C23   1.376253 A    
C41   C54   1.460056 S    
N16   Ni7   1.884436 S    
C56   C84   1.493415 S    
C23   C64   1.439395 S    
N14   Ni5   1.884436 S    
C37   C41   1.378381 A    
C40   H28   1.081343 S    
C32   N24   1.335978 A    
C35   C95   1.478873 S    
C50   C54   1.342764 D    
C73   C77   1.336978 D    
C39   C43   1.378763 A    
C25   H17   1.074812 S    
N33   O10   1.301429 A    
C65   C69   1.358849 D    
C84   H48   1.082985 S    
C46   C74   1.447083 S    
C49   C53   1.342730 D    
C2    C18   1.380201 A    
C27   N19   1.338622 A    
C62   H38   1.086166 S    
C10   N10   1.327597 A    
C33   C93   1.477629 S    
C68   C72   1.359182 D    
C86   O6    1.221375 D    
C85   O5    1.221565 D    
C33   C46   1.381371 A    
C30   H22   1.081649 S    
C27   C43   1.379737 A    
C29   H21   1.081623 S    
N36   O15   1.301758 A    
N8    Ni8   1.867496 S    
C67   C71   1.356845 D    
C4    N4    1.329496 A    
C73   N33   1.435024 S    
C4    H4    1.078332 S    
C7    N7    1.339602 A    
C15   C20   1.377021 A    
C72   C78   1.463217 S    
N1    N14   1.361835 A    
C8    N8    1.340437 A    
C52   C58   1.452493 S    
N25   Ni2   1.832745 S    
C88   O8    1.221576 D    
C13   H13   1.078101 S    
C89   O17   1.219802 D    
N3    N16   1.361835 A    
C58   C62   1.339552 D    
N4    N15   1.361846 A    
C10   C22   1.378768 A    
N23   N28   1.395106 A    
C57   H33   1.085622 S    
C26   N18   1.337894 A    
C33   N25   1.331695 A    
C38   H26   1.081273 S    
C5    C21   1.382928 A    
C93   O21   1.219445 D    
C9    H9    1.077767 S    
N6    N10   1.381725 A    
C69   C85   1.491108 S    
C31   H23   1.081670 S    
N10   Ni1   1.862803 S    
C54   C82   1.493665 S    
C11   H11   1.078511 S    
C91   H55   1.085458 S    
H44   C80   1.083893 S    
C36   N28   1.330941 A    
N2    Ni2   1.845845 S    
C1    N1    1.330405 A    
C94   H58   1.082705 S    
C44   C55   1.466311 S    
N11   Ni4   1.866044 S    
C95   H59   1.083319 S    
C59   H35   1.081313 S    
C3    C19   1.382442 A    
C40   C44   1.380153 A    
C15   H15   1.077638 S    
C72   C88   1.490583 S    
C11   N11   1.324797 A    
N6    Ni6   1.867496 S    
C22   C61   1.443370 S    
C31   C47   1.374885 A    
C71   C77   1.462493 S    
N9    Ni2   1.866044 S    
C37   N29   1.328547 A    
C7    C23   1.382900 A    
C7    H7    1.078660 S    
C87   H51   1.082848 S    
C8    C24   1.383436 A    
C28   C44   1.381306 A    
C74   N34   1.437327 S    
C95   O23   1.219878 D    
C83   O3    1.221532 D    
C25   C41   1.379472 A    
C12   H12   1.078399 S    
C60   C64   1.340162 D    
N7    Ni7   1.863544 S    
N19   N31   1.381696 A    
N2    N13   1.361846 A    
N24   Ni8   1.867611 S    
C34   C94   1.478165 S    
N23   Ni7   1.863557 S    
C50   C60   1.448898 S    
C96   O24   1.219542 D    
C28   N20   1.338850 A    
N17   Ni1   1.849100 S    
H43   C79   1.091583 S    
C57   C61   1.341520 D    
N29   Ni6   1.846680 S    
N22   N25   1.395094 A    
N1    Ni1   1.849223 S    
C82   H46   1.082946 S    
C6    C22   1.386047 A    
C69   C79   1.461298 S    
N21   N26   1.395106 A    
N15   Ni8   1.880373 S    
C36   C47   1.380545 A    
C92   O20   1.219781 D    
C75   C79   1.337523 D    
C38   C42   1.379133 A    
C13   N13   1.338521 A    
C58   H34   1.080693 S    
C65   C89   1.490527 S    
N28   Ni3   1.829361 S    
N13   Ni6   1.880373 S    
C40   N32   1.332399 A    
C15   N15   1.335529 A    
C16   N16   1.337823 A    
C68   C92   1.490913 S    
N32   Ni7   1.850623 S    
C9    N9    1.327803 A    
C43   C56   1.462135 S    
C26   C42   1.379271 A    
C27   H19   1.075434 S    
N20   N32   1.381725 A    
C21   C62   1.441532 S    
N20   Ni4   1.845851 S    
C34   C45   1.383627 A    
C25   N17   1.338502 A    
N36   O16   1.300983 A    
C19   C68   1.454189 S    
C76   N36   1.440494 S    
C52   H32   1.084823 S    
C48   C76   1.449217 S    
C51   C55   1.345892 D    
C60   H36   1.080778 S    
C16   C19   1.380059 A    
C53   C81   1.493696 S    
C32   C48   1.375130 A    
C3    H3    1.078385 S    
C5    H5    1.079476 S    
C28   H20   1.075458 S    
C45   C73   1.446201 S    
N34   O11   1.300845 A    
C6    N6    1.340345 A    
N21   Ni5   1.863557 S    
C88   H52   1.083597 S    
N17   N29   1.381696 A    
C64   H40   1.086357 S    
C34   N26   1.332867 A    
N35   O13   1.300635 A    
C5    N5    1.337534 A    
C90   O18   1.220957 D    
C13   C18   1.378347 A    
C18   C65   1.451230 S    
N18   N30   1.381725 A    
H41   C77   1.091529 S    
C36   C96   1.477249 S    
C20   C67   1.452972 S    
C82   O2    1.221549 D    
C63   H39   1.086370 S    
C51   C57   1.457623 S    
C84   O4    1.221530 D    
N22   Ni6   1.867611 S    
C71   C87   1.489946 S    
C92   H56   1.085573 S    
C37   H25   1.081263 S    
N33   O9    1.300477 A    
C49   C59   1.449305 S    
N7    N11   1.381697 A    
C55   C83   1.493946 S    
C14   N14   1.329084 A    
C3    N3    1.328630 A    
C74   C78   1.338547 D    
C39   H27   1.081267 S    
N27   Ni4   1.832745 S    
C14   H14   1.080416 S    
C52   C56   1.343663 D    
C16   H16   1.078076 S    
N5    N9    1.381697 A    
C90   H54   1.083970 S    
C12   N12   1.324530 A    
C49   H29   1.084624 S    
C81   O1    1.221548 D    
C85   H49   1.083082 S    
C66   C70   1.348443 D    
C47   C75   1.444331 S    
C35   C48   1.391436 A    
C91   O19   1.219590 D    
N3    Ni3   1.849223 S    
C61   H37   1.086325 S    
C50   H30   1.084549 S    
C67   C91   1.491297 S    
C39   N31   1.330183 A    
N26   Ni1   1.829361 S    
C1    C17   1.378858 A    
C96   H60   1.083153 S    
C38   N30   1.329220 A    
N5    Ni5   1.863544 S    
C86   H50   1.083091 S    
C94   O22   1.218937 D    
N34   O12   1.301522 A    
N35   O14   1.301487 A    
C10   H10   1.079005 S    
C2    N2    1.327650 A    
