data_mof_unit_2770.cif
_audit_creation_date              2012-12-11T17:06:30-0500
_audit_creation_method            fapswitch 2.2
_symmetry_space_group_name_H-M    P1
_symmetry_Int_Tables_number       1
_space_group_crystal_system       triclinic
_cell_length_a                    6.972537
_cell_length_b                    14.507893
_cell_length_c                    15.982378
_cell_angle_alpha                 90.434533
_cell_angle_beta                  90.044041
_cell_angle_gamma                 90.024199
_cell_volume                      1616.67942561

loop_
_atom_site_label
_atom_site_type_symbol
_atom_type_description
_atom_site_fract_x
_atom_site_fract_y
_atom_site_fract_z
_atom_type_partial_charge
O1    O     O_R   0.494400 0.415450 0.412630 -0.548525
O2    O     O_R   0.823940 0.405730 0.586760 -0.543251
O3    O     O_R   0.994240 0.584550 0.587370 -0.533008
C1    C     C_R   0.655048 0.383144 0.614884 0.731566
O4    O     O_R   0.824110 0.404430 0.413240 -0.535327
O5    O     O_R   0.994420 0.583240 0.412620 -0.524535
C2    C     C_R   0.655178 0.382029 0.384402 0.705224
O6    O     O_R   0.494230 0.416760 0.587380 -0.530209
O7    O     O_3   0.660800 0.558670 0.500000 -0.354203
V1    V     V_3+5 0.935650 0.489120 0.500000 1.488972
O8    O     O_R   0.324140 0.594270 0.413240 -0.538311
C3    C     C_R   0.154797 0.617492 0.385480 0.741958
O9    O     O_R   0.323960 0.595570 0.586760 -0.545656
C4    C     C_R   0.155229 0.616847 0.615915 0.745614
V2    V     V_3+5 0.435660 0.510880 0.500000 1.476563
O10   O     O_3   0.160640 0.441330 0.500000 -0.373013
C5    C     C_3   0.008421 0.680895 0.761100 0.162648
C6    C     C_3   0.172596 0.706986 0.820923 0.272158
C7    C     C_3   0.121217 0.809787 0.810269 -0.106738
C8    C     C_3   0.958187 0.782530 0.750586 0.167181
C9    C     C_3   0.092734 0.789273 0.674355 -0.138605
C10   C     C_3   0.259676 0.816283 0.734680 -0.199997
C11   C     C_3   0.311597 0.712498 0.745314 -0.182598
C12   C     C_3   0.144393 0.686192 0.685863 -0.098492
H1    H     H_    0.058066 0.823157 0.614165 0.169417
H2    H     H_    0.363417 0.873018 0.724008 0.163324
H3    H     H_    0.456951 0.681743 0.743338 0.129933
C13   C     C_R   0.250322 0.739637 0.180458 0.153609
C14   C     C_R   0.117072 0.811708 0.179885 -0.146452
C15   C     C_R   0.982522 0.814667 0.245675 -0.205850
H4    H     H_    0.874270 0.868205 0.246713 0.153550
C16   C     C_R   0.995871 0.753761 0.314155 0.246690
C17   C     C_R   0.141054 0.685068 0.316359 -0.145600
C18   C     C_R   0.260238 0.677392 0.246024 0.040251
C19   C     C_3   0.473255 0.670408 0.239254 -0.400705
C20   C     C_3   0.462181 0.739096 0.167817 -0.361261
H5    H     H_    0.520244 0.600597 0.218764 0.171271
H6    H     H_    0.547512 0.697925 0.295493 0.226528
H7    H     H_    0.503178 0.708798 0.106302 0.203231
H8    H     H_    0.529878 0.806605 0.183020 0.177611
C21   C     C_R   0.482370 0.307574 0.733827 0.067507
C22   C     C_R   0.646008 0.315916 0.684057 -0.067927
C23   C     C_R   0.799913 0.256897 0.701210 -0.143880
H9    H     H_    0.922574 0.257359 0.660920 0.182973
C24   C     C_R   0.789601 0.191722 0.765677 -0.150090
H10   H     H_    0.907105 0.144085 0.773817 0.141945
C25   C     C_R   0.623795 0.183733 0.815220 -0.085285
C26   C     C_R   0.472911 0.244946 0.799726 0.064632
C27   C     C_3   0.270007 0.221149 0.780590 -0.429937
C28   C     C_3   0.283625 0.285011 0.706174 0.102259
H11   H     H_    0.171648 0.246982 0.830184 0.155342
H12   H     H_    0.251312 0.147131 0.763887 0.201946
H13   H     H_    0.186869 0.345757 0.710021 0.113107
C29   C     C_R   0.491393 0.250216 0.309011 0.091484
C30   C     C_R   0.646734 0.311110 0.317092 -0.124744
C31   C     C_R   0.798490 0.300950 0.259611 -0.115725
H14   H     H_    0.920710 0.346560 0.263116 0.129261
C32   C     C_R   0.787920 0.236364 0.193403 -0.168558
H15   H     H_    0.903601 0.233180 0.148473 0.127468
C33   C     C_R   0.623749 0.181067 0.181871 -0.104721
C34   C     C_R   0.479576 0.187597 0.242385 0.066013
C35   C     C_3   0.270227 0.202929 0.230612 -0.392533
C36   C     C_3   0.281510 0.270666 0.303599 -0.000809
H16   H     H_    0.185019 0.139728 0.243222 0.187761
H17   H     H_    0.238596 0.236807 0.170018 0.145885
H18   H     H_    0.250151 0.343400 0.286869 0.124620
O11   O     O_R   0.771650 0.079500 0.908680 -0.543328
O12   O     O_R   0.441690 0.091800 0.082800 -0.542979
O13   O     O_R   0.271460 0.912980 0.083410 -0.537340
C37   C     C_R   0.610847 0.114407 0.111378 0.695100
O14   O     O_R   0.441930 0.090510 0.909280 -0.542918
O15   O     O_R   0.271690 0.911670 0.908660 -0.535011
C38   C     C_R   0.610915 0.112657 0.880850 0.706069
O16   O     O_R   0.771410 0.080810 0.083440 -0.544157
O17   O     O_3   0.605100 0.937580 0.996050 -0.363459
V3    V     V_3+5 0.330220 0.007110 0.996030 1.431567
O18   O     O_R   0.941980 0.900620 0.909250 -0.529991
C39   C     C_R   0.110608 0.879310 0.880130 0.764617
O19   O     O_R   0.941740 0.901920 0.082770 -0.542360
C40   C     C_R   0.110400 0.880158 0.111628 0.734011
V4    V     V_3+5 0.830220 0.985300 0.996000 1.446356
O20   O     O_3   0.105210 0.054870 0.996020 -0.381371
Br1   Br    Br    0.230100 0.647422 0.926056 -0.590521
Br2   Br    Br    0.280311 0.216621 0.600205 -0.584816
N1    N     N_3   0.871194 0.607049 0.775887 -0.640640
H19   H     H_    0.794782 0.624119 0.830044 0.254626
H20   H     H_    0.772970 0.607255 0.726504 0.218336
N2    N     N_3   0.174718 0.238915 0.376744 -0.607563
H21   H     H_    0.205300 0.283909 0.426189 0.284812
H22   H     H_    0.222778 0.173585 0.394591 0.271866
N3    N     N_3   0.765828 0.821288 0.752643 -0.651042
H23   H     H_    0.692399 0.794844 0.700773 0.233809
H24   H     H_    0.697537 0.796362 0.806074 0.238221
Br3   Br    Br    0.830541 0.776822 0.408144 -0.574851

loop_
_geom_bond_atom_site_label_1
_geom_bond_atom_site_label_2
_ccdc_geom_bond_type
C16   Br3   S    
C30   C31   A    
C36   N2    S    
C21   C22   A    
C7    C8    S    
C2    C30   S    
C1    O6    A    
V4    O20   S    
C28   Br2   S    
N1    H19   S    
C14   C15   A    
C5    N1    S    
C13   C14   A    
C19   H5    S    
C6    C7    S    
O5    C3    A    
O14   V3    S    
C29   C36   S    
C32   C33   A    
V2    O10   S    
C5    C8    S    
C31   H14   S    
O13   V3    S    
C5    C6    S    
C18   C19   S    
C4    C12   S    
C35   H16   S    
O8    V2    S    
C19   C20   S    
C27   H11   S    
C37   O16   A    
O15   C39   A    
C11   C12   S    
O11   C38   A    
C33   C37   S    
O7    V1    S    
O15   V3    S    
C24   C25   A    
C36   H18   S    
C13   C18   A    
O9    C4    A    
C10   C11   S    
C6    Br1   S    
N1    H20   S    
C8    N3    S    
C28   H13   S    
C6    C11   S    
C5    C12   S    
C20   H8    S    
C7    C10   S    
C25   C38   S    
V3    O20   S    
N3    H23   S    
O4    C2    A    
O17   V4    S    
C32   H15   S    
C24   H10   S    
C33   C34   A    
C7    C39   S    
O2    C1    A    
O17   V3    S    
C35   C36   S    
N3    H24   S    
C25   C26   A    
O18   V4    S    
C27   H12   S    
C19   H6    S    
C17   C18   A    
C8    C9    S    
C23   C24   A    
O3    C4    A    
O1    V2    S    
C26   C27   S    
N2    H22   S    
O11   V4    S    
O6    V2    S    
C11   H3    S    
O9    V2    S    
C23   H9    S    
C22   C23   A    
O16   V4    S    
O2    V1    S    
C21   C28   S    
O19   V4    S    
C9    H1    S    
C29   C30   A    
C35   H17   S    
O1    C2    A    
C20   H7    S    
O5    V1    S    
O8    C3    A    
C29   C34   A    
O12   V3    S    
C16   C17   A    
O7    V2    S    
O4    V1    S    
O3    V1    S    
V1    O10   S    
C15   C16   A    
C15   H4    S    
C14   C40   S    
C1    C22   S    
C21   C26   A    
C31   C32   A    
C34   C35   S    
O19   C40   A    
N2    H21   S    
C13   C20   S    
O12   C37   A    
C27   C28   S    
C10   H2    S    
C9    C12   S    
O14   C38   A    
O18   C39   A    
O13   C40   A    
C3    C17   S    
C9    C10   S    
