data_mof_unit_2603.cif
_audit_creation_date              2012-12-10T20:27:59-0500
_audit_creation_method            fapswitch 2.2
_symmetry_space_group_name_H-M    P1
_symmetry_Int_Tables_number       1
_space_group_crystal_system       triclinic
_cell_length_a                    12.851906
_cell_length_b                    10.669294
_cell_length_c                    9.87243
_cell_angle_alpha                 89.820287
_cell_angle_beta                  97.533831
_cell_angle_gamma                 89.93971
_cell_volume                      1342.02128949

loop_
_atom_site_label
_atom_site_type_symbol
_atom_type_description
_atom_site_fract_x
_atom_site_fract_y
_atom_site_fract_z
_atom_type_partial_charge
Br1   Br    Br    0.435380 0.851139 0.872999 -0.459006
Br2   Br    Br    0.049296 0.639760 0.832406 -0.605741
Br3   Br    Br    0.629889 0.858824 0.258367 -0.447637
C1    C     C_R   0.502585 0.260159 0.500820 0.898689
C2    C     C_R   0.566379 0.937261 0.402570 0.290418
C3    C     C_R   0.521446 0.871413 0.505062 -0.235300
C4    C     C_R   0.298196 0.499951 0.472948 0.900707
C5    C     C_R   0.494723 0.935686 0.618302 0.048299
C6    C     C_3   0.400271 0.927792 0.693093 0.458340
C7    C     C_3   0.400113 0.070716 0.693819 -0.540416
C8    C     C_R   0.407834 0.503498 0.055463 0.268041
C9    C     C_R   0.591325 0.507287 0.087206 -0.071405
C10   C     C_R   0.591303 0.507390 0.943506 -0.096261
C11   C     C_R   0.407865 0.502921 0.913030 0.293814
C12   C     C_R   0.028887 0.521712 0.560379 0.080963
C13   C     C_3   0.322488 0.407756 0.893379 -0.503834
C14   C     C_3   0.321710 0.409326 0.046857 -0.523741
C15   C     C_R   0.505564 0.739763 0.500634 0.935419
C16   C     C_R   0.701776 0.499121 0.527276 0.903698
C17   C     C_R   0.813984 0.498596 0.545035 -0.090362
C18   C     C_R   0.186065 0.494210 0.456826 -0.107666
C19   C     C_R   0.023895 0.415989 0.337786 0.221830
C20   C     C_R   0.131303 0.433202 0.344967 -0.207646
C21   C     C_R   0.135350 0.539458 0.562560 -0.256180
C22   C     C_3   0.938967 0.424021 0.104923 -0.720660
C23   C     C_R   0.971884 0.461300 0.445571 0.079624
C24   C     C_3   0.211424 0.878165 0.668407 -0.666641
C25   C     C_R   0.864186 0.451596 0.439597 -0.268181
C26   C     C_R   0.870205 0.550617 0.661708 -0.213289
C27   C     C_R   0.977897 0.563279 0.670064 0.260382
C28   C     C_R   0.494016 0.063128 0.619463 0.065314
C29   C     C_R   0.517643 0.128915 0.506064 -0.144778
C30   C     C_R   0.562859 0.067277 0.403157 -0.243898
H1    H     H_    0.817744 0.410990 0.351323 0.161343
H2    H     H_    0.830098 0.585842 0.743788 0.186974
H3    H     H_    0.172463 0.393719 0.266323 0.163029
H4    H     H_    0.180300 0.587491 0.647118 0.208943
H5    H     H_    0.591395 0.119293 0.321085 0.193385
H6    H     H_    0.915732 0.285136 0.247461 0.227271
H7    H     H_    0.007606 0.473185 0.072168 0.285135
H8    H     H_    0.904172 0.363030 0.019978 0.242169
H9    H     H_    0.879245 0.493922 0.126765 0.235385
H10   H     H_    0.300135 0.899702 0.509022 0.210573
H11   H     H_    0.148899 0.831032 0.598451 0.242802
H12   H     H_    0.331658 0.114909 0.630743 0.179379
H13   H     H_    0.187488 0.976876 0.682061 0.232501
H14   H     H_    0.219086 0.828546 0.768073 0.298796
H15   H     H_    0.420049 0.111647 0.797265 0.224226
H16   H     H_    0.665354 0.511373 0.152930 0.159821
H17   H     H_    0.665094 0.511481 0.902215 0.151868
H18   H     H_    0.249170 0.445842 0.835909 0.237590
H19   H     H_    0.349134 0.317149 0.854640 0.208735
H20   H     H_    0.248401 0.450297 0.075910 0.226625
H21   H     H_    0.346783 0.319191 0.097956 0.219057
N1    N     N_R   0.499290 0.499140 0.142710 -0.115304
N2    N     N_R   0.499290 0.499180 0.857070 -0.114542
N3    N     N_2   0.971560 0.348329 0.224728 -0.320047
N4    N     N_2   0.309166 0.873307 0.610608 -0.319337
O1    O     O_R   0.500010 0.316790 0.614690 -0.613544
O2    O     O_R   0.500000 0.316760 0.385350 -0.632233
O3    O     O_R   0.346360 0.499990 0.595720 -0.619852
O4    O     O_R   0.346350 0.499960 0.366370 -0.622813
O5    O     O_R   0.500000 0.683240 0.614650 -0.581791
O6    O     O_R   0.499990 0.683210 0.385310 -0.566643
O7    O     O_R   0.653650 0.500040 0.633630 -0.637778
O8    O     O_R   0.653640 0.500010 0.404280 -0.624586
Zn1   Zn    Zn3+2 0.500010 0.500020 0.653130 0.982940
Zn2   Zn    Zn3+2 0.499990 0.499980 0.346870 0.987026

loop_
_geom_bond_atom_site_label_1
_geom_bond_atom_site_label_2
_ccdc_geom_bond_type
C22   H9    S    
O8    Zn2   S    
C4    O4    A    
C16   O7    A    
C26   C27   A    
N2    Zn1   S    
C1    O1    A    
C6    C7    S    
O3    Zn1   S    
C11   N2    A    
C16   C17   S    
O7    Zn1   S    
C13   H18   S    
O4    Zn2   S    
Br2   C27   S    
C10   N2    A    
C29   C30   A    
C1    O2    A    
C7    H12   S    
N1    Zn2   S    
C25   H1    S    
C22   H8    S    
C14   H21   S    
C15   O6    A    
C1    C29   S    
C22   N3    S    
C19   N3    S    
O6    Zn2   S    
C24   H13   S    
C12   C21   A    
C7    C28   S    
C11   C13   S    
C17   C26   A    
C18   C20   A    
C22   H7    S    
C7    H15   S    
C2    C3    A    
C3    C15   S    
C8    C11   A    
O5    Zn1   S    
C15   O5    A    
C8    N1    A    
C9    N1    A    
C13   C14   S    
C19   C23   A    
C10   H17   S    
H6    N3    S    
C14   H20   S    
C9    H16   S    
Br1   C6    S    
C9    C10   A    
O2    Zn2   S    
C16   O8    A    
C21   H4    S    
C20   H3    S    
C12   C27   A    
C18   C21   A    
C24   H14   S    
C13   H19   S    
C26   H2    S    
C19   C20   A    
C6    N4    S    
C12   C23   A    
C3    C5    A    
C17   C25   A    
H10   N4    S    
O1    Zn1   S    
C4    C18   S    
C5    C28   A    
C23   C25   A    
C24   H11   S    
C28   C29   A    
C4    O3    A    
C30   H5    S    
C2    C30   A    
C5    C6    S    
Br3   C2    S    
C24   N4    S    
C8    C14   S    
