data_mof_unit_427.cif
_audit_creation_date              2012-12-11T15:21:44-0500
_audit_creation_method            fapswitch 2.2
_symmetry_space_group_name_H-M    P1
_symmetry_Int_Tables_number       1
_space_group_crystal_system       triclinic
_cell_length_a                    19.458901
_cell_length_b                    7.146756
_cell_length_c                    17.447824
_cell_angle_alpha                 90.088241
_cell_angle_beta                  109.239087
_cell_angle_gamma                 90.181663
_cell_volume                      2290.90220146

loop_
_atom_site_label
_atom_site_type_symbol
_atom_type_description
_atom_site_fract_x
_atom_site_fract_y
_atom_site_fract_z
_atom_type_partial_charge
O1    O     O_R   0.562310 0.505770 0.439670 -0.536497
O2    O     O_R   0.437690 0.005770 0.560330 -0.532364
O3    O     O_R   0.411650 0.169150 0.405330 -0.540166
O4    O     O_R   0.588350 0.669150 0.594670 -0.539114
C1    C     C_R   0.384860 0.344904 0.382879 0.638155
C2    C     C_R   0.615142 0.846062 0.617564 0.630220
O5    O     O_R   0.560140 0.175610 0.430010 -0.531382
O6    O     O_R   0.439860 0.675610 0.569990 -0.533743
O7    O     O_R   0.587240 0.012100 0.585200 -0.540594
O8    O     O_R   0.412760 0.512100 0.414800 -0.539656
C3    C     C_R   0.580698 0.344590 0.414952 0.694408
C4    C     C_R   0.419926 0.844317 0.585639 0.694036
O9    O     O_3   0.508720 0.341420 0.550890 -0.371847
O10   O     O_3   0.491280 0.841420 0.449110 -0.369000
V1    V     V_3+5 0.498380 0.063930 0.490560 1.421377
V2    V     V_3+5 0.501620 0.563930 0.509440 1.419233
C5    C     C_R   0.201980 0.873743 0.899620 -0.083311
C6    C     C_R   0.813658 0.277304 0.117887 -0.067675
C7    C     C_R   0.127532 0.919830 0.860869 -0.266323
C8    C     C_R   0.869321 0.417278 0.135945 -0.257136
C9    C     C_R   0.101877 0.954088 0.775323 0.393761
C10   C     C_R   0.875947 0.545508 0.201104 0.443713
C11   C     C_R   0.149481 0.925238 0.729061 -0.085382
C12   C     C_R   0.822755 0.544252 0.240864 -0.101595
C13   C     C_R   0.224073 0.888925 0.768735 -0.028317
C14   C     C_R   0.771147 0.397934 0.226106 -0.008334
C15   C     C_R   0.250949 0.867783 0.854218 0.109323
C16   C     C_R   0.766830 0.262809 0.165262 0.100164
C17   C     C_R   0.124172 0.932551 0.643200 -0.098779
C18   C     C_R   0.820477 0.686351 0.296298 -0.113841
C19   C     C_R   0.170841 0.919781 0.597193 0.401929
C20   C     C_R   0.775405 0.674911 0.344054 0.410323
C21   C     C_R   0.246021 0.893079 0.636892 -0.033439
C22   C     C_R   0.726763 0.522328 0.333142 -0.035035
C23   C     C_R   0.272417 0.875587 0.722675 0.029542
C24   C     C_R   0.723171 0.387161 0.272339 0.051154
C25   C     C_R   0.347610 0.846167 0.762630 0.145744
C26   C     C_R   0.671918 0.239527 0.258293 0.168525
C27   C     C_R   0.373955 0.832508 0.847133 -0.210812
C28   C     C_R   0.667689 0.107580 0.197883 -0.195086
C29   C     C_R   0.326785 0.844633 0.892208 -0.122939
C30   C     C_R   0.713606 0.119930 0.151481 -0.154914
C31   C     C_R   0.295636 0.882217 0.593384 -0.119686
C32   C     C_R   0.681026 0.501486 0.380547 -0.113615
C33   C     C_R   0.369869 0.852976 0.633257 -0.087026
C34   C     C_R   0.629726 0.356346 0.365946 -0.119184
C35   C     C_R   0.395701 0.833848 0.717753 -0.206978
C36   C     C_R   0.625116 0.226266 0.304389 -0.139414
H1    H     H_    0.067101 0.945470 0.609864 0.264659
H2    H     H_    0.853799 0.809950 0.303078 0.247735
H3    H     H_    0.277644 0.895085 0.528069 0.169808
H4    H     H_    0.685175 0.595605 0.430254 0.190420
H5    H     H_    0.453362 0.811755 0.748499 0.096666
H6    H     H_    0.585209 0.114276 0.292556 0.129096
H7    H     H_    0.431618 0.813789 0.878820 0.121368
H8    H     H_    0.628306 0.994429 0.186019 0.120074
H9    H     H_    0.351329 0.839687 0.957392 0.165395
H10   H     H_    0.706291 0.015363 0.104746 0.158016
C37   C     C_3   0.821956 0.786183 0.743808 -0.257043
C38   C     C_3   0.207295 0.197848 0.208025 -0.297091
H11   H     H_    0.862802 0.850609 0.720372 0.243907
H12   H     H_    0.162859 0.126002 0.223715 0.153278
H13   H     H_    0.843015 0.646433 0.768465 0.142699
H14   H     H_    0.211910 0.127757 0.152921 0.135122
C39   C     C_3   0.749422 0.759914 0.672354 -0.312870
C40   C     C_3   0.279742 0.171150 0.278616 -0.331895
H15   H     H_    0.735907 0.608225 0.663734 0.148422
H16   H     H_    0.318432 0.090667 0.256550 0.144162
H17   H     H_    0.756198 0.811842 0.615209 0.191889
H18   H     H_    0.269537 0.087577 0.327605 0.150097
H19   H     H_    0.823067 0.174008 0.751984 0.190424
H20   H     H_    0.138743 0.433705 0.285729 0.207998
H21   H     H_    0.717285 0.137172 0.647435 0.153415
H22   H     H_    0.245310 0.392099 0.390377 0.174814
C41   C     C_3   0.782439 0.103411 0.774514 -0.327058
C42   C     C_3   0.183984 0.498620 0.269336 -0.269413
C43   C     C_3   0.752074 0.819016 0.841091 -0.314718
C44   C     C_3   0.252289 0.501668 0.170194 -0.296736
C45   C     C_3   0.811833 0.912099 0.812260 0.063799
C46   C     C_3   0.187899 0.409848 0.189795 0.039607
H23   H     H_    0.741834 0.907226 0.888726 0.154171
H24   H     H_    0.241677 0.653644 0.158589 0.156904
H25   H     H_    0.771200 0.680561 0.868936 0.138600
H26   H     H_    0.257158 0.437471 0.114122 0.177267
C47   C     C_3   0.686698 0.866866 0.688938 0.086125
C48   C     C_3   0.313313 0.363045 0.312426 0.085074
C49   C     C_3   0.710402 0.077679 0.703424 -0.287680
C50   C     C_3   0.256296 0.470412 0.340561 -0.296027
C51   C     C_3   0.679510 0.791708 0.769279 -0.333429
C52   C     C_3   0.325072 0.475172 0.241266 -0.312040
H27   H     H_    0.664859 0.640508 0.762664 0.140286
H28   H     H_    0.364816 0.400803 0.218703 0.131208
H29   H     H_    0.634785 0.866250 0.782980 0.124225
H30   H     H_    0.348679 0.615232 0.263053 0.149711
H31   H     H_    0.773110 0.196252 0.821395 0.124063
H32   H     H_    0.173382 0.651080 0.260405 0.148392
H33   H     H_    0.667210 0.160076 0.716804 0.142567
H34   H     H_    0.278133 0.609936 0.365544 0.156722
O11   O     O_R   0.087220 0.271820 0.085230 -0.548527
O12   O     O_R   0.912780 0.771820 0.914770 -0.551001
O13   O     O_R   0.939860 0.595540 0.069990 -0.498527
O14   O     O_R   0.060140 0.095540 0.930010 -0.531235
C53   C     C_R   0.919471 0.426778 0.086129 0.778067
C54   C     C_R   0.077904 0.926842 0.911157 0.766232
O15   O     O_R   0.088340 0.601930 0.094680 -0.541366
O16   O     O_R   0.911660 0.101930 0.905320 -0.534013
O17   O     O_R   0.062310 0.765410 0.939660 -0.539706
O18   O     O_R   0.937690 0.265410 0.060340 -0.526886
C55   C     C_R   0.115996 0.431543 0.118454 0.691812
C56   C     C_R   0.883579 0.931710 0.882786 0.737064
O19   O     O_3   0.991270 0.429630 0.949130 -0.390435
O20   O     O_3   0.008730 0.929630 0.050870 -0.361225
V3    V     V_3+5 0.001620 0.707150 0.009440 1.520376
V4    V     V_3+5 0.998380 0.207150 0.990560 1.484443
C57   C     C_2   0.227450 0.832834 0.988205 0.344791
H35   H     H_    0.206775 0.912808 0.028780 0.013560
O21   O     O_2   0.268774 0.703225 0.015919 -0.556249
C58   C     C_2   0.802696 0.151637 0.046772 0.416478
H36   H     H_    0.794319 0.211426 0.987240 -0.022911
O22   O     O_2   0.807314 0.982033 0.055089 -0.527897
S1    S     S_3+6 0.011514 0.035348 0.723566 0.000929
O23   O     O_2   0.014921 0.194429 0.668483 -0.300237
O24   O     O_2   0.968943 0.877911 0.672196 -0.293015
O25   O     O_3   0.966437 0.111366 0.784195 -0.531572
H37   H     H_    0.974093 0.248653 0.788129 0.353178
S2    S     S_3+6 0.953789 0.695232 0.240808 0.066941
O26   O     O_2   0.933229 0.889713 0.208858 -0.319443
O27   O     O_2   0.976923 0.699477 0.331949 -0.239369
O28   O     O_3   0.025949 0.625056 0.216748 -0.519642
H38   H     H_    0.053329 0.741930 0.216429 0.352181
S3    S     S_3+6 0.132571 0.938523 0.489808 0.076550
O29   O     O_2   0.146210 0.760012 0.451508 -0.315980
O30   O     O_2   0.051967 0.972729 0.464276 -0.225092
O31   O     O_3   0.172297 0.117702 0.457782 -0.515776
H39   H     H_    0.154484 0.107760 0.397778 0.355947
S4    S     S_3+6 0.784780 0.850674 0.419199 0.036214
O32   O     O_2   0.823624 0.767012 0.500961 -0.290196
O33   O     O_2   0.828296 0.013942 0.405634 -0.271310
O34   O     O_3   0.702747 0.927560 0.417483 -0.542717
H40   H     H_    0.712534 0.004422 0.467272 0.348955

loop_
_geom_bond_atom_site_label_1
_geom_bond_atom_site_label_2
_ccdc_geom_bond_type
C40   H16   S    
O12   C56   A    
S2    O26   D    
O13   V3    S    
O1    C3    A    
H20   C42   S    
S3    O31   S    
O2    C4    A    
C30   H10   S    
O11   V4    S    
C41   H31   S    
C27   C29   A    
C8    C53   S    
C17   H1    S    
C44   C52   S    
O5    C3    A    
C43   C51   S    
C2    C47   S    
O16   V4    S    
C11   C17   A    
O15   V3    S    
C23   C25   A    
C12   C14   A    
C44   C46   S    
C10   S2    S    
C43   H25   S    
C57   H35   S    
O11   C55   A    
C6    C8    A    
C38   H12   S    
C33   C35   A    
O18   V4    S    
C15   C29   A    
C58   H36   S    
O17   V3    S    
S1    O25   S    
C19   S3    S    
C5    C7    A    
C27   H7    S    
C39   H15   S    
C46   C55   S    
C19   C21   A    
C53   O18   A    
C51   H27   S    
C6    C58   S    
C26   C36   A    
C35   H5    S    
C32   H4    S    
C28   C30   A    
C18   H2    S    
C38   C40   S    
O6    V2    S    
H19   C41   S    
C51   H29   S    
C2    O7    A    
S4    O34   S    
O20   V3    S    
C32   C34   A    
C52   H30   S    
C58   O22   D    
C43   C45   S    
C34   C36   A    
C37   H11   S    
C47   C49   S    
C21   C31   A    
C6    C16   A    
O4    C2    A    
C48   C52   S    
C37   C45   S    
C20   S4    S    
C47   C51   S    
C4    C33   S    
O5    V1    S    
S2    O28   S    
C57   O21   D    
C5    C15   A    
O4    V2    S    
C36   H6    S    
O14   V4    S    
C18   C20   A    
C7    C54   S    
C44   H24   S    
C52   H28   S    
C43   H23   S    
O6    C4    A    
C22   C32   A    
O1    V2    S    
O14   C54   A    
O2    V1    S    
C31   C33   A    
S1    O23   D    
C13   C23   A    
C1    C48   S    
C41   C49   S    
C8    C10   A    
C9    C11   A    
C10   C12   A    
C25   C35   A    
S3    O29   D    
H21   C49   S    
O3    C1    A    
O3    V1    S    
C5    C57   S    
S4    O33   D    
O28   H38   S    
O16   C56   A    
C14   C24   A    
C42   C50   S    
C38   C46   S    
S2    O27   D    
C45   C56   S    
C7    C9    A    
C37   C39   S    
C37   H13   S    
O12   V3    S    
C42   C46   S    
S4    O32   D    
S3    O30   D    
C40   C48   S    
O34   H40   S    
C39   C47   S    
O31   H39   S    
C13   C15   A    
C14   C16   A    
O13   C53   A    
C38   H14   S    
C28   H8    S    
C24   C26   A    
O7    V1    S    
C29   H9    S    
C1    O8    A    
C25   C27   A    
O8    V2    S    
C42   H32   S    
C26   C28   A    
C31   H3    S    
C40   H18   S    
O15   C55   A    
C39   H17   S    
C16   C30   A    
C21   C23   A    
C22   C24   A    
O19   V4    S    
C48   C50   S    
C11   C13   A    
C9    S1    S    
C12   C18   A    
S1    O24   D    
C44   H26   S    
C17   C19   A    
O9    V2    S    
O10   V1    S    
C3    C34   S    
H22   C50   S    
C41   C45   S    
C54   O17   A    
C50   H34   S    
C20   C22   A    
O25   H37   S    
C49   H33   S    
