data_mof_unit_4425.cif
_audit_creation_date              2012-12-11T15:19:30-0500
_audit_creation_method            fapswitch 2.2
_symmetry_space_group_name_H-M    P1
_symmetry_Int_Tables_number       1
_space_group_crystal_system       triclinic
_cell_length_a                    20.708015
_cell_length_b                    6.957783
_cell_length_c                    17.918881
_cell_angle_alpha                 90.000133
_cell_angle_beta                  104.179015
_cell_angle_gamma                 90.001076
_cell_volume                      2503.13219448

loop_
_atom_site_label
_atom_site_type_symbol
_atom_type_description
_atom_site_fract_x
_atom_site_fract_y
_atom_site_fract_z
_atom_type_partial_charge
O1    O     O_R   0.312200 0.620210 0.189560 -0.545727
O2    O     O_R   0.687800 0.379790 0.810440 -0.546791
O3    O     O_R   0.187800 0.120210 0.310440 -0.545711
O4    O     O_R   0.812200 0.879790 0.689560 -0.546743
O5    O     O_R   0.171590 0.286140 0.165000 -0.551233
O6    O     O_R   0.828410 0.713860 0.835000 -0.530174
O7    O     O_R   0.328410 0.786140 0.335000 -0.551230
O8    O     O_R   0.671590 0.213860 0.665000 -0.530126
C1    C     C_R   0.146791 0.459579 0.142232 0.684481
C2    C     C_R   0.853799 0.540498 0.856908 0.702214
C3    C     C_R   0.353211 0.959581 0.357766 0.684478
C4    C     C_R   0.646203 0.040496 0.643088 0.702437
O9    O     O_R   0.310670 0.290220 0.180540 -0.552654
O10   O     O_R   0.689330 0.709780 0.819460 -0.553490
O11   O     O_R   0.189330 0.790220 0.319460 -0.552655
O12   O     O_R   0.810670 0.209780 0.680540 -0.553519
O13   O     O_R   0.327870 0.124170 0.326080 -0.525125
O14   O     O_R   0.672130 0.875830 0.673920 -0.551641
O15   O     O_R   0.172130 0.624170 0.173920 -0.525128
O16   O     O_R   0.827870 0.375830 0.826080 -0.551598
C5    C     C_R   0.332672 0.459237 0.166134 0.786288
C6    C     C_R   0.666737 0.540470 0.833045 0.758841
C7    C     C_R   0.167327 0.959235 0.333865 0.786293
C8    C     C_R   0.833263 0.040471 0.666955 0.758931
O17   O     O_3   0.255480 0.455050 0.297740 -0.377654
O18   O     O_3   0.744520 0.544950 0.702260 -0.375620
O19   O     O_3   0.244520 0.955050 0.202260 -0.377677
O20   O     O_3   0.755480 0.044950 0.797740 -0.375643
V1    V     V_3+5 0.248980 0.178550 0.241140 1.371891
V2    V     V_3+5 0.751020 0.821450 0.758860 1.350396
V3    V     V_3+5 0.251020 0.678550 0.258860 1.371881
V4    V     V_3+5 0.748980 0.321450 0.741140 1.350402
C9    C     C_R   0.953204 0.059219 0.651955 0.341670
C10   C     C_R   0.048598 0.985102 0.350017 0.350209
C11   C     C_R   0.546796 0.559241 0.848053 0.341727
C12   C     C_R   0.451400 0.485102 0.149984 0.350210
C13   C     C_R   0.883990 0.027208 0.619553 -0.272547
C14   C     C_R   0.118121 0.969908 0.383336 -0.273081
C15   C     C_R   0.616010 0.527206 0.880449 -0.272732
C16   C     C_R   0.381877 0.469914 0.116663 -0.273075
C17   C     C_R   0.862563 0.972398 0.541310 0.346723
C18   C     C_R   0.140929 0.962199 0.464407 0.339943
C19   C     C_R   0.637435 0.472386 0.958691 0.346796
C20   C     C_R   0.359070 0.462214 0.035593 0.339960
C21   C     C_R   0.908831 0.960456 0.493292 -0.018233
C22   C     C_R   0.095070 0.984978 0.512657 -0.021478
C23   C     C_R   0.591167 0.460449 0.006710 -0.018229
C24   C     C_R   0.404929 0.485002 0.987345 -0.021461
C25   C     C_R   0.978012 0.990928 0.525969 -0.124935
C26   C     C_R   0.025231 0.979537 0.478821 -0.125092
C27   C     C_R   0.521988 0.490935 0.974035 -0.124984
C28   C     C_R   0.474768 0.479544 0.021182 -0.125116
C29   C     C_R   0.000142 0.035643 0.605378 -0.093910
C30   C     C_R   0.002229 0.969392 0.397542 -0.108174
C31   C     C_R   0.499859 0.535671 0.894630 -0.093648
C32   C     C_R   0.497769 0.469388 0.102460 -0.108173
C33   C     C_R   0.888005 0.924148 0.412569 0.074212
C34   C     C_R   0.116532 0.014763 0.593758 0.063408
C35   C     C_R   0.611992 0.424134 0.087433 0.074207
C36   C     C_R   0.383468 0.514819 0.906245 0.063307
C37   C     C_R   0.932548 0.950917 0.365505 0.434843
C38   C     C_R   0.069795 0.057737 0.637058 0.426507
C39   C     C_R   0.567450 0.450905 0.134498 0.434848
C40   C     C_R   0.430208 0.557799 0.862950 0.426616
C41   C     C_1   0.583515 0.027394 0.580794 -0.195746
C42   C     C_1   0.416137 0.972347 0.419760 -0.196985
C43   C     C_1   0.916494 0.527401 0.919193 -0.195692
C44   C     C_1   0.083869 0.472342 0.080230 -0.196985
C45   C     C_1   0.531033 0.010653 0.530024 -0.004644
C46   C     C_1   0.468723 0.988828 0.470384 0.007837
C47   C     C_1   0.968979 0.510659 0.969959 -0.004449
C48   C     C_1   0.031286 0.488828 0.029602 0.007776
O21   O     O_3   0.978774 0.083444 0.730954 -0.557305
C49   C     C_3   0.952995 0.239371 0.766124 0.112233
H1    H     H_    0.989416 0.266184 0.821728 0.133291
H2    H     H_    0.909662 0.188475 0.785792 0.127210
C50   C     C_3   0.938332 0.431684 0.719629 -0.395427
H3    H     H_    0.944969 0.419124 0.660323 0.173324
H4    H     H_    0.885319 0.467797 0.712590 0.208577
C51   C     C_3   0.977523 0.607280 0.759098 -0.759394
H5    H     H_    0.942610 0.722319 0.766967 0.247792
H6    H     H_    0.008568 0.667232 0.722303 0.237879
H7    H     H_    0.010285 0.574707 0.816544 0.215690
O22   O     O_3   0.024390 0.002706 0.270652 -0.554414
C52   C     C_3   0.041059 0.181519 0.240771 0.102547
H8    H     H_    0.007801 0.199199 0.182364 0.111459
H9    H     H_    0.089159 0.171002 0.226840 0.159955
C53   C     C_3   0.033524 0.365438 0.287634 -0.470720
H10   H     H_    0.985655 0.438034 0.261495 0.194504
H11   H     H_    0.036028 0.335459 0.349030 0.197111
C54   C     C_3   0.085006 0.516026 0.286946 -0.671124
H12   H     H_    0.135410 0.452785 0.301173 0.258431
H13   H     H_    0.081900 0.622135 0.331494 0.206652
H14   H     H_    0.073300 0.591918 0.230970 0.231722
O23   O     O_3   0.521222 0.583459 0.769057 -0.557324
C55   C     C_3   0.547003 0.739356 0.733877 0.112198
H15   H     H_    0.510566 0.766184 0.678287 0.133333
H16   H     H_    0.590320 0.688419 0.714187 0.127173
C56   C     C_3   0.561708 0.931669 0.780366 -0.395405
H17   H     H_    0.555112 0.919164 0.839695 0.173403
H18   H     H_    0.614718 0.967737 0.787340 0.208670
C57   C     C_3   0.522522 0.107282 0.740910 -0.759933
H19   H     H_    0.557438 0.222943 0.733671 0.248063
H20   H     H_    0.491037 0.166250 0.777384 0.237745
H21   H     H_    0.490210 0.075092 0.683180 0.215921
O24   O     O_3   0.475608 0.502712 0.229350 -0.554415
C58   C     C_3   0.458939 0.681529 0.259228 0.102534
H22   H     H_    0.492198 0.699217 0.317634 0.111458
H23   H     H_    0.410841 0.671013 0.273159 0.159960
C59   C     C_3   0.466476 0.865443 0.212361 -0.470714
H24   H     H_    0.514344 0.938047 0.238503 0.194502
H25   H     H_    0.463977 0.835455 0.150967 0.197109
C60   C     C_3   0.414989 0.016021 0.213040 -0.671076
H26   H     H_    0.364586 0.952768 0.198811 0.258427
H27   H     H_    0.418095 0.122123 0.168489 0.206641
H28   H     H_    0.426691 0.091923 0.269014 0.231720
O25   O     O_3   0.794682 0.969942 0.507956 -0.592372
C61   C     C_3   0.760738 0.799666 0.520369 0.078207
H29   H     H_    0.721206 0.775716 0.466755 0.141344
H30   H     H_    0.733088 0.826707 0.564820 0.145502
C62   C     C_3   0.802210 0.613417 0.539632 -0.381864
H31   H     H_    0.842294 0.602760 0.508709 0.188598
H32   H     H_    0.826584 0.610340 0.601783 0.204219
C63   C     C_3   0.757497 0.437905 0.519399 -0.736190
H33   H     H_    0.716673 0.441903 0.549614 0.238372
H34   H     H_    0.787802 0.308563 0.537396 0.260487
H35   H     H_    0.735965 0.430226 0.456256 0.217999
O26   O     O_3   0.209135 0.962451 0.496564 -0.589072
C64   C     C_3   0.240510 0.781024 0.495752 0.078564
H36   H     H_    0.284040 0.778727 0.546378 0.143642
H37   H     H_    0.262302 0.771074 0.445471 0.148672
C65   C     C_3   0.197653 0.602799 0.500642 -0.396212
H38   H     H_    0.174268 0.613775 0.549938 0.197574
H39   H     H_    0.157478 0.588551 0.447364 0.194610
C66   C     C_3   0.239638 0.422007 0.509737 -0.776745
H40   H     H_    0.263310 0.404864 0.460798 0.248038
H41   H     H_    0.205868 0.300527 0.509971 0.265757
H42   H     H_    0.278396 0.424090 0.564964 0.227702
O27   O     O_3   0.705317 0.469919 0.992045 -0.592368
C67   C     C_3   0.739256 0.299642 0.979627 0.078227
H43   H     H_    0.778787 0.275687 0.033239 0.141338
H44   H     H_    0.766906 0.326685 0.935175 0.145521
C68   C     C_3   0.697778 0.113399 0.960360 -0.381870
H45   H     H_    0.657689 0.102757 0.991279 0.188606
H46   H     H_    0.673409 0.110314 0.898207 0.204212
C69   C     C_3   0.742485 0.937883 0.980604 -0.736204
H47   H     H_    0.783311 0.941863 0.950393 0.238375
H48   H     H_    0.712176 0.808546 0.962608 0.260491
H49   H     H_    0.764011 0.930212 0.043747 0.217997
O28   O     O_3   0.290864 0.462452 0.003434 -0.589070
C70   C     C_3   0.259494 0.281017 0.004249 0.078545
H50   H     H_    0.215956 0.278719 0.953631 0.143606
H51   H     H_    0.237712 0.271046 0.054537 0.148695
C71   C     C_3   0.302349 0.102811 0.999337 -0.396173
H52   H     H_    0.325687 0.113765 0.950001 0.197568
H53   H     H_    0.342562 0.088619 0.052586 0.194586
C72   C     C_3   0.260379 0.921994 0.990311 -0.776737
H54   H     H_    0.236786 0.904822 0.039312 0.248072
H55   H     H_    0.294142 0.800541 0.990014 0.265734
H56   H     H_    0.221560 0.924051 0.935132 0.227693
C73   C     C_3   0.818163 0.862031 0.372407 -0.721354
H57   H     H_    0.806005 0.722396 0.394387 0.206735
H58   H     H_    0.781693 0.973807 0.377411 0.245688
H59   H     H_    0.811454 0.836891 0.310121 0.233599
C74   C     C_3   0.189079 0.004036 0.637132 -0.707272
H60   H     H_    0.209706 0.862063 0.628813 0.215688
H61   H     H_    0.218527 0.120092 0.619270 0.230205
H62   H     H_    0.196781 0.016168 0.700162 0.227352
C75   C     C_3   0.681833 0.362013 0.127593 -0.721368
H63   H     H_    0.693987 0.222376 0.105611 0.206742
H64   H     H_    0.718306 0.473785 0.122590 0.245690
H65   H     H_    0.688543 0.336874 0.189879 0.233600
C76   C     C_3   0.310920 0.504122 0.862869 -0.707279
H66   H     H_    0.290284 0.362155 0.871180 0.215715
H67   H     H_    0.281477 0.620177 0.880736 0.230176
H68   H     H_    0.303221 0.516267 0.799840 0.227365
O29   O     O_3   0.905177 0.975567 0.287359 -0.550450
C77   C     C_3   0.897959 0.175116 0.271987 0.162795
H69   H     H_    0.912028 0.200950 0.217216 0.159723
H70   H     H_    0.927676 0.264437 0.319605 0.099998
C78   C     C_3   0.827877 0.250750 0.259088 -0.413445
H71   H     H_    0.796051 0.176746 0.208557 0.206309
H72   H     H_    0.809115 0.228810 0.311233 0.212582
C79   C     C_3   0.829078 0.466782 0.243810 -0.841454
H73   H     H_    0.867488 0.540280 0.288994 0.249828
H74   H     H_    0.780908 0.529519 0.245289 0.232278
H75   H     H_    0.839322 0.494803 0.186755 0.243474
O30   O     O_3   0.094081 0.115129 0.712739 -0.551339
C80   C     C_3   0.092229 0.318035 0.717425 0.162089
H76   H     H_    0.078691 0.351935 0.771849 0.177111
H77   H     H_    0.055378 0.387240 0.669021 0.099718
C81   C     C_3   0.160055 0.408378 0.723302 -0.414070
H78   H     H_    0.197170 0.332505 0.768546 0.209275
H79   H     H_    0.173872 0.396153 0.667472 0.203724
C82   C     C_3   0.158444 0.620257 0.744492 -0.811994
H80   H     H_    0.119834 0.696380 0.700700 0.249943
H81   H     H_    0.207139 0.686822 0.746460 0.227276
H82   H     H_    0.147687 0.637036 0.801918 0.244343
O31   O     O_3   0.594821 0.475554 0.212643 -0.550451
C83   C     C_3   0.602040 0.675104 0.228018 0.162806
H83   H     H_    0.587971 0.700937 0.282788 0.159724
H84   H     H_    0.572323 0.764424 0.180400 0.099999
C84   C     C_3   0.672122 0.750743 0.240916 -0.413446
H85   H     H_    0.703948 0.676746 0.291448 0.206308
H86   H     H_    0.690884 0.728800 0.188771 0.212581
C85   C     C_3   0.670921 0.966777 0.256192 -0.841466
H87   H     H_    0.632510 0.040267 0.211009 0.249827
H88   H     H_    0.719090 0.029519 0.254710 0.232279
H89   H     H_    0.660679 0.994799 0.313248 0.243476
O32   O     O_3   0.405929 0.615257 0.787276 -0.551297
C86   C     C_3   0.407791 0.818172 0.782620 0.161962
H90   H     H_    0.421379 0.852151 0.728224 0.177269
H91   H     H_    0.444620 0.887353 0.831065 0.099513
C87   C     C_3   0.339947 0.908464 0.776679 -0.413978
H92   H     H_    0.302870 0.832603 0.731393 0.209324
H93   H     H_    0.326077 0.896164 0.832473 0.203749
C88   C     C_3   0.341555 0.120365 0.755529 -0.812295
H94   H     H_    0.380105 0.196489 0.799391 0.249894
H95   H     H_    0.292838 0.186862 0.753483 0.227303
H96   H     H_    0.352393 0.137237 0.698149 0.244439

loop_
_geom_bond_atom_site_label_1
_geom_bond_atom_site_label_2
_ccdc_geom_bond_type
C34   C38   A    
C66   H42   S    
C50   H3    S    
C84   H85   S    
C25   C29   A    
O1    C5    A    
C74   H60   S    
O19   V1    S    
O13   V1    S    
O21   C49   S    
O12   C8    A    
O3    C7    A    
O23   C55   S    
C85   H89   S    
C67   C68   S    
O15   V3    S    
O26   C64   S    
C61   H30   S    
C73   H57   S    
C66   H40   S    
C16   C20   A    
C76   H66   S    
C88   H96   S    
O7    C3    A    
C84   H86   S    
C21   C33   A    
C72   H54   S    
C49   H2    S    
O9    V1    S    
C67   H44   S    
C14   C18   A    
C63   H34   S    
C45   C46   S    
C65   C66   S    
O32   C86   S    
C18   C22   A    
O4    C8    A    
C87   H93   S    
C44   C48   T    
C43   C47   T    
O24   C58   S    
C68   H45   S    
C55   C56   S    
O1    V3    S    
C79   H73   S    
C57   H21   S    
O2    V4    S    
C75   H63   S    
C70   C71   S    
C33   C37   A    
C80   H77   S    
C34   C74   S    
C61   H29   S    
C62   C63   S    
C59   H24   S    
C1    O15   A    
C86   H90   S    
C2    O16   A    
C65   H38   S    
C49   C50   S    
C55   H16   S    
O2    C6    A    
C58   H22   S    
C19   O27   S    
O14   V2    S    
C21   C25   A    
C88   H95   S    
C69   H48   S    
C3    C42   S    
C18   O26   S    
C82   H82   S    
C78   H72   S    
C70   H50   S    
O31   C83   S    
C72   H55   S    
C66   H41   S    
C22   C34   A    
C9    C29   A    
C36   C76   S    
C75   H64   S    
C40   O32   S    
C57   H19   S    
C10   O22   S    
O10   V2    S    
C51   H7    S    
C73   H58   S    
C24   C36   A    
O5    V1    S    
C76   H67   S    
C31   C40   A    
O17   V1    S    
C84   C85   S    
C32   C39   A    
O7    V3    S    
C49   H1    S    
C69   H47   S    
C52   H9    S    
C11   C31   A    
C27   C28   A    
O8    V4    S    
C81   C82   S    
C77   H69   S    
O20   V4    S    
C67   H43   S    
C71   C72   S    
C51   H6    S    
C68   C69   S    
C54   H12   S    
C85   H87   S    
C83   H83   S    
C15   C19   A    
C88   H94   S    
C78   H71   S    
C12   O24   S    
C20   O28   S    
O30   C80   S    
C61   C62   S    
C81   H79   S    
C80   C81   S    
C11   C15   A    
C82   H81   S    
O5    C1    A    
C58   H23   S    
C12   C32   A    
C54   H13   S    
C69   H49   S    
C29   C38   A    
C77   H70   S    
C56   H17   S    
C53   C54   S    
C12   C16   A    
C37   O29   S    
O8    C4    A    
C55   H15   S    
C86   C87   S    
C8    C13   S    
C62   H31   S    
C50   H4    S    
O9    C5    A    
C26   C30   A    
O22   C52   S    
C57   H20   S    
C59   C60   S    
C71   H52   S    
C63   H35   S    
C65   H39   S    
O6    V2    S    
C53   H11   S    
O29   C77   S    
C74   H62   S    
C10   C14   A    
O19   V3    S    
C58   C59   S    
C86   H91   S    
O12   V4    S    
C73   H59   S    
C52   C53   S    
C38   O30   S    
C60   H26   S    
O16   V4    S    
C76   H68   S    
C9    O21   S    
C68   H46   S    
C3    O13   A    
C78   C79   S    
C56   H18   S    
C87   H92   S    
C71   H53   S    
O17   V3    S    
C51   H5    S    
C87   C88   S    
C52   H8    S    
O6    C2    A    
C23   C27   A    
O27   C67   S    
C60   H28   S    
O11   V3    S    
O18   V4    S    
C30   C37   A    
C11   O23   S    
C72   H56   S    
C7    C14   S    
C4    C41   S    
C22   C26   A    
C35   C39   A    
C79   H75   S    
C36   C40   A    
C17   O25   S    
C81   H78   S    
C64   C65   S    
O20   V2    S    
C64   H36   S    
C1    C44   S    
C47   C48   S    
C2    C43   S    
O25   C61   S    
C54   H14   S    
C50   C51   S    
C10   C30   A    
O10   C6    A    
C42   C46   T    
C5    C16   S    
C83   C84   S    
C41   C45   T    
C6    C15   S    
O11   C7    A    
C75   H65   S    
C79   H74   S    
C9    C13   A    
C27   C31   A    
C70   H51   S    
C13   C17   A    
C80   H76   S    
C59   H25   S    
C62   H32   S    
C77   C78   S    
C39   O31   S    
C23   C35   A    
C82   H80   S    
C20   C24   A    
C24   C28   A    
C56   C57   S    
C33   C73   S    
C53   H10   S    
C74   H61   S    
C25   C26   A    
C4    O14   A    
C17   C21   A    
O28   C70   S    
O3    V1    S    
C64   H37   S    
C35   C75   S    
C85   H88   S    
C19   C23   A    
C83   H84   S    
O4    V2    S    
C28   C32   A    
C63   H33   S    
C60   H27   S    
O18   V2    S    
