data_mof_unit_4342.cif
_audit_creation_date              2012-12-11T15:26:06-0500
_audit_creation_method            fapswitch 2.2
_symmetry_space_group_name_H-M    P1
_symmetry_Int_Tables_number       1
_space_group_crystal_system       triclinic
_cell_length_a                    24.605209
_cell_length_b                    17.14736
_cell_length_c                    15.590486
_cell_angle_alpha                 90.138504
_cell_angle_beta                  50.791182
_cell_angle_gamma                 90.210328
_cell_volume                      5096.79446817

loop_
_atom_site_label
_atom_site_type_symbol
_atom_type_description
_atom_site_fract_x
_atom_site_fract_y
_atom_site_fract_z
_atom_type_partial_charge
C1    C     C_R   0.335010 0.113338 0.796364 -0.117146
C2    C     C_2   0.350582 0.749622 0.865729 -0.218216
C3    C     C_2   0.309957 0.163616 0.970616 -0.218469
C4    C     C_2   0.646525 0.750397 0.132797 -0.217286
C5    C     C_2   0.191184 0.655354 0.023053 -0.220627
C6    C     C_2   0.842114 0.263737 0.889722 -0.216205
C7    C     C_2   0.806889 0.656820 0.976053 -0.222591
C8    C     C_2   0.157732 0.263805 0.109978 -0.216635
C9    C     C_2   0.759487 0.159122 0.969204 -0.115823
C10   C     C_2   0.303414 0.706215 0.870806 -0.107880
C11   C     C_2   0.240514 0.159720 0.030115 -0.115581
C12   C     C_R   0.653848 0.864257 0.228328 -0.125551
C13   C     C_2   0.694323 0.707916 0.126649 -0.106440
C14   C     C_2   0.260823 0.652133 0.962097 -0.112834
C15   C     C_2   0.801861 0.216105 0.882990 -0.108881
C16   C     C_2   0.737364 0.654380 0.034788 -0.110293
C17   C     C_2   0.198179 0.216647 0.116345 -0.108732
C18   C     C_R   0.614147 0.103438 0.592415 -0.124917
C19   C     C_R   0.385547 0.896328 0.407875 -0.132243
C20   C     C_R   0.386008 0.103555 0.407573 -0.124334
C21   C     C_R   0.595958 0.862388 0.592081 -0.125312
C22   C     C_R   0.087577 0.644820 0.592512 -0.124625
C23   C     C_R   0.665118 0.113267 0.203411 -0.117145
C24   C     C_R   0.907058 0.359080 0.407976 -0.123029
C25   C     C_R   0.885895 0.602841 0.407560 -0.125567
C26   C     C_R   0.093169 0.359538 0.592032 -0.122383
C27   C     C_R   0.688382 0.102915 0.408284 -0.125197
C28   C     C_R   0.311521 0.896888 0.591559 -0.138115
C29   C     C_R   0.311758 0.103042 0.591728 -0.124312
C30   C     C_R   0.670253 0.862886 0.407883 -0.130119
C31   C     C_R   0.162384 0.644297 0.407617 -0.125303
C32   C     C_R   0.832710 0.359643 0.592108 -0.127292
C33   C     C_R   0.811634 0.602311 0.591730 -0.125569
C34   C     C_R   0.347719 0.860984 0.762529 -0.123442
C35   C     C_R   0.167502 0.360070 0.407858 -0.126643
C36   C     C_R   0.574876 0.112243 0.201783 -0.147371
C37   C     C_R   0.435033 0.863782 0.771070 -0.145959
C38   C     C_R   0.425128 0.112402 0.798289 -0.147455
C39   C     C_R   0.560268 0.861923 0.235321 -0.146906
C40   C     C_R   0.075332 0.609639 0.199997 -0.145070
C41   C     C_R   0.931796 0.371124 0.781426 -0.144037
C42   C     C_R   0.923140 0.608823 0.801665 -0.163079
C43   C     C_R   0.068178 0.371068 0.218387 -0.145549
C44   C     C_R   0.355789 0.134314 0.857614 0.147737
C45   C     C_R   0.834011 0.610986 0.798121 -0.114146
C46   C     C_R   0.620932 0.822549 0.196388 0.150317
C47   C     C_R   0.644301 0.134114 0.142284 0.147679
C48   C     C_R   0.377001 0.821594 0.801719 0.149709
C49   C     C_R   0.853561 0.629877 0.861470 0.151743
C50   C     C_R   0.130110 0.334102 0.176732 0.149956
C51   C     C_R   0.145474 0.628724 0.137757 0.150454
C52   C     C_R   0.869732 0.334100 0.823191 0.149673
C53   C     C_R   0.682908 0.117892 0.500558 0.042202
C54   C     C_R   0.316886 0.880890 0.499578 0.048043
C55   C     C_R   0.317345 0.118227 0.499444 0.042466
C56   C     C_R   0.158478 0.371290 0.218762 -0.131110
C57   C     C_R   0.648638 0.820535 0.499854 0.044325
C58   C     C_R   0.138242 0.688914 0.499993 0.039999
C59   C     C_R   0.855614 0.316028 0.500184 0.042566
C60   C     C_R   0.817177 0.616901 0.499434 0.043326
C61   C     C_R   0.144881 0.316764 0.499802 0.041397
C62   C     C_R   0.194857 0.159616 0.599476 -0.170370
C63   C     C_R   0.734225 0.713747 0.399032 -0.170757
C64   C     C_R   0.805822 0.158200 0.400514 -0.172029
C65   C     C_R   0.193350 0.840585 0.599788 -0.171647
C66   C     C_R   0.695353 0.659657 0.599505 -0.171695
C67   C     C_R   0.166206 0.608654 0.199144 -0.130422
C68   C     C_R   0.232016 0.211034 0.399058 -0.168868
C69   C     C_R   0.227856 0.793167 0.399512 -0.166844
C70   C     C_R   0.768975 0.209531 0.600934 -0.169611
C71   C     C_R   0.653652 0.713204 0.599654 -0.171355
C72   C     C_R   0.275484 0.160248 0.398904 -0.168833
C73   C     C_R   0.273747 0.840219 0.399328 -0.170906
C74   C     C_R   0.725200 0.158859 0.601104 -0.170221
C75   C     C_R   0.151489 0.210508 0.599580 -0.169862
C76   C     C_R   0.776018 0.660309 0.398869 -0.170428
C77   C     C_R   0.849487 0.208983 0.400413 -0.170720
C78   C     C_R   0.841387 0.371185 0.781318 -0.132467
C79   C     C_R   0.147564 0.793418 0.599879 -0.168568
C80   C     C_R   0.677663 0.747036 0.499500 0.149314
C81   C     C_R   0.260756 0.141782 0.499206 0.143218
C82   C     C_R   0.259793 0.857366 0.499517 0.142719
C83   C     C_R   0.739745 0.140664 0.500795 0.143316
C84   C     C_R   0.174386 0.243339 0.499461 0.147136
C85   C     C_R   0.760798 0.640742 0.499194 0.143205
C86   C     C_R   0.826587 0.241985 0.500527 0.147599
C87   C     C_R   0.168517 0.762457 0.499793 0.144172
C88   C     C_2   0.690052 0.163159 0.029189 -0.217990
H1    H     H_    0.592764 0.099836 0.677773 0.084066
H2    H     H_    0.264040 0.901762 0.676285 0.081769
H3    H     H_    0.264483 0.099002 0.676791 0.081581
H4    H     H_    0.715889 0.852878 0.323632 0.082120
H5    H     H_    0.202602 0.659172 0.321823 0.091570
H6    H     H_    0.788399 0.347687 0.676567 0.082682
H7    H     H_    0.764423 0.598313 0.676857 0.083550
H8    H     H_    0.211818 0.348269 0.323362 0.083072
H9    H     H_    0.545184 0.111585 0.172279 0.093017
H10   H     H_    0.464588 0.852799 0.799038 0.086914
H11   H     H_    0.454733 0.111918 0.827942 0.093247
H12   H     H_    0.406364 0.900593 0.322868 0.081121
H13   H     H_    0.523208 0.846784 0.222494 0.097972
H14   H     H_    0.045163 0.608348 0.171342 0.092315
H15   H     H_    0.961925 0.362688 0.809002 0.086373
H16   H     H_    0.951469 0.605810 0.833407 0.093141
H17   H     H_    0.038175 0.362601 0.190511 0.086267
H18   H     H_    0.179485 0.141615 0.678465 0.104726
H19   H     H_    0.750453 0.733644 0.320166 0.101713
H20   H     H_    0.821077 0.140253 0.321519 0.105552
H21   H     H_    0.178864 0.856919 0.678801 0.104558
H22   H     H_    0.679473 0.640685 0.678474 0.105896
H23   H     H_    0.407368 0.100016 0.322215 0.082464
H24   H     H_    0.247816 0.230157 0.320169 0.101984
H25   H     H_    0.243135 0.774834 0.320610 0.107756
H26   H     H_    0.753284 0.228695 0.679808 0.102042
H27   H     H_    0.287312 0.720285 0.821929 0.129840
H28   H     H_    0.783471 0.127204 0.997574 0.127630
H29   H     H_    0.710548 0.722744 0.175330 0.126194
H30   H     H_    0.216530 0.127703 0.001549 0.127414
H31   H     H_    0.790651 0.227956 0.827077 0.128367
H32   H     H_    0.285199 0.622452 0.991367 0.127099
H33   H     H_    0.209434 0.228735 0.172225 0.128376
H34   H     H_    0.573749 0.851962 0.676409 0.083453
H35   H     H_    0.713697 0.625328 0.003658 0.125711
H36   H     H_    0.282917 0.114621 0.821126 0.082577
H37   H     H_    0.706240 0.855212 0.199518 0.083299
H38   H     H_    0.717296 0.114552 0.178349 0.082892
H39   H     H_    0.300156 0.847345 0.775422 0.089660
H40   H     H_    0.781977 0.611302 0.822629 0.081638
H41   H     H_    0.211109 0.364722 0.190262 0.085292
H42   H     H_    0.219072 0.606191 0.171045 0.081198
H43   H     H_    0.788687 0.364446 0.810020 0.085175
H44   H     H_    0.606556 0.732755 0.678605 0.106545
H45   H     H_    0.058156 0.660183 0.678427 0.091897
H46   H     H_    0.323665 0.142757 0.319892 0.104771
H47   H     H_    0.322686 0.856255 0.320298 0.105096
H48   H     H_    0.676903 0.141447 0.680125 0.105599
H49   H     H_    0.103957 0.229297 0.678541 0.106670
H50   H     H_    0.823692 0.641868 0.319858 0.105544
H51   H     H_    0.897103 0.227800 0.321460 0.106912
H52   H     H_    0.099641 0.775177 0.678854 0.106274
H53   H     H_    0.365676 0.735469 0.916067 0.127665
H54   H     H_    0.666865 0.196046 0.999976 0.129774
H55   H     H_    0.630602 0.735580 0.083671 0.128954
H56   H     H_    0.930900 0.346562 0.323457 0.085017
H57   H     H_    0.333136 0.196543 0.000093 0.129815
H58   H     H_    0.852895 0.251953 0.946181 0.129435
H59   H     H_    0.167578 0.685886 0.992841 0.130140
H60   H     H_    0.146870 0.251743 0.053606 0.129386
H61   H     H_    0.829856 0.686522 0.008122 0.127907
H62   H     H_    0.907369 0.599353 0.322139 0.084189
H63   H     H_    0.069367 0.347234 0.676571 0.085335
H64   H     H_    0.735623 0.098811 0.323213 0.083287
N1    N     N_R   0.388930 0.078160 0.705470 -0.045705
N2    N     N_R   0.419500 0.922160 0.443350 -0.036105
N3    N     N_R   0.419500 0.077840 0.443350 -0.037650
N4    N     N_R   0.580500 0.922160 0.556650 -0.037626
N5    N     N_R   0.080500 0.577840 0.556650 -0.040940
N6    N     N_R   0.919500 0.422160 0.443350 -0.039013
N7    N     N_R   0.919500 0.577840 0.443350 -0.039281
N8    N     N_R   0.080500 0.422160 0.556650 -0.039828
N9    N     N_R   0.626210 0.077590 0.443410 -0.039537
N10   N     N_R   0.373790 0.922410 0.556590 -0.036518
N11   N     N_R   0.373790 0.077590 0.556590 -0.038161
N12   N     N_R   0.611070 0.921840 0.294530 -0.043571
N13   N     N_R   0.626210 0.922410 0.443410 -0.037638
N14   N     N_R   0.126210 0.577590 0.443410 -0.041410
N15   N     N_R   0.873790 0.422410 0.556590 -0.038765
N16   N     N_R   0.873790 0.577590 0.556590 -0.039829
N17   N     N_R   0.126210 0.422410 0.443410 -0.039578
N18   N     N_R   0.554800 0.077270 0.294580 -0.042196
N19   N     N_R   0.445200 0.922730 0.705420 -0.040771
N20   N     N_R   0.445200 0.077270 0.705420 -0.042136
N21   N     N_R   0.554800 0.922730 0.294580 -0.042029
N22   N     N_R   0.054800 0.577270 0.294580 -0.041309
N23   N     N_R   0.611070 0.078160 0.294530 -0.045609
N24   N     N_R   0.945200 0.422730 0.705420 -0.039110
N25   N     N_R   0.945200 0.577270 0.705420 -0.040507
N26   N     N_R   0.054800 0.422730 0.294580 -0.039564
N27   N     N_R   0.388930 0.921840 0.705470 -0.045247
N28   N     N_R   0.888930 0.578160 0.705470 -0.044683
N29   N     N_R   0.111070 0.421840 0.294530 -0.041720
N30   N     N_R   0.111070 0.578160 0.294530 -0.043899
N31   N     N_R   0.888930 0.421840 0.705470 -0.042112
N32   N     N_R   0.580500 0.077840 0.556650 -0.038979
Ni1   Ni    Ni4+2 0.382710 0.000000 0.629850 0.206124
Ni2   Ni    Ni4+2 0.617290 0.000000 0.370150 0.208604
Ni3   Ni    Ni4+2 0.882710 0.500000 0.629850 0.209015
Ni4   Ni    Ni4+2 0.117290 0.500000 0.370150 0.211451
Ni5   Ni    Ni4+2 0.513020 0.000000 0.629850 0.209535
Ni6   Ni    Ni4+2 0.486980 0.000000 0.370150 0.207241
Ni7   Ni    Ni4+2 0.013020 0.500000 0.629850 0.212354
Ni8   Ni    Ni4+2 0.986980 0.500000 0.370150 0.209944

loop_
_geom_bond_atom_site_label_1
_geom_bond_atom_site_label_2
_ccdc_geom_bond_type
N24   N31   A    
C32   H6    S    
C43   N26   A    
C27   H64   S    
C5    H59   S    
C20   N3    A    
C64   C77   A    
C29   N11   A    
C29   H3    S    
C74   C83   A    
C39   N21   A    
C58   C87   S    
N22   N30   A    
C4    H55   S    
C79   C87   A    
C22   C58   A    
C28   N10   A    
C4    C46   S    
C35   H8    S    
C70   H26   S    
C21   C57   A    
C69   H25   S    
C65   C79   A    
C31   C58   A    
C26   H63   S    
N3    Ni6   S    
C26   C61   A    
N6    Ni8   S    
C9    C88   D    
C43   H17   S    
C6    H58   S    
C24   N6    A    
C75   C84   A    
C23   N23   A    
C56   N29   A    
C42   N25   A    
C30   C57   A    
N21   Ni6   S    
C4    C13   D    
N7    N16   A    
N19   Ni5   S    
C36   C47   A    
C78   N31   A    
C68   H24   S    
C21   H34   S    
C71   C80   A    
C18   C53   A    
C6    C15   D    
C7    H61   S    
N13   Ni2   S    
C73   H47   S    
C16   H35   S    
C34   H39   S    
C74   H48   S    
C70   C74   A    
N8    N17   A    
C69   C73   A    
C36   H9    S    
C25   C60   A    
C18   N32   A    
C55   C81   S    
C41   C52   A    
N12   Ni2   S    
C72   C81   A    
C45   N28   A    
N18   N23   A    
N4    Ni5   S    
C79   H52   S    
C71   H44   S    
N16   Ni3   S    
C18   H1    S    
C57   C80   S    
N19   N27   A    
C34   N27   A    
C8    H60   S    
C66   C85   A    
C20   C55   A    
C52   C78   A    
C33   H7    S    
C88   H54   S    
C37   H10   S    
N29   Ni4   S    
N6    N15   A    
C39   H13   S    
C63   C80   A    
C3    C44   S    
C23   C47   A    
C22   H45   S    
C45   H40   S    
C68   C84   A    
C77   H51   S    
C64   H20   S    
C7    C49   S    
C30   H4    S    
C75   H49   S    
C28   C54   A    
C25   N7    A    
N24   Ni7   S    
C51   C67   A    
C12   H37   S    
C29   C55   A    
C2    C48   S    
C31   H5    S    
C40   H14   S    
C50   C56   A    
C41   H15   S    
C42   H16   S    
C25   H62   S    
C78   H43   S    
N5    Ni7   S    
C64   C83   A    
C38   C44   A    
N9    Ni2   S    
N28   Ni3   S    
N31   Ni3   S    
C12   N12   A    
C20   H23   S    
N26   Ni8   S    
C1    C44   A    
C72   H46   S    
C66   C71   A    
C31   N14   A    
C45   C49   A    
C68   C72   A    
N25   N28   A    
N15   Ni3   S    
N12   N21   A    
C35   C61   A    
N30   Ni4   S    
C66   H22   S    
C37   C48   A    
C1    N1    A    
C65   H21   S    
C5    C14   D    
C39   C46   A    
N27   Ni1   S    
C19   C54   A    
C12   C46   A    
C7    C16   D    
N17   Ni4   S    
C62   C81   A    
C77   C86   A    
C3    H57   S    
C33   C60   A    
C14   H32   S    
C23   H38   S    
C10   C14   S    
C35   N17   A    
N14   Ni4   S    
C62   C75   A    
C13   C16   S    
C67   H42   S    
C34   C48   A    
C63   H19   S    
C70   C86   A    
C8    C50   S    
C73   C82   A    
C54   C82   S    
C26   N8    A    
C17   H33   S    
C2    H53   S    
C11   C17   S    
C9    H28   S    
N7    Ni8   S    
N2    N10   A    
C56   H41   S    
N8    Ni7   S    
C38   H11   S    
C61   C84   S    
C69   C87   A    
N5    N14   A    
C37   N19   A    
N10   Ni1   S    
C13   H29   S    
C19   H12   S    
C27   C53   A    
C43   C50   A    
C38   N20   A    
C62   H18   S    
C22   N5    A    
C76   H50   S    
N20   Ni5   S    
C40   C51   A    
N18   Ni6   S    
C36   N18   A    
N25   Ni7   S    
C53   C83   S    
N11   Ni1   S    
N3    N11   A    
C47   C88   S    
N9    N32   A    
C9    C15   S    
C1    H36   S    
C27   N9    A    
C8    C17   D    
C40   N22   A    
C65   C82   A    
N1    Ni1   S    
N4    N13   A    
C24   H56   S    
C24   C59   A    
N1    N20   A    
C21   N4    A    
C15   H31   S    
N2    Ni6   S    
C59   C86   S    
N26   N29   A    
C3    C11   D    
C42   C49   A    
C41   N24   A    
C33   N16   A    
C63   C76   A    
C32   N15   A    
C19   N2    A    
N32   Ni5   S    
C5    C51   S    
C60   C85   S    
C28   H2    S    
C30   N13   A    
C32   C59   A    
C6    C52   S    
C11   H30   S    
C76   C85   A    
C10   H27   S    
C67   N30   A    
N22   Ni8   S    
N23   Ni2   S    
C2    C10   D    
