data_mof_unit_2633.cif
_audit_creation_date              2012-12-10T16:49:26-0500
_audit_creation_method            fapswitch 2.2
_symmetry_space_group_name_H-M    P1
_symmetry_Int_Tables_number       1
_space_group_crystal_system       triclinic
_cell_length_a                    7.752944
_cell_length_b                    8.578494
_cell_length_c                    12.877877
_cell_angle_alpha                 90.056965
_cell_angle_beta                  88.064137
_cell_angle_gamma                 93.619477
_cell_volume                      854.292534034

loop_
_atom_site_label
_atom_site_type_symbol
_atom_type_description
_atom_site_fract_x
_atom_site_fract_y
_atom_site_fract_z
_atom_type_partial_charge
C1    C     C_R   0.454628 0.205208 0.497283 0.970219
C2    C     C_R   0.711388 0.462007 0.140275 -0.206589
C3    C     C_R   0.589363 0.473521 0.868859 -0.274525
C4    C     C_R   0.410636 0.526473 0.131141 -0.274525
C5    C     C_R   0.578766 0.481689 0.975312 0.186632
C6    C     C_R   0.421233 0.518304 0.024688 0.186632
C7    C     C_2   0.430731 0.041743 0.495732 -0.380056
C8    C     C_2   0.569269 0.958257 0.504268 -0.380056
C9    C     C_R   0.545372 0.794792 0.502717 0.970220
C10   C     C_R   0.465858 0.501956 0.699815 0.882912
C11   C     C_R   0.534142 0.498043 0.300185 0.882912
C12   C     C_R   0.554293 0.496611 0.189019 -0.049681
C13   C     C_R   0.445706 0.503385 0.810981 -0.049680
C14   C     C_R   0.276409 0.545511 0.967036 -0.224384
C15   C     C_R   0.723590 0.454481 0.032964 -0.224384
C16   C     C_R   0.288611 0.537987 0.859724 -0.206591
H1    H     H_    0.289151 0.554879 0.168603 0.161669
H2    H     H_    0.700116 0.009380 0.512409 0.180240
H3    H     H_    0.710848 0.445116 0.831397 0.161669
H4    H     H_    0.823139 0.438997 0.184787 0.162560
H5    H     H_    0.176860 0.560998 0.815213 0.162561
H6    H     H_    0.155079 0.573344 0.004762 0.138386
H7    H     H_    0.844920 0.426648 0.995238 0.138386
H8    H     H_    0.998464 0.615591 0.421808 0.189893
H9    H     H_    0.001536 0.384409 0.578192 0.189893
H10   H     H_    0.299884 0.990620 0.487591 0.180240
N1    N     N_2   0.054030 0.541640 0.471970 -0.177106
N2    N     N_2   0.945970 0.458360 0.528030 -0.177107
O1    O     O_R   0.609680 0.261530 0.506880 -0.612240
O2    O     O_R   0.390320 0.738470 0.493120 -0.612240
O3    O     O_R   0.323330 0.288220 0.488910 -0.629413
O4    O     O_R   0.676670 0.711780 0.511090 -0.629413
O5    O     O_R   0.619510 0.488830 0.661140 -0.625200
O6    O     O_R   0.380490 0.511170 0.338860 -0.625201
O7    O     O_R   0.333160 0.515520 0.643180 -0.632834
O8    O     O_R   0.666840 0.484480 0.356820 -0.632834
Zn1   Zn    Zn3+2 0.691200 0.482180 0.511990 0.939516
Zn2   Zn    Zn3+2 0.308800 0.517820 0.488010 0.939516

loop_
_geom_bond_atom_site_label_1
_geom_bond_atom_site_label_2
_ccdc_geom_bond_type
C11   C12   S    
O3    Zn2   S    
C3    H3    S    
C16   H5    S    
C4    C12   A    
C3    C13   A    
H8    N1    S    
C2    C12   A    
C14   H6    S    
C1    O1    A    
C7    C8    D    
O6    Zn2   S    
O4    Zn1   S    
H9    N2    S    
C2    C15   A    
C10   O7    A    
C7    H10   S    
N2    Zn1   S    
C4    H1    S    
C9    O2    A    
C15   H7    S    
C11   O8    A    
O5    Zn1   S    
C10   O5    A    
C5    C6    A    
C14   C16   A    
C5    C15   A    
C6    C14   A    
N1    Zn2   S    
C2    H4    S    
C1    O3    A    
O7    Zn2   S    
O2    Zn2   S    
C4    C6    A    
C13   C16   A    
O1    Zn1   S    
N1    N2    D    
O8    Zn1   S    
C9    O4    A    
C1    C7    S    
C11   O6    A    
C8    H2    S    
C8    C9    S    
C3    C5    A    
C10   C13   S    
