data_mof_unit_1725.cif
_audit_creation_date              2012-10-26T17:11:11-0400
_audit_creation_method            fapswitch 2.2
_symmetry_space_group_name_H-M    P1
_symmetry_Int_Tables_number       1
_space_group_crystal_system       triclinic
_cell_length_a                    27.932069
_cell_length_b                    18.844161
_cell_length_c                    16.863055
_cell_angle_alpha                 90.027365
_cell_angle_beta                  61.828061
_cell_angle_gamma                 89.990802
_cell_volume                      7824.48081189

loop_
_atom_site_label
_atom_site_type_symbol
_atom_type_description
_atom_site_fract_x
_atom_site_fract_y
_atom_site_fract_z
_atom_type_partial_charge
C1    C     C_R   0.297317 0.732538 0.328497 0.820675
C2    C     C_R   0.706435 0.275500 0.669568 0.828443
C3    C     C_R   0.702544 0.732821 0.671535 0.802029
C4    C     C_R   0.293448 0.275650 0.330516 0.851278
C5    C     C_R   0.797346 0.232591 0.328506 0.820547
C6    C     C_R   0.206350 0.775325 0.669666 0.831089
C7    C     C_R   0.202552 0.232804 0.671536 0.802907
C8    C     C_R   0.793451 0.775647 0.330514 0.844476
C9    C     C_R   0.557593 0.877491 0.469333 0.488081
C10   C     C_R   0.463307 0.128081 0.462149 0.403252
C11   C     C_R   0.433560 0.879566 0.550210 0.498272
C12   C     C_R   0.529909 0.124357 0.567009 0.503644
C13   C     C_R   0.061462 0.379960 0.461765 0.491828
C14   C     C_R   0.965219 0.628211 0.453824 0.409011
C15   C     C_R   0.937247 0.379547 0.541766 0.495785
C16   C     C_R   0.030639 0.626603 0.560172 0.499432
C17   C     C_R   0.209404 0.755233 0.966440 -0.202075
C18   C     C_R   0.769091 0.218207 0.058979 -0.091370
C19   C     C_R   0.789897 0.756106 0.034241 -0.226810
C20   C     C_R   0.230001 0.220038 0.941845 -0.216914
C21   C     C_R   0.710326 0.256690 0.965497 -0.202849
C22   C     C_R   0.268345 0.716880 0.059716 -0.091088
C23   C     C_R   0.289985 0.255950 0.034156 -0.225883
C24   C     C_R   0.729908 0.720233 0.941928 -0.217922
C25   C     C_R   0.250253 0.702024 0.932960 0.238239
C26   C     C_R   0.718809 0.254437 0.103212 0.382871
C27   C     C_R   0.748805 0.703223 0.067479 0.311279
C28   C     C_R   0.280417 0.256661 0.897881 0.312828
C29   C     C_R   0.751440 0.203825 0.931724 0.239350
C30   C     C_R   0.218101 0.753204 0.103990 0.383126
C31   C     C_R   0.248900 0.203058 0.067401 0.309939
C32   C     C_R   0.780312 0.756885 0.897985 0.312324
C33   C     C_R   0.286524 0.697152 0.968816 0.378282
C34   C     C_R   0.697609 0.286338 0.050889 0.314734
C35   C     C_R   0.712283 0.699870 0.032847 0.414484
C36   C     C_R   0.302117 0.287231 0.950259 0.415122
C37   C     C_R   0.787545 0.198888 0.967891 0.378407
C38   C     C_R   0.196851 0.785049 0.051689 0.314784
C39   C     C_R   0.212377 0.199691 0.032769 0.414674
C40   C     C_R   0.802014 0.787428 0.950375 0.414443
C41   C     C_R   0.128825 0.805900 0.952491 0.445289
C42   C     C_R   0.837582 0.142561 0.081710 0.458491
C43   C     C_R   0.870198 0.807515 0.048317 0.526588
C44   C     C_R   0.162019 0.143710 0.918719 0.395397
C45   C     C_R   0.629315 0.306442 0.952146 0.445624
C46   C     C_R   0.337288 0.641880 0.082159 0.458170
C47   C     C_R   0.370240 0.307457 0.048291 0.526674
C48   C     C_R   0.661974 0.643825 0.918774 0.395515
C49   C     C_R   0.110167 0.842099 0.899280 -0.181972
C50   C     C_R   0.876030 0.137985 0.113261 -0.188133
C51   C     C_R   0.889086 0.843174 0.101266 -0.195531
C52   C     C_R   0.123806 0.138360 0.886822 -0.171855
C53   C     C_R   0.610300 0.342241 0.899167 -0.182579
C54   C     C_R   0.375931 0.637792 0.113349 -0.187493
C55   C     C_R   0.389098 0.343158 0.101257 -0.195346
C56   C     C_R   0.623785 0.638404 0.886841 -0.171767
C57   C     C_R   0.133938 0.827830 0.807824 -0.381598
C58   C     C_R   0.865535 0.172527 0.192558 -0.345745
C59   C     C_R   0.865439 0.828832 0.192651 -0.392459
C60   C     C_R   0.134286 0.172776 0.807447 -0.335001
C61   C     C_R   0.633929 0.327820 0.807766 -0.379976
C62   C     C_R   0.365528 0.672571 0.192459 -0.350403
C63   C     C_R   0.365437 0.328832 0.192646 -0.393007
C64   C     C_R   0.634272 0.672791 0.807443 -0.335616
C65   C     C_R   0.183265 0.792489 0.765903 -0.115487
C66   C     C_R   0.822448 0.219601 0.231028 -0.218313
C67   C     C_R   0.816184 0.793379 0.234580 -0.112868
C68   C     C_R   0.177121 0.220285 0.769203 -0.197306
C69   C     C_R   0.683471 0.292983 0.765644 -0.114722
C70   C     C_R   0.322313 0.719432 0.231032 -0.217668
C71   C     C_R   0.316195 0.293350 0.234563 -0.113135
C72   C     C_R   0.677091 0.720330 0.769210 -0.197866
C73   C     C_R   0.211723 0.779973 0.815032 0.331765
C74   C     C_R   0.799110 0.245046 0.177980 0.410003
C75   C     C_R   0.787502 0.781163 0.185754 0.304691
C76   C     C_R   0.200006 0.246332 0.822683 0.363780
C77   C     C_R   0.712244 0.281308 0.814398 0.328070
C78   C     C_R   0.298717 0.744465 0.178163 0.410389
C79   C     C_R   0.287537 0.281075 0.185705 0.307276
C80   C     C_R   0.699936 0.746441 0.822717 0.364276
C81   C     C_R   0.183038 0.780659 0.911141 -0.108504
C82   C     C_R   0.802038 0.201852 0.106643 0.024288
C83   C     C_R   0.816120 0.781633 0.089631 -0.081197
C84   C     C_R   0.197050 0.203442 0.894184 -0.039926
C85   C     C_R   0.683703 0.281822 0.910502 -0.108252
C86   C     C_R   0.301550 0.700975 0.107105 0.023557
C87   C     C_R   0.316175 0.281536 0.089578 -0.082403
C88   C     C_R   0.696978 0.703588 0.894244 -0.039847
C89   C     C_R   0.196442 0.631950 0.527992 0.826945
C90   C     C_R   0.800278 0.369225 0.483584 0.809789
C91   C     C_R   0.803685 0.631993 0.471751 0.872493
C92   C     C_R   0.199791 0.369206 0.516251 0.805064
C93   C     C_R   0.697357 0.131474 0.524785 0.838023
C94   C     C_R   0.300212 0.869238 0.483687 0.814357
C95   C     C_R   0.303675 0.131970 0.471977 0.870539
C96   C     C_R   0.700858 0.868960 0.512603 0.789975
C97   C     C_R   0.929821 0.899360 0.064143 0.815728
C98   C     C_R   0.076489 0.091983 0.930096 0.845968
C99   C     C_R   0.070053 0.899204 0.935946 0.808150
C100  C     C_R   0.923512 0.091939 0.069902 0.853271
C101  C     C_R   0.429824 0.399357 0.064140 0.815996
C102  C     C_R   0.576487 0.591990 0.930098 0.846373
C103  C     C_R   0.570073 0.399216 0.935929 0.808057
C104  C     C_R   0.423495 0.591899 0.069919 0.853743
C105  C     C_R   0.047196 0.503283 0.510964 -0.128613
C106  C     C_R   0.950950 0.503476 0.495956 -0.123600
C107  C     C_R   0.545301 0.001396 0.516712 -0.129036
C108  C     C_R   0.448608 0.003150 0.503147 -0.123500
C109  C     C_R   0.019531 0.567885 0.518397 -0.014543
C110  C     C_R   0.972191 0.439089 0.508803 -0.013539
C111  C     C_R   0.977821 0.568226 0.491649 0.009219
C112  C     C_R   0.026236 0.439112 0.496548 -0.016721
C113  C     C_R   0.517784 0.066317 0.525500 -0.013099
C114  C     C_R   0.469095 0.938501 0.516890 -0.011758
C115  C     C_R   0.475696 0.067610 0.499529 0.008428
C116  C     C_R   0.523253 0.937480 0.503968 -0.019318
C117  C     C_R   0.127641 0.440322 0.496265 -0.127223
C118  C     C_R   0.886058 0.564819 0.460934 -0.051889
C119  C     C_R   0.871489 0.440310 0.506479 -0.131838
C120  C     C_R   0.112618 0.564277 0.544905 -0.116923
C121  C     C_R   0.626793 0.938056 0.496117 -0.117263
C122  C     C_R   0.385221 0.064872 0.464823 -0.051363
C123  C     C_R   0.369817 0.940456 0.510408 -0.131122
C124  C     C_R   0.613371 0.062008 0.544712 -0.126513
C125  C     C_R   0.172695 0.437204 0.514748 -0.189728
C126  C     C_R   0.834945 0.565275 0.460826 -0.105168
C127  C     C_R   0.827338 0.437215 0.485499 -0.186675
C128  C     C_R   0.165176 0.565112 0.539938 -0.155266
C129  C     C_R   0.674874 0.936299 0.505893 -0.212455
C130  C     C_R   0.334905 0.065318 0.461823 -0.104303
C131  C     C_R   0.326918 0.937286 0.486466 -0.185674
C132  C     C_R   0.668079 0.063914 0.531236 -0.151952
C133  C     C_R   0.191871 0.500707 0.533408 0.322711
C134  C     C_R   0.809102 0.500677 0.464671 0.294864
C135  C     C_R   0.698489 0.000745 0.510136 0.340187
C136  C     C_R   0.309558 0.000686 0.463861 0.294546
C137  C     C_R   0.095684 0.502537 0.518035 -0.020182
C138  C     C_R   0.902855 0.502838 0.487429 -0.054313
C139  C     C_R   0.595048 0.000389 0.519758 -0.019475
C140  C     C_R   0.401189 0.002865 0.492594 -0.055502
C141  C     C_R   0.611652 0.882126 0.455919 0.303049
C142  C     C_R   0.421998 0.122419 0.435134 0.309185
C143  C     C_R   0.381125 0.885076 0.556248 0.301882
C144  C     C_R   0.575740 0.118794 0.583334 0.305294
C145  C     C_R   0.114762 0.385235 0.451943 0.300896
C146  C     C_R   0.922792 0.622344 0.429435 0.305892
C147  C     C_R   0.884160 0.384774 0.550471 0.302975
C148  C     C_R   0.075186 0.621684 0.579764 0.307971
Cu1   Cu    Cu3+1 0.209920 0.785290 0.495070 1.008221
Cu2   Cu    Cu3+1 0.790080 0.214710 0.504930 1.034624
Cu3   Cu    Cu3+1 0.790080 0.785290 0.504930 1.000970
Cu4   Cu    Cu3+1 0.209920 0.214710 0.495070 1.023705
Cu5   Cu    Cu3+1 0.709920 0.285290 0.495070 1.008733
Cu6   Cu    Cu3+1 0.290080 0.714710 0.504930 1.021510
Cu7   Cu    Cu3+1 0.290080 0.285290 0.504930 0.997191
Cu8   Cu    Cu3+1 0.709920 0.714710 0.495070 1.026625
Cu9   Cu    Cu3+1 0.495240 0.500000 0.924150 1.028249
Cu10  Cu    Cu3+1 0.504760 0.500000 0.075850 1.028042
Cu11  Cu    Cu3+1 0.995240 1.000000 0.924150 1.029259
Cu12  Cu    Cu3+1 0.004760 0.000000 0.075850 1.029845
H1    H     H_    0.115556 0.847770 0.768249 0.221765
H2    H     H_    0.888999 0.160068 0.226761 0.220892
H3    H     H_    0.884010 0.848473 0.232090 0.223816
H4    H     H_    0.111078 0.159809 0.772953 0.215139
H5    H     H_    0.615265 0.347275 0.768396 0.221323
H6    H     H_    0.389165 0.660450 0.226460 0.219950
H7    H     H_    0.383989 0.348506 0.232097 0.223419
H8    H     H_    0.611090 0.659774 0.772921 0.214988
O1    O     O_R   0.255040 0.869590 0.478480 -0.565108
O2    O     O_R   0.744960 0.130410 0.521520 -0.516617
O3    O     O_R   0.744960 0.869590 0.521520 -0.558574
O4    O     O_R   0.255040 0.130410 0.478480 -0.556371
O5    O     O_R   0.755040 0.369590 0.478480 -0.562908
O6    O     O_R   0.244960 0.630410 0.521520 -0.539723
O7    O     O_R   0.244960 0.369590 0.521520 -0.560873
O8    O     O_R   0.755040 0.630410 0.478480 -0.553302
O9    O     O_R   0.182050 0.796550 0.624440 -0.606482
O10   O     O_R   0.817950 0.203450 0.375560 -0.585327
O11   O     O_R   0.817950 0.796550 0.375560 -0.602078
O12   O     O_R   0.182050 0.203450 0.624440 -0.591798
O13   O     O_R   0.682050 0.296550 0.624440 -0.606015
O14   O     O_R   0.317950 0.703450 0.375560 -0.591801
O15   O     O_R   0.317950 0.296550 0.375560 -0.602975
O16   O     O_R   0.682050 0.703450 0.624440 -0.591032
O17   O     O_R   0.250530 0.763330 0.367210 -0.551802
O18   O     O_R   0.749470 0.236670 0.632790 -0.513817
O19   O     O_R   0.749470 0.763330 0.632790 -0.569477
O20   O     O_R   0.250530 0.236670 0.367210 -0.506929
O21   O     O_R   0.750530 0.263330 0.367210 -0.553529
O22   O     O_R   0.249470 0.736670 0.632790 -0.507802
O23   O     O_R   0.249470 0.263330 0.632790 -0.568528
O24   O     O_R   0.750530 0.736670 0.367210 -0.507811
O25   O     O_R   0.177260 0.690030 0.513710 -0.559712
O26   O     O_R   0.822740 0.309970 0.486290 -0.565423
O27   O     O_R   0.822740 0.690030 0.486290 -0.555864
O28   O     O_R   0.177260 0.309970 0.513710 -0.563814
O29   O     O_R   0.677260 0.190030 0.513710 -0.563833
O30   O     O_R   0.322740 0.809970 0.486290 -0.563910
O31   O     O_R   0.322740 0.190030 0.486290 -0.555207
O32   O     O_R   0.677260 0.809970 0.513710 -0.561754
O33   O     O_R   0.051640 0.926880 0.885090 -0.601548
O34   O     O_R   0.948360 0.073120 0.114910 -0.602939
O35   O     O_R   0.948360 0.926880 0.114910 -0.603437
O36   O     O_R   0.051640 0.073120 0.885090 -0.603699
O37   O     O_R   0.551640 0.426880 0.885090 -0.601715
O38   O     O_R   0.448360 0.573120 0.114910 -0.604082
O39   O     O_R   0.448360 0.426880 0.114910 -0.604228
O40   O     O_R   0.551640 0.573120 0.885090 -0.603847
O41   O     O_R   0.940620 0.926560 0.986760 -0.527849
O42   O     O_R   0.059380 0.073440 0.013240 -0.532562
O43   O     O_R   0.059380 0.926560 0.013240 -0.537106
O44   O     O_R   0.940620 0.073440 0.986760 -0.526674
O45   O     O_R   0.440620 0.426560 0.986760 -0.527718
O46   O     O_R   0.559380 0.573440 0.013240 -0.532256
O47   O     O_R   0.559380 0.426560 0.013240 -0.536793
O48   O     O_R   0.440620 0.573440 0.986760 -0.526829
O49   O     O_3   0.237523 0.500632 0.544732 -0.675611
H9    H     H_    0.268519 0.492606 0.483885 0.329896
O50   O     O_3   0.765432 0.500328 0.447954 -0.671874
H10   H     H_    0.732939 0.493925 0.507497 0.331520
O51   O     O_3   0.752621 0.003182 0.488903 -0.680720
H11   H     H_    0.773167 0.975422 0.432765 0.319238
O52   O     O_3   0.267369 0.000240 0.443386 -0.673521
H12   H     H_    0.233903 0.994405 0.501749 0.333346
O53   O     O_3   0.650441 0.839182 0.391177 -0.685421
H13   H     H_    0.686056 0.863610 0.365892 0.328427
O54   O     O_3   0.421931 0.165973 0.369390 -0.725082
H14   H     H_    0.460046 0.179178 0.327723 0.333047
O55   O     O_3   0.339861 0.843673 0.618497 -0.691707
H15   H     H_    0.304905 0.868953 0.638259 0.319611
O56   O     O_3   0.579110 0.163415 0.645546 -0.744436
H16   H     H_    0.600727 0.140045 0.670804 0.316584
O57   O     O_3   0.155066 0.343953 0.387297 -0.687399
H17   H     H_    0.190270 0.368992 0.365488 0.323405
O58   O     O_3   0.921366 0.665666 0.364645 -0.726303
H18   H     H_    0.959367 0.676718 0.319935 0.330384
O59   O     O_3   0.843735 0.343050 0.613972 -0.688967
H19   H     H_    0.808520 0.368035 0.635413 0.322789
O60   O     O_3   0.077162 0.667618 0.642071 -0.743284
H20   H     H_    0.097369 0.644966 0.670354 0.320336
O61   O     O_3   0.541715 0.824089 0.429297 -0.579401
C149  C     C_3   0.558094 0.755823 0.441943 -0.124976
H21   H     H_    0.558698 0.750213 0.507271 0.138860
H22   H     H_    0.597963 0.741487 0.384667 0.236173
H23   H     H_    0.528950 0.716355 0.441040 0.137018
O62   O     O_3   0.498289 0.186055 0.436913 -0.581667
C150  C     C_3   0.469027 0.250720 0.463439 -0.210907
H24   H     H_    0.432275 0.247227 0.530576 0.174354
H25   H     H_    0.457812 0.270194 0.412494 0.173986
H26   H     H_    0.496104 0.292004 0.467286 0.164872
O63   O     O_3   0.446656 0.826753 0.594818 -0.584378
C151  C     C_3   0.427666 0.758816 0.587295 -0.139465
H27   H     H_    0.427115 0.750686 0.522261 0.150459
H28   H     H_    0.387187 0.748428 0.645365 0.232629
H29   H     H_    0.455124 0.718350 0.591663 0.134070
O64   O     O_3   0.489360 0.175727 0.607773 -0.580872
C152  C     C_3   0.509001 0.243183 0.615247 -0.136053
H30   H     H_    0.549268 0.255836 0.557172 0.162949
H31   H     H_    0.509429 0.248153 0.680463 0.207140
H32   H     H_    0.479846 0.284077 0.617654 0.144492
O65   O     O_3   0.047219 0.327019 0.418873 -0.582014
C153  C     C_3   0.064781 0.258844 0.429120 -0.121750
H33   H     H_    0.064929 0.251871 0.494639 0.140114
H34   H     H_    0.105158 0.246520 0.371832 0.239387
H35   H     H_    0.036643 0.218891 0.425890 0.137986
O66   O     O_3   0.000961 0.685487 0.425817 -0.582162
C154  C     C_3   0.972872 0.751104 0.448696 -0.204511
H36   H     H_    0.934988 0.749460 0.514469 0.171923
H37   H     H_    0.963936 0.770107 0.394964 0.173980
H38   H     H_    0.000036 0.791835 0.453367 0.163636
O67   O     O_3   0.951437 0.326114 0.584103 -0.581811
C155  C     C_3   0.933811 0.258148 0.573293 -0.142268
H39   H     H_    0.933619 0.251617 0.507747 0.146994
H40   H     H_    0.893443 0.245769 0.630543 0.230781
H41   H     H_    0.961945 0.217961 0.576096 0.135126
O68   O     O_3   0.989936 0.678085 0.598512 -0.580357
C156  C     C_3   0.009229 0.746029 0.605104 -0.135314
H42   H     H_    0.049990 0.758057 0.547891 0.161459
H43   H     H_    0.008460 0.752493 0.671099 0.209110
H44   H     H_    0.980476 0.786465 0.604980 0.142761
O69   O     O_3   0.167661 0.846961 0.083968 -0.652935
H45   H     H_    0.174226 0.877216 0.031790 0.336553
O70   O     O_3   0.840618 0.177311 0.914831 -0.654765
H46   H     H_    0.847884 0.172310 0.851596 0.369593
O71   O     O_3   0.833633 0.847867 0.921437 -0.657147
H47   H     H_    0.833974 0.865868 0.865946 0.372762
O72   O     O_3   0.160079 0.178655 0.090896 -0.609473
H48   H     H_    0.135288 0.203306 0.073074 0.325156
O73   O     O_3   0.668223 0.348089 0.083359 -0.652652
H49   H     H_    0.674579 0.378337 0.031280 0.336576
O74   O     O_3   0.339534 0.675440 0.915527 -0.655009
H50   H     H_    0.346605 0.670208 0.852416 0.368177
O75   O     O_3   0.333730 0.347674 0.921294 -0.656915
H51   H     H_    0.334085 0.365640 0.865779 0.372957
O76   O     O_3   0.659988 0.678809 0.090957 -0.607845
H52   H     H_    0.635195 0.703444 0.073125 0.325110
O77   O     O_3   0.257364 0.656238 0.864302 -0.671629
H53   H     H_    0.222057 0.651027 0.864310 0.349562
O78   O     O_3   0.692115 0.260169 0.195906 -0.655146
H54   H     H_    0.655923 0.281925 0.215630 0.373223
O79   O     O_3   0.740227 0.658431 0.137640 -0.610434
H55   H     H_    0.775243 0.652329 0.138428 0.333577
O80   O     O_3   0.310132 0.262564 0.805571 -0.672088
H56   H     H_    0.301640 0.221049 0.778308 0.337146
O81   O     O_3   0.758874 0.158304 0.862656 -0.672724
H57   H     H_    0.723588 0.152678 0.862695 0.347796
O82   O     O_3   0.191528 0.759148 0.196662 -0.655294
H58   H     H_    0.155349 0.780960 0.216430 0.373119
O83   O     O_3   0.240320 0.158283 0.137577 -0.612467
H59   H     H_    0.275333 0.152206 0.138385 0.333609
O84   O     O_3   0.810029 0.762815 0.805680 -0.670964
H60   H     H_    0.801565 0.721287 0.778400 0.337753
O85   O     O_3   0.095787 0.799308 0.044347 -0.524131
C157  C     C_3   0.054459 0.749690 0.060080 -0.245189
H61   H     H_    0.071666 0.697725 0.027577 0.144898
H62   H     H_    0.025769 0.770272 0.037064 0.128484
H63   H     H_    0.030849 0.740384 0.133594 0.190454
O86   O     O_3   0.834268 0.088424 0.029046 -0.507812
C158  C     C_3   0.800598 0.034592 0.086216 -0.251876
H64   H     H_    0.758921 0.054853 0.130909 0.145042
H65   H     H_    0.818361 0.010760 0.126886 0.127548
H66   H     H_    0.797121 0.991706 0.044127 0.219129
O87   O     O_3   0.904506 0.799640 0.957191 -0.510968
C159  C     C_3   0.931539 0.734046 0.943316 -0.281175
H67   H     H_    0.902341 0.688941 0.965225 0.155275
H68   H     H_    0.956797 0.732257 0.978305 0.127235
H69   H     H_    0.959199 0.727578 0.870249 0.205872
O88   O     O_3   0.165037 0.090492 0.972634 -0.513845
C160  C     C_3   0.201293 0.038153 0.916554 -0.239475
H70   H     H_    0.242484 0.060542 0.873470 0.140288
H71   H     H_    0.185495 0.012081 0.874322 0.123947
H72   H     H_    0.205417 0.996686 0.959550 0.194975
O89   O     O_3   0.596445 0.299656 0.044027 -0.524238
C161  C     C_3   0.555230 0.249823 0.059868 -0.245065
H73   H     H_    0.572545 0.197984 0.027056 0.144121
H74   H     H_    0.526318 0.270311 0.037273 0.128665
H75   H     H_    0.531837 0.240296 0.133360 0.191571
O90   O     O_3   0.333955 0.587413 0.029921 -0.507494
C162  C     C_3   0.300443 0.533659 0.087500 -0.251455
H76   H     H_    0.258749 0.553857 0.132212 0.145206
H77   H     H_    0.318349 0.510214 0.128167 0.126658
H78   H     H_    0.296969 0.490491 0.045746 0.219572
O91   O     O_3   0.404564 0.299549 0.957176 -0.511362
C163  C     C_3   0.431864 0.234180 0.943424 -0.281778
H79   H     H_    0.402846 0.188880 0.965579 0.155725
H80   H     H_    0.457208 0.232848 0.978267 0.127489
H81   H     H_    0.459472 0.227625 0.870355 0.204526
O92   O     O_3   0.665020 0.590613 0.972668 -0.513727
C164  C     C_3   0.701542 0.538508 0.916577 -0.239921
H82   H     H_    0.742659 0.561164 0.873650 0.140219
H83   H     H_    0.685928 0.512268 0.874189 0.124198
H84   H     H_    0.705776 0.497134 0.959564 0.194928
O93   O     O_3   0.267122 0.770149 0.767825 -0.656796
H85   H     H_    0.283547 0.791961 0.802780 0.338564
O94   O     O_3   0.776366 0.311987 0.191772 -0.649983
H86   H     H_    0.787512 0.339548 0.230423 0.336275
O95   O     O_3   0.732007 0.772265 0.233313 -0.649717
H87   H     H_    0.715705 0.793586 0.197914 0.346384
O96   O     O_3   0.223835 0.312611 0.807528 -0.668376
H88   H     H_    0.212839 0.340217 0.768744 0.339570
O97   O     O_3   0.767746 0.272490 0.766827 -0.657047
H89   H     H_    0.784052 0.294297 0.801964 0.339548
O98   O     O_3   0.275846 0.811319 0.191818 -0.650181
H90   H     H_    0.287087 0.839131 0.230162 0.336741
O99   O     O_3   0.232046 0.272124 0.233237 -0.647831
H91   H     H_    0.215742 0.293413 0.197824 0.346780
O100  O     O_3   0.723731 0.812741 0.807559 -0.670368
H92   H     H_    0.712753 0.840300 0.768718 0.335730

loop_
_geom_bond_atom_site_label_1
_geom_bond_atom_site_label_2
_ccdc_geom_bond_type
C51   C97   S    
C35   O76   S    
Cu9   Cu10  S    
C12   O64   S    
O74   H50   S    
C79   C87   A    
C142  O54   S    
O79   H55   S    
O95   H87   S    
Cu10  O39   S    
C13   C112  A    
Cu11  O33   S    
O67   C155  S    
Cu5   O5    S    
C62   C70   A    
Cu2   O26   S    
C101  O39   A    
C7    C68   S    
O52   H12   S    
C101  O45   A    
C155  H39   S    
C149  H22   S    
C10   O62   S    
C3    O16   A    
Cu4   O20   S    
C77   O97   S    
C89   O6    A    
C73   C81   A    
C16   C109  A    
C92   O7    A    
C93   O2    A    
C149  H23   S    
O87   C159  S    
Cu9   O37   S    
C104  O48   A    
C48   O92   S    
C57   C65   A    
Cu6   O6    S    
C20   C28   A    
C39   O72   S    
C157  H61   S    
O89   C161  S    
C21   C29   A    
C23   C31   A    
Cu4   O12   S    
C24   C32   A    
O55   H15   S    
C91   O27   A    
Cu3   O11   S    
O80   H56   S    
C89   O25   A    
C159  H69   S    
C105  C112  A    
C63   C71   A    
C120  C148  A    
C6    O9    A    
C58   H2    S    
C150  H26   S    
C26   C34   A    
C9    C116  A    
C92   O28   A    
C3    O19   A    
C45   O89   S    
C1    O17   A    
C50   C100  S    
C1    C70   S    
Cu11  O41   S    
C17   C25   A    
C4    O20   A    
C3    C72   S    
O69   H45   S    
C5    O21   A    
C80   C88   A    
O99   H91   S    
C161  H75   S    
Cu2   O2    S    
C8    O24   A    
C155  H41   S    
C52   C98   S    
O92   C164  S    
C18   C82   S    
C26   O78   S    
C133  O49   S    
C11   C143  A    
O77   H53   S    
C57   H1    S    
C126  C134  A    
C23   C36   A    
O96   H88   S    
C152  H31   S    
C118  C138  A    
C119  C147  A    
C4    C71   S    
C134  O50   S    
O57   H17   S    
C151  H27   S    
C113  C115  A    
C158  H65   S    
C164  H82   S    
C43   C83   A    
C124  C139  A    
C69   C77   A    
C127  C134  A    
C13   C145  A    
C9    O61   S    
C92   C125  S    
Cu12  O35   S    
C71   C79   A    
C90   C127  S    
C99   O43   A    
C30   C38   A    
O51   H11   S    
C97   O41   A    
Cu1   O1    S    
C108  C115  A    
C109  C111  A    
O65   C153  S    
Cu6   O30   S    
C154  H38   S    
Cu7   O15   S    
Cu3   O27   S    
C66   C74   A    
Cu3   O3    S    
C124  C132  A    
C152  H30   S    
C52   C60   A    
C38   O69   S    
C59   C67   A    
C129  C135  A    
C53   C61   A    
C107  C113  A    
C55   C63   A    
C95   C130  S    
C56   C64   A    
C74   O94   S    
C93   C132  S    
C95   O4    A    
C44   C52   A    
C63   H7    S    
C45   C53   A    
C156  H42   S    
C160  H71   S    
C19   C83   S    
C80   O100  S    
C106  C111  A    
C135  O51   S    
Cu4   O28   S    
C131  C136  A    
C161  H73   S    
C159  H67   S    
O49   H9    S    
C96   O3    A    
C2    O13   A    
C47   C87   A    
C93   O29   A    
C28   O80   S    
O75   H51   S    
C49   C99   S    
O98   H90   S    
O73   H49   S    
C73   O93   S    
C60   C68   A    
C42   C50   A    
C151  H29   S    
C62   H6    S    
C164  H84   S    
C20   C84   S    
C67   C75   A    
O94   H86   S    
Cu7   O31   S    
C96   O32   A    
Cu12  O43   S    
C105  C109  A    
C146  O58   S    
C22   C30   A    
C119  C138  A    
C103  O37   A    
O88   C160  S    
Cu2   O18   S    
C114  C116  A    
C154  H36   S    
C153  H33   S    
Cu10  O46   S    
C152  H32   S    
C121  C139  A    
C76   O96   S    
C122  C140  A    
C72   C80   A    
Cu11  O36   S    
C102  O40   A    
C77   C85   A    
C60   H4    S    
C7    O12   A    
C61   H5    S    
C17   C38   A    
C4    O15   A    
C107  C139  A    
C110  C112  A    
C5    O10   A    
C59   H3    S    
C19   C40   A    
C105  C137  A    
C162  H78   S    
O68   C156  S    
C8    C67   S    
C159  H68   S    
C156  H44   S    
C25   O77   S    
O70   H46   S    
C96   C129  S    
C117  C125  A    
C25   C33   A    
C119  C127  A    
Cu1   O17   S    
C145  O57   S    
O60   H20   S    
C18   C26   A    
C16   O68   S    
C76   C84   A    
C153  H35   S    
O93   H85   S    
Cu8   O16   S    
O63   C151  S    
C31   O83   S    
Cu3   O19   S    
C54   C104  S    
C97   O35   A    
Cu12  O34   S    
C157  H62   S    
C40   O71   S    
C117  C145  A    
C10   C142  A    
C108  C114  A    
C144  O56   S    
O62   C150  S    
C100  O34   A    
C102  O46   A    
C6    C65   S    
Cu2   Cu5   S    
O58   H18   S    
C48   C88   A    
C104  O38   A    
C37   O70   S    
C34   O73   S    
C157  H63   S    
C147  O59   S    
Cu6   O22   S    
C43   C51   A    
C99   O33   A    
C15   C110  A    
C7    O23   A    
C74   C82   A    
C44   O88   S    
C150  H25   S    
C21   C85   S    
O82   H58   S    
C50   C58   A    
C121  C141  A    
O76   H52   S    
C75   O95   S    
C20   C39   A    
C5    C66   S    
Cu5   O21   S    
C21   C34   A    
C54   C62   A    
Cu11  O44   S    
Cu10  O38   S    
Cu1   Cu6   S    
O71   H47   S    
C162  H76   S    
C90   O26   A    
Cu4   Cu7   S    
C41   C81   A    
C46   C54   A    
C149  H21   S    
Cu3   Cu8   S    
C143  O55   S    
C24   C88   S    
C36   O75   S    
Cu5   O13   S    
C68   C76   A    
C103  O47   A    
O50   H10   S    
C151  H28   S    
Cu7   O7    S    
C55   C101  S    
Cu8   O8    S    
Cu9   O48   S    
C123  C131  A    
C121  C129  A    
C44   C84   A    
C1    O14   A    
C120  C128  A    
Cu12  O42   S    
C42   O86   S    
C94   C131  S    
C27   C35   A    
C64   H8    S    
C15   C147  A    
C154  H37   S    
C8    O11   A    
C75   C83   A    
O85   C157  S    
C53   C103  S    
Cu4   O4    S    
C17   C81   S    
C22   C86   S    
C79   O99   S    
C56   C102  S    
C158  H64   S    
C28   C36   A    
O81   H57   S    
C29   C37   A    
C120  C137  A    
C89   C128  S    
O91   C163  S    
C91   C126  S    
C70   C78   A    
C148  O60   S    
C160  H70   S    
O100  H92   S    
C42   C82   A    
C30   O82   S    
C49   C57   A    
O83   H59   S    
C98   O42   A    
C90   O5    A    
O54   H14   S    
C98   O36   A    
C18   C37   A    
O61   C149  S    
C94   O1    A    
C161  H74   S    
C106  C138  A    
Cu5   O29   S    
C65   C73   A    
C11   C114  A    
C41   C49   A    
Cu11  Cu12  S    
C91   O8    A    
C163  H81   S    
C19   C27   A    
Cu2   O10   S    
Cu1   O25   S    
C78   C86   A    
C32   C40   A    
C158  H66   S    
C164  H83   S    
C23   C87   S    
Cu8   O32   S    
Cu9   O40   S    
C15   O67   S    
C33   O74   S    
C58   C66   A    
C141  O53   S    
C14   C111  A    
C107  C116  A    
C24   C35   A    
C118  C146  A    
C43   O87   S    
C108  C140  A    
O78   H54   S    
C9    C141  A    
C153  H34   S    
O84   H60   S    
Cu10  O47   S    
C117  C137  A    
C123  C140  A    
C100  O44   A    
C11   O63   S    
C12   C144  A    
C94   O30   A    
C45   C85   A    
C2    O18   A    
O86   C158  S    
C125  C133  A    
O64   C152  S    
C6    O22   A    
Cu1   O9    S    
O53   H13   S    
C29   O81   S    
C163  H79   S    
Cu7   O23   S    
Cu8   O24   S    
C155  H40   S    
C162  H77   S    
C163  H80   S    
C156  H43   S    
O72   H48   S    
C160  H72   S    
C51   C59   A    
C122  C142  A    
C2    C69   S    
C47   C55   A    
C12   C113  A    
C106  C110  A    
C61   C69   A    
C48   C56   A    
C22   C33   A    
C46   O90   S    
C130  C136  A    
C150  H24   S    
O97   H89   S    
C14   C146  A    
C32   O84   S    
Cu9   O45   S    
C16   C148  A    
C27   O79   S    
C128  C133  A    
C136  O52   S    
C132  C135  A    
Cu6   O14   S    
C31   C39   A    
C64   C72   A    
O66   C154  S    
C41   O85   S    
C95   O31   A    
O90   C162  S    
C123  C143  A    
O56   H16   S    
C124  C144  A    
C118  C126  A    
O59   H19   S    
C13   O65   S    
C122  C130  A    
C10   C115  A    
C14   O66   S    
C78   O98   S    
C46   C86   A    
C47   O91   S    
