data_mof_unit_645.cif
_audit_creation_date              2012-12-10T19:00:17-0500
_audit_creation_method            fapswitch 2.2
_symmetry_space_group_name_H-M    P1
_symmetry_Int_Tables_number       1
_space_group_crystal_system       triclinic
_cell_length_a                    9.588706
_cell_length_b                    10.885351
_cell_length_c                    13.401744
_cell_angle_alpha                 91.721712
_cell_angle_beta                  74.728577
_cell_angle_gamma                 90.647883
_cell_volume                      1348.81456003

loop_
_atom_site_label
_atom_site_type_symbol
_atom_type_description
_atom_site_fract_x
_atom_site_fract_y
_atom_site_fract_z
_atom_type_partial_charge
C1    C     C_R   0.502658 0.737636 0.497323 0.780338
C2    C     C_R   0.384836 0.559253 0.809218 -0.117280
C3    C     C_R   0.377305 0.934505 0.509515 0.151353
C4    C     C_R   0.424852 0.517983 0.698435 0.794526
C5    C     C_R   0.506842 0.871751 0.499485 -0.198903
C6    C     C_R   0.633806 0.941028 0.500652 -0.008511
C7    C     C_R   0.625186 0.069069 0.509441 -0.189385
C8    C     C_R   0.497812 0.130048 0.508232 -0.151178
C9    C     C_R   0.373175 0.061347 0.512605 0.138070
C10   C     C_3   0.274755 0.064356 0.443207 -0.472932
C11   C     C_3   0.277929 0.925437 0.440296 -0.397446
C12   C     C_R   0.444956 0.577885 0.975287 0.026838
C13   C     C_R   0.935618 0.397065 0.469053 0.252431
C14   C     C_R   0.911561 0.595232 0.541108 -0.067399
C15   C     C_R   0.056553 0.591968 0.547936 0.049501
C16   C     C_R   0.499038 0.262720 0.501341 0.817801
C17   C     C_R   0.084608 0.399862 0.463422 0.223416
C18   C     C_3   0.118894 0.343204 0.355963 -0.257457
C19   C     C_3   0.957386 0.330678 0.367717 -0.494592
C20   C     C_R   0.576107 0.500346 0.300455 0.785515
C21   C     C_R   0.794775 0.484568 0.022082 -0.180074
C22   C     C_R   0.617388 0.506117 0.187378 -0.059371
C23   C     C_R   0.489438 0.575090 0.866249 -0.005409
C24   C     C_R   0.239790 0.585514 0.859620 -0.261778
C25   C     C_R   0.199564 0.619780 0.964766 0.037347
C26   C     C_R   0.299627 0.607885 0.023532 -0.157077
C27   C     C_1   0.100917 0.684049 0.612503 0.337442
C28   C     C_2   0.186997 0.429561 0.271570 0.444785
C29   C     C_2   0.053921 0.670414 0.011619 0.355571
C30   C     C_2   0.672839 0.702428 0.748030 0.375341
C31   C     C_2   0.780398 0.887223 0.480954 0.367867
C32   C     C_R   0.549922 0.552751 0.029695 0.089133
C33   C     C_R   0.694540 0.528698 0.972659 0.118881
C34   C     C_R   0.739051 0.560441 0.868985 -0.205550
C35   C     C_R   0.636248 0.599597 0.820082 0.009148
C36   C     C_R   0.516258 0.547222 0.137631 -0.267436
C37   C     C_R   0.756165 0.472564 0.128970 -0.117231
Cu1   Cu    Cu3+1 0.359330 0.500020 0.500010 0.971645
Cu2   Cu    Cu3+1 0.640670 0.499980 0.499990 0.955783
H1    H     H_    0.835635 0.439567 0.165860 0.153843
H2    H     H_    0.853340 0.566574 0.830041 0.148141
H3    H     H_    0.918582 0.234054 0.377232 0.175346
H4    H     H_    0.903606 0.461242 0.978115 0.126178
H5    H     H_    0.413053 0.576869 0.184767 0.178752
H6    H     H_    0.158758 0.584100 0.816503 0.154251
H7    H     H_    0.263892 0.629257 0.105021 0.204530
H8    H     H_    0.266089 0.394619 0.203391 0.045119
H9    H     H_    0.982443 0.688426 0.963032 0.085872
H10   H     H_    0.598547 0.730040 0.704331 0.076313
H11   H     H_    0.813282 0.811183 0.425967 0.117323
H12   H     H_    0.722430 0.121374 0.508259 0.193179
H13   H     H_    0.166922 0.102743 0.483307 0.224031
H14   H     H_    0.328306 0.103860 0.367052 0.184760
H15   H     H_    0.171764 0.884079 0.478710 0.241460
H16   H     H_    0.330898 0.885042 0.362469 0.196724
H17   H     H_    0.846912 0.674979 0.568447 0.176882
H18   H     H_    0.174167 0.253633 0.348522 0.118555
H19   H     H_    0.915867 0.381915 0.311276 0.227696
N1    N     N_R   0.852320 0.499070 0.499340 -0.193782
N2    N     N_R   0.148230 0.499110 0.499340 -0.203556
N3    N     N_1   0.134638 0.758027 0.665597 -0.271351
O1    O     O_R   0.381190 0.680360 0.500000 -0.569124
O2    O     O_2   0.012430 0.694107 0.104348 -0.517493
O3    O     O_2   0.781562 0.764174 0.742903 -0.540871
O4    O     O_2   0.868561 0.930802 0.523437 -0.551659
O5    O     O_R   0.618780 0.680320 0.499990 -0.621684
O6    O     O_R   0.323230 0.500000 0.650990 -0.580883
O7    O     O_R   0.560820 0.499960 0.650980 -0.591309
O8    O     O_R   0.381220 0.319680 0.500010 -0.582978
O9    O     O_R   0.618810 0.319640 0.500000 -0.586944
O10   O     O_R   0.439180 0.500040 0.349020 -0.578426
O11   O     O_R   0.676770 0.500000 0.349010 -0.572764
O12   O     O_2   0.149200 0.536922 0.276781 -0.539856

loop_
_geom_bond_atom_site_label_1
_geom_bond_atom_site_label_2
_ccdc_geom_bond_type
C14   H17   S    
C29   O2    D    
C28   H8    S    
C30   O3    D    
C15   N2    A    
C10   H13   S    
C1    O1    A    
C7    C8    A    
C14   N1    A    
C12   C23   A    
C30   C35   S    
C1    C5    S    
C24   H6    S    
C32   C36   A    
C18   C19   S    
C37   H1    S    
Cu1   Cu2   S    
C21   C33   A    
C34   C35   A    
Cu2   O7    S    
C10   H14   S    
C27   N3    T    
C21   H4    S    
C8    C9    A    
Cu2   O11   S    
C20   O10   A    
C9    C10   S    
C19   H3    S    
C6    C31   S    
Cu1   O8    S    
C8    C16   S    
C12   C32   A    
C34   H2    S    
C28   O12   D    
C33   C34   A    
C19   H19   S    
C25   C29   S    
C13   C19   S    
C29   H9    S    
C18   C28   S    
C24   C25   A    
C4    O7    A    
C25   C26   A    
C22   C37   A    
C12   C26   A    
C1    O5    A    
C2    C4    S    
C3    C9    A    
C18   H18   S    
C15   C27   S    
Cu2   N1    S    
C17   C18   S    
C16   O9    A    
C11   H15   S    
Cu1   N2    S    
C30   H10   S    
C20   C22   S    
C23   C35   A    
C2    C24   A    
Cu2   O5    S    
C36   H5    S    
C31   H11   S    
C11   H16   S    
C31   O4    D    
Cu1   O10   S    
C16   O8    A    
C3    C5    A    
C4    O6    A    
C6    C7    A    
C13   N1    A    
C22   C36   A    
C13   C17   A    
C32   C33   A    
C7    H12   S    
C5    C6    A    
Cu2   O9    S    
C3    C11   S    
C10   C11   S    
C26   H7    S    
C17   N2    A    
C21   C37   A    
Cu1   O6    S    
C2    C23   A    
C14   C15   A    
C20   O11   A    
Cu1   O1    S    
