data_mof_unit_514.cif
_audit_creation_date              2013-03-05T16:08:54-0500
_audit_creation_method            fapswitch 2.2
_symmetry_space_group_name_H-M    P1
_symmetry_Int_Tables_number       1
_space_group_crystal_system       triclinic
_cell_length_a                    17.18629
_cell_length_b                    6.882119
_cell_length_c                    14.421516
_cell_angle_alpha                 90.001804
_cell_angle_beta                  110.024265
_cell_angle_gamma                 89.998936
_cell_volume                      1602.63291622

loop_
_atom_site_label
_atom_site_type_symbol
_atom_site_description
_atom_site_fract_x
_atom_site_fract_y
_atom_site_fract_z
_atom_type_partial_charge
O1    O     O_R   0.314130 0.635770 0.168990 -0.601795
O2    O     O_R   0.685870 0.364230 0.831010 -0.601797
O3    O     O_R   0.185870 0.135770 0.331010 -0.601806
O4    O     O_R   0.814130 0.864230 0.668990 -0.601803
O5    O     O_R   0.146800 0.302460 0.139760 -0.586161
O6    O     O_R   0.853200 0.697540 0.860240 -0.586160
O7    O     O_R   0.353200 0.802460 0.360240 -0.586157
O8    O     O_R   0.646800 0.197540 0.639760 -0.586159
C1    C     C_R   0.113996 0.475865 0.112780 0.979128
C2    C     C_R   0.886004 0.524135 0.887220 0.979131
C3    C     C_R   0.386004 0.975866 0.387220 0.979128
C4    C     C_R   0.613996 0.024134 0.612780 0.979125
O9    O     O_R   0.311100 0.305780 0.157130 -0.591908
O10   O     O_R   0.688900 0.694220 0.842870 -0.591907
O11   O     O_R   0.188900 0.805780 0.342870 -0.591906
O12   O     O_R   0.811100 0.194220 0.657130 -0.591909
O13   O     O_R   0.351340 0.139640 0.348510 -0.591575
O14   O     O_R   0.648660 0.860360 0.651490 -0.591573
O15   O     O_R   0.148660 0.639640 0.151490 -0.591577
O16   O     O_R   0.851340 0.360360 0.848510 -0.591578
C5    C     C_R   0.332904 0.476349 0.135734 0.980457
C6    C     C_R   0.667096 0.523650 0.864266 0.980457
C7    C     C_R   0.167097 0.976357 0.364266 0.980490
C8    C     C_R   0.832903 0.023643 0.635734 0.980496
C9    C     C_1   0.533571 0.008872 0.533047 -0.200401
C10   C     C_1   0.466429 0.991128 0.466953 -0.200401
C11   C     C_1   0.966429 0.508873 0.966953 -0.200414
C12   C     C_1   0.033571 0.491127 0.033047 -0.200414
O17   O     O_3   0.263010 0.470920 0.312770 -0.270168
O18   O     O_3   0.736990 0.529080 0.687230 -0.270167
O19   O     O_3   0.236990 0.970920 0.187230 -0.270169
O20   O     O_3   0.763010 0.029080 0.812770 -0.270170
V1    V     V_3+5 0.247590 0.194450 0.238360 1.209377
V2    V     V_3+5 0.752410 0.805550 0.761640 1.209380
V3    V     V_3+5 0.252410 0.694450 0.261640 1.209381
V4    V     V_3+5 0.747590 0.305550 0.738360 1.209377
C13   C     C_R   0.116634 0.998252 0.428725 -0.201009
C14   C     C_R   0.883366 0.001749 0.571274 -0.201004
C15   C     C_R   0.383361 0.498219 0.071268 -0.200877
C16   C     C_R   0.616638 0.501779 0.928731 -0.200901
C17   C     C_R   0.923940 0.796191 0.457110 0.381077
C18   C     C_R   0.076052 0.203838 0.542878 0.380995
C19   C     C_R   0.576109 0.296281 0.042952 0.380798
C20   C     C_R   0.423881 0.703697 0.957033 0.380840
C21   C     C_R   0.871326 0.837690 0.510217 -0.218209
C22   C     C_R   0.128670 0.162329 0.489776 -0.218196
C23   C     C_R   0.628716 0.337779 0.989835 -0.218166
C24   C     C_R   0.371276 0.662202 0.010154 -0.218164
C25   C     C_R   0.949303 0.126984 0.579059 -0.097894
C26   C     C_R   0.050695 0.873017 0.420939 -0.097763
C27   C     C_R   0.550668 0.626954 0.920904 -0.098049
C28   C     C_R   0.449333 0.373050 0.079098 -0.098185
C29   C     C_R   0.006462 0.083550 0.531044 0.012008
C30   C     C_R   0.993534 0.916460 0.468952 0.012038
C31   C     C_R   0.493513 0.583506 0.968924 0.012070
C32   C     C_R   0.506484 0.416490 0.031072 0.012027
H1    H     H_    0.043246 0.745777 0.374736 0.169589
H2    H     H_    0.956754 0.254215 0.625265 0.169584
H3    H     H_    0.456818 0.245875 0.125348 0.169545
H4    H     H_    0.543189 0.754142 0.874663 0.169552
H5    H     H_    0.180357 0.258580 0.497050 0.176901
H6    H     H_    0.819635 0.741456 0.502938 0.176909
H7    H     H_    0.319555 0.758372 0.002837 0.176885
H8    H     H_    0.680430 0.241589 0.997144 0.176875
N1    N     N_R   0.905118 0.632348 0.391342 0.231226
O21   O     O_R   0.898361 0.655369 0.299347 -0.387531
O22   O     O_R   0.878560 0.471615 0.417533 -0.393054
N2    N     N_R   0.094858 0.367752 0.608617 0.231218
O23   O     O_R   0.101643 0.344781 0.700630 -0.387491
O24   O     O_R   0.121368 0.528531 0.582379 -0.393095
N3    N     N_R   0.594967 0.132483 0.108764 0.231200
O25   O     O_R   0.601737 0.155599 0.200766 -0.387464
O26   O     O_R   0.621545 0.971704 0.082607 -0.392958
N4    N     N_R   0.405004 0.867443 0.891194 0.231212
O27   O     O_R   0.398274 0.844292 0.799211 -0.387501
O28   O     O_R   0.378355 0.028167 0.917296 -0.392888

loop_
_geom_bond_atom_site_label_1
_geom_bond_atom_site_label_2
_geom_bond_distance
_ccdc_geom_bond_type
C2    C11   1.468081 S    
C16   C23   1.402960 A    
C31   C32   1.427366 A    
O1    C5    1.282104 A    
O3    C7    1.282094 A    
C14   C25   1.397328 A    
C29   C30   1.427314 A    
O7    C3    1.320306 A    
O5    C1    1.320305 A    
C26   C30   1.414120 A    
N4    O28   1.301155 A    
O20   V4    2.155784 S    
C18   C29   1.416006 A    
O8    V4    1.971853 S    
O4    C8    1.282094 A    
O3    V1    2.011028 S    
O17   V1    2.155732 S    
C21   H6    1.083974 S    
C18   C22   1.400029 A    
C14   C21   1.402901 A    
C1    O15   1.307360 A    
C2    O16   1.307360 A    
N2    O23   1.301333 A    
N1    O22   1.301054 A    
O5    V1    1.971863 S    
O2    C6    1.282104 A    
C8    C14   1.480246 S    
O19   V1    1.688610 S    
O11   C7    1.301110 A    
C15   C28   1.397367 A    
O12   C8    1.301110 A    
C18   N2    1.437330 S    
O13   V1    1.976188 S    
O11   V3    2.006568 S    
O4    V2    2.011028 S    
N4    O27   1.301285 A    
O18   V2    2.155733 S    
C22   H5    1.084008 S    
C23   H8    1.084018 S    
N3    O26   1.301244 A    
C24   H7    1.084006 S    
C17   N1    1.437190 S    
C3    C10   1.468082 S    
C9    C10   1.225466 T    
C7    C13   1.480246 S    
C25   H2    1.081050 S    
O6    V2    1.971862 S    
O20   V2    1.688608 S    
O9    V1    2.006612 S    
C28   H3    1.081086 S    
C5    C15   1.480245 S    
O8    C4    1.320306 A    
C6    C16   1.480248 S    
O9    C5    1.301096 A    
C20   N4    1.437310 S    
O14   V2    1.976187 S    
O19   V3    2.155784 S    
O1    V3    2.011002 S    
O2    V4    2.011003 S    
C3    O13   1.307365 A    
C19   N3    1.437367 S    
C26   H1    1.081076 S    
O7    V3    1.971853 S    
O10   V2    2.006611 S    
O6    C2    1.320305 A    
C16   C27   1.397373 A    
O17   V3    1.688645 S    
O18   V4    1.688644 S    
C4    C9    1.468082 S    
O10   C6    1.301098 A    
N3    O25   1.301358 A    
O15   V3    1.976179 S    
O12   V4    2.006566 S    
C13   C26   1.397338 A    
C20   C31   1.416034 A    
C25   C29   1.414112 A    
C27   C31   1.414127 A    
C17   C30   1.415973 A    
O16   V4    1.976180 S    
C28   C32   1.414120 A    
C19   C32   1.416035 A    
N2    O24   1.301239 A    
N1    O21   1.301249 A    
C4    O14   1.307366 A    
C11   C12   1.225468 T    
C17   C21   1.400030 A    
C27   H4    1.081090 S    
C13   C22   1.402950 A    
C19   C23   1.400043 A    
C20   C24   1.400051 A    
C1    C12   1.468081 S    
C15   C24   1.402942 A    
