data_mof_unit_1054.cif
_audit_creation_date              2012-10-26T18:33:39-0400
_audit_creation_method            fapswitch 2.2
_symmetry_space_group_name_H-M    P1
_symmetry_Int_Tables_number       1
_space_group_crystal_system       triclinic
_cell_length_a                    15.049817
_cell_length_b                    13.692881
_cell_length_c                    10.7728
_cell_angle_alpha                 90.19375
_cell_angle_beta                  90.198815
_cell_angle_gamma                 90.013607
_cell_volume                      2219.98243845

loop_
_atom_site_label
_atom_site_type_symbol
_atom_type_description
_atom_site_fract_x
_atom_site_fract_y
_atom_site_fract_z
_atom_type_partial_charge
C1    C     C_R   0.328718 0.500042 0.502055 0.579691
C2    C     C_R   0.050846 0.356048 0.644508 -0.137716
C3    C     C_R   0.095158 0.426727 0.575464 -0.007057
C4    C     C_R   0.499240 0.499937 0.259718 0.631581
C5    C     C_R   0.046916 0.500578 0.514722 0.061180
C6    C     C_R   0.092313 0.574529 0.449016 0.019736
C7    C     C_R   0.044595 0.647225 0.387002 -0.116343
C8    C     C_R   0.952240 0.646618 0.389120 -0.106377
C9    C     C_R   0.187667 0.426042 0.568967 -0.124306
C10   C     C_R   0.232300 0.500128 0.505599 -0.008948
C11   C     C_R   0.184886 0.574534 0.446438 -0.129207
C12   C     C_3   0.592667 0.475356 0.924773 -0.236543
C13   C     C_R   0.443671 0.793465 0.577057 0.047026
C14   C     C_R   0.443673 0.206918 0.577070 0.049177
C15   C     C_R   0.556129 0.793156 0.422876 0.054467
C16   C     C_R   0.556069 0.206438 0.422823 0.060546
C17   C     C_R   0.557327 0.896199 0.420850 -0.013303
C18   C     C_R   0.557302 0.103399 0.420836 -0.009950
C19   C     C_R   0.671305 0.499997 0.504750 0.573929
C20   C     C_R   0.499774 0.948174 0.499842 0.058889
C21   C     C_R   0.499774 0.051818 0.499851 0.058409
C22   C     C_R   0.442291 0.896557 0.578908 -0.011551
C23   C     C_R   0.814519 0.573323 0.453909 -0.138754
C24   C     C_R   0.442294 0.103833 0.578923 -0.008919
C25   C     C_R   0.614502 0.948277 0.342125 -0.130004
C26   C     C_R   0.614479 0.050946 0.342101 -0.123466
C27   C     C_R   0.385105 0.051737 0.657617 -0.128975
C28   C     C_R   0.385106 0.949047 0.657613 -0.132173
C29   C     C_R   0.498397 0.500227 0.740011 0.525511
C30   C     C_3   0.464563 0.601452 0.069235 -0.071954
C31   C     C_3   0.437843 0.414844 0.068369 -0.072700
C32   C     C_3   0.472779 0.603157 0.926893 -0.254317
C33   C     C_3   0.430522 0.424889 0.925859 -0.224851
C34   C     C_R   0.767961 0.500357 0.515889 0.004675
C35   C     C_3   0.597975 0.480579 0.070567 0.030554
C36   C     C_3   0.498916 0.499789 0.121335 -0.052436
C37   C     C_3   0.498433 0.500710 0.877303 -0.043727
C38   C     C_2   0.371511 0.630533 0.109664 0.601357
C39   C     C_2   0.346605 0.399072 0.125386 0.605689
C40   C     C_2   0.665777 0.560214 0.105422 0.563443
C41   C     C_2   0.636894 0.385097 0.122653 0.576079
C42   C     C_2   0.919974 0.287110 0.744572 0.649261
C43   C     C_R   0.813494 0.428449 0.585887 0.234187
C44   C     C_R   0.907662 0.428036 0.588314 0.032799
C45   C     C_R   0.953562 0.500605 0.519231 0.003449
C46   C     C_R   0.906582 0.573936 0.454401 0.009365
C47   C     C_R   0.958341 0.357620 0.655838 0.078111
Cu1   Cu    Cu3+1 0.499990 0.597420 0.500010 1.008073
Cu2   Cu    Cu3+1 0.499990 0.402580 0.500010 1.007687
H1    H     H_    0.508124 0.660923 0.104124 0.159625
H2    H     H_    0.600098 0.752168 0.362973 0.163038
H3    H     H_    0.599920 0.247067 0.362777 0.167189
H4    H     H_    0.659247 0.909624 0.280606 0.123185
H5    H     H_    0.659204 0.089301 0.280560 0.121786
H6    H     H_    0.340390 0.090386 0.719179 0.122985
H7    H     H_    0.340397 0.910706 0.719185 0.119643
H8    H     H_    0.410360 0.628421 0.881461 0.167231
H9    H     H_    0.362520 0.448117 0.897421 0.172072
H10   H     H_    0.524891 0.657000 0.900472 0.127470
H11   H     H_    0.442270 0.351897 0.883101 0.146326
H12   H     H_    0.471788 0.344493 0.086808 0.145890
H13   H     H_    0.640579 0.526537 0.880676 0.143729
H14   H     H_    0.611307 0.402496 0.887621 0.190101
H15   H     H_    0.778664 0.628412 0.401635 0.153312
H16   H     H_    0.239163 0.623276 0.079676 0.344651
H17   H     H_    0.254705 0.435533 0.252596 0.339340
H18   H     H_    0.790511 0.611774 0.083164 0.340127
H19   H     H_    0.657170 0.239960 0.102996 0.340968
H20   H     H_    0.714439 0.387976 0.687414 0.334166
H21   H     H_    0.910536 0.146828 0.799261 0.346698
H22   H     H_    0.089007 0.301387 0.694292 0.142972
H23   H     H_    0.225187 0.369331 0.615820 0.119819
H24   H     H_    0.220093 0.631227 0.396530 0.163147
H25   H     H_    0.078694 0.704125 0.336192 0.123011
H26   H     H_    0.916387 0.703030 0.339460 0.118325
H27   H     H_    0.399943 0.752652 0.637328 0.119903
H28   H     H_    0.399913 0.248028 0.637308 0.117138
N1    N     N_R   0.499930 0.743810 0.499950 -0.238266
N2    N     N_R   0.499930 0.256190 0.499950 -0.243623
O1    O     O_R   0.370250 0.582280 0.500040 -0.490788
O2    O     O_R   0.296903 0.598146 0.043393 -0.697326
O3    O     O_2   0.299192 0.334021 0.083879 -0.511159
O4    O     O_R   0.316943 0.454345 0.226093 -0.665134
O5    O     O_2   0.649937 0.621748 0.184648 -0.564787
O6    O     O_R   0.750203 0.557828 0.051284 -0.667388
O7    O     O_2   0.674793 0.385451 0.223440 -0.491571
O8    O     O_R   0.629310 0.296905 0.057247 -0.717718
O9    O     O_3   0.766984 0.357166 0.648322 -0.641988
O10   O     O_2   0.875913 0.316292 0.832379 -0.446983
O11   O     O_R   0.938969 0.187676 0.731862 -0.686888
O12   O     O_R   0.370250 0.417720 0.500040 -0.499567
O13   O     O_R   0.499970 0.582270 0.317700 -0.444609
O14   O     O_R   0.499970 0.417730 0.317700 -0.488519
O15   O     O_R   0.629730 0.582260 0.499980 -0.512769
O16   O     O_R   0.629730 0.417740 0.499980 -0.462933
O17   O     O_R   0.500000 0.582270 0.682320 -0.522062
O18   O     O_R   0.500000 0.417730 0.682320 -0.524365
O19   O     O_2   0.361899 0.685363 0.198494 -0.496705

loop_
_geom_bond_atom_site_label_1
_geom_bond_atom_site_label_2
_ccdc_geom_bond_type
C4    C36   S    
C33   H9    S    
C18   C21   A    
C40   O5    D    
C35   C36   S    
C18   C26   A    
C24   C27   A    
C38   O19   D    
C28   H7    S    
C7    C8    A    
C45   C46   A    
C41   O7    D    
Cu1   O15   S    
C43   O9    S    
C25   H4    S    
C5    C6    A    
C27   H6    S    
C15   N1    A    
Cu1   N1    S    
C17   C20   A    
C30   C38   S    
C14   H28   S    
C14   C24   A    
C12   C37   S    
C31   H12   S    
H17   O4    S    
C31   C33   S    
C15   H2    S    
C9    C10   A    
C44   C47   A    
C30   H1    S    
C1    O12   A    
C23   C46   A    
C22   C28   A    
H21   O11   S    
C32   H8    S    
Cu2   O12   S    
C26   H5    S    
C7    H25   S    
C41   O8    S    
H18   O6    S    
C34   C43   A    
C11   H24   S    
C6    C11   A    
C12   H14   S    
C9    H23   S    
C25   C26   A    
C32   C37   S    
C5    C45   A    
C8    H26   S    
C33   C37   S    
Cu2   N2    S    
C42   O11   S    
C40   O6    S    
C43   C44   A    
C3    C9    A    
C12   H13   S    
H16   O2    S    
C13   H27   S    
C23   C34   A    
C14   N2    A    
Cu2   O16   S    
C12   C35   S    
H20   O9    S    
C19   O15   A    
Cu1   Cu2   S    
C20   C22   A    
C33   H11   S    
C38   O2    S    
C2    H22   S    
C19   O16   A    
C44   C45   A    
C15   C17   A    
C13   N1    A    
C23   H15   S    
Cu1   O17   S    
C1    C10   S    
C16   H3    S    
C39   O3    D    
C3    C5    A    
C19   C34   S    
C29   O17   A    
C6    C7    A    
C30   C36   S    
C2    C47   A    
C29   O18   A    
C42   O10   D    
C17   C25   A    
C16   N2    A    
C35   C40   S    
C39   O4    S    
C30   C32   S    
Cu1   O1    S    
C31   C39   S    
C13   C22   A    
C2    C3    A    
C42   C47   S    
C35   C41   S    
C8    C46   A    
C10   C11   A    
Cu2   O18   S    
C4    O14   A    
C20   C21   A    
C16   C18   A    
Cu1   O13   S    
C21   C24   A    
C29   C37   S    
C27   C28   A    
H19   O8    S    
C31   C36   S    
C1    O1    A    
C32   H10   S    
Cu2   O14   S    
C4    O13   A    
