data_mof_unit_1520.cif
_audit_creation_date              2012-12-11T15:43:51-0500
_audit_creation_method            fapswitch 2.2
_symmetry_space_group_name_H-M    P1
_symmetry_Int_Tables_number       1
_space_group_crystal_system       triclinic
_cell_length_a                    14.487151
_cell_length_b                    16.292754
_cell_length_c                    6.912844
_cell_angle_alpha                 89.614448
_cell_angle_beta                  98.529695
_cell_angle_gamma                 90.069682
_cell_volume                      1613.59284305

loop_
_atom_site_label
_atom_site_type_symbol
_atom_type_description
_atom_site_fract_x
_atom_site_fract_y
_atom_site_fract_z
_atom_type_partial_charge
O1    O     O_R   0.831700 0.662810 0.581550 -0.542627
O2    O     O_R   0.168300 0.337190 0.418450 -0.534744
O3    O     O_R   0.168300 0.162810 0.418450 -0.534092
O4    O     O_R   0.831700 0.837190 0.581550 -0.542610
O5    O     O_R   0.842890 0.834390 0.255500 -0.541533
O6    O     O_R   0.157110 0.165610 0.744500 -0.551350
O7    O     O_R   0.157110 0.334390 0.744500 -0.550151
O8    O     O_R   0.842890 0.665610 0.255500 -0.537337
O9    O     O_R   0.661690 0.835580 0.024130 -0.538684
O10   O     O_R   0.338310 0.164420 0.975870 -0.544073
O11   O     O_R   0.338310 0.335580 0.975870 -0.536504
O12   O     O_R   0.661690 0.664420 0.024130 -0.530162
C1    C     C_R   0.867468 0.863130 0.431014 0.687332
C2    C     C_R   0.132477 0.136902 0.568949 0.671667
C3    C     C_R   0.132349 0.362952 0.568282 0.673482
C4    C     C_R   0.867658 0.637065 0.431715 0.699487
C5    C     C_R   0.062439 0.068276 0.536683 -0.169674
C6    C     C_R   0.937385 0.931834 0.463123 -0.149525
C7    C     C_R   0.937739 0.568503 0.464340 -0.151507
C8    C     C_R   0.062172 0.431453 0.535517 -0.169452
H1    H     H_    0.121775 0.023424 0.289987 0.151855
H2    H     H_    0.877941 0.976745 0.709608 0.162765
H3    H     H_    0.878972 0.522457 0.711890 0.162255
H4    H     H_    0.120864 0.477457 0.287811 0.150474
C9    C     C_R   0.007341 0.946063 0.342965 0.011448
C10   C     C_R   0.992439 0.054076 0.656760 0.001487
C11   C     C_R   0.992740 0.445156 0.656951 0.000977
C12   C     C_R   0.007139 0.554782 0.342846 0.010037
O13   O     O_3   0.687240 0.750000 0.366320 -0.372116
O14   O     O_3   0.312760 0.250000 0.633680 -0.363710
V1    V     V_3+5 0.757720 0.750000 0.115230 1.517858
V2    V     V_3+5 0.242280 0.250000 0.884770 1.430466
O15   O     O_R   0.650500 0.664000 0.690740 -0.549224
O16   O     O_R   0.349500 0.336000 0.309260 -0.541275
O17   O     O_R   0.349500 0.164000 0.309260 -0.538402
O18   O     O_R   0.650500 0.836000 0.690740 -0.549340
C13   C     C_R   0.629649 0.634645 0.856146 0.777818
C14   C     C_R   0.373417 0.362001 0.144846 0.722021
C15   C     C_R   0.373681 0.138093 0.147453 0.720505
C16   C     C_R   0.629938 0.865596 0.854513 0.766461
C17   C     C_R   0.067611 0.014093 0.380551 -0.060297
C18   C     C_R   0.932138 0.986064 0.619121 -0.049613
C19   C     C_R   0.932770 0.513516 0.620537 -0.050351
C20   C     C_R   0.067084 0.486406 0.379212 -0.061095
V3    V     V_3+5 0.735670 0.750000 0.607790 1.471942
V4    V     V_3+5 0.264330 0.250000 0.392210 1.448973
O19   O     O_3   0.806150 0.750000 0.906560 -0.377629
O20   O     O_3   0.193850 0.250000 0.093440 -0.372501
C21   C     C_2   0.558690 0.932316 0.853692 -0.008047
C22   C     C_2   0.459752 0.088269 0.159903 -0.083444
C23   C     C_2   0.461271 0.408045 0.143316 -0.087328
C24   C     C_2   0.556704 0.569775 0.861359 -0.007319
C25   C     C_2   0.551907 0.975231 0.022576 0.038447
C26   C     C_2   0.461922 0.016278 0.058733 -0.087973
C27   C     C_2   0.461648 0.486954 0.074266 -0.111101
C28   C     C_2   0.550607 0.527217 0.032792 0.040632
C29   C     C_2   0.023273 0.888821 0.184819 0.422823
H5    H     H_    0.998908 0.826040 0.184381 0.032516
O21   O     O_2   0.065905 0.910885 0.053790 -0.522163
C30   C     C_2   0.976542 0.111310 0.814941 0.415431
H6    H     H_    0.001017 0.174058 0.815501 0.038095
O22   O     O_2   0.933839 0.089273 0.945878 -0.509708
C31   C     C_2   0.977047 0.387027 0.815358 0.412071
H7    H     H_    0.000782 0.324118 0.814838 0.038982
O23   O     O_2   0.935377 0.408509 0.947672 -0.512313
C32   C     C_2   0.022877 0.612933 0.184504 0.421792
H8    H     H_    0.999144 0.675843 0.185026 0.031893
O24   O     O_2   0.064607 0.591476 0.052265 -0.522885
C33   C     C_2   0.371861 0.972297 0.996147 0.393114
H9    H     H_    0.305580 0.004366 0.980050 0.045827
O25   O     O_2   0.370675 0.898261 0.969685 -0.502086
C34   C     C_2   0.634380 0.978089 0.179208 0.389515
H10   H     H_    0.627256 0.963734 0.328893 0.032786
O26   O     O_2   0.711298 0.996552 0.140085 -0.523899
C35   C     C_2   0.632223 0.520100 0.191872 0.379934
H11   H     H_    0.621069 0.515093 0.342939 0.039119
O27   O     O_2   0.711670 0.513995 0.154076 -0.527235
C36   C     C_2   0.374486 0.537003 0.051951 0.400330
H12   H     H_    0.307711 0.509146 0.065899 0.036732
O28   O     O_2   0.376826 0.610855 0.021896 -0.500871
C37   C     C_3   0.545157 0.127052 0.276841 -0.745039
H13   H     H_    0.527853 0.185612 0.343892 0.202427
H14   H     H_    0.573011 0.087446 0.402683 0.207043
H15   H     H_    0.599001 0.140089 0.182049 0.237763
C38   C     C_3   0.490584 0.944962 0.667939 -0.710771
H16   H     H_    0.529180 0.952249 0.542912 0.183749
H17   H     H_    0.444295 0.890653 0.640599 0.243662
H18   H     H_    0.447896 0.001260 0.671731 0.207613
C39   C     C_3   0.483827 0.560993 0.682201 -0.715456
H19   H     H_    0.518404 0.551197 0.551831 0.185699
H20   H     H_    0.436887 0.507810 0.692823 0.211385
H21   H     H_    0.441488 0.617924 0.659519 0.240318
C40   C     C_3   0.547339 0.354365 0.158911 -0.718832
H22   H     H_    0.527490 0.289316 0.134293 0.193671
H23   H     H_    0.590585 0.369339 0.043639 0.233222
H24   H     H_    0.589203 0.360312 0.306163 0.210153

loop_
_geom_bond_atom_site_label_1
_geom_bond_atom_site_label_2
_ccdc_geom_bond_type
C32   O24   D    
C27   C28   S    
C31   O23   D    
C40   H22   S    
O15   V3    S    
O6    V2    S    
C37   H13   S    
C38   H16   S    
O2    V4    S    
C22   C26   D    
C1    C6    S    
C5    C10   A    
C6    C18   A    
C36   O28   D    
C29   O21   D    
C16   C21   S    
O12   C13   A    
H3    C19   S    
C30   O22   D    
O4    C1    A    
C33   O25   D    
C12   C32   S    
C8    C20   A    
O16   V4    S    
C39   H20   S    
O5    C1    A    
O7    C3    A    
C32   H8    S    
C40   H23   S    
C28   C35   S    
V1    O19   S    
V2    O20   S    
C2    C5    S    
C24   C39   S    
C6    C9    A    
C9    C29   S    
C37   H14   S    
C7    C19   A    
O4    V3    S    
V3    O19   S    
C3    C8    S    
V4    O20   S    
C38   H17   S    
C21   C38   S    
O18   C16   A    
C34   O26   D    
C9    C17   A    
C27   C36   S    
C36   H12   S    
C14   C23   S    
C25   C26   S    
C12   C20   A    
O9    C16   A    
O15   C13   A    
O13   V3    S    
C30   H6    S    
O11   C14   A    
O17   C15   A    
C35   H11   S    
C7    C12   A    
O10   V2    S    
O6    C2    A    
O18   V3    S    
O1    C4    A    
C39   H21   S    
O2    C3    A    
C35   O27   D    
O3    C2    A    
C11   C31   S    
C23   C40   S    
H1    C17   S    
O11   V2    S    
C40   H24   S    
O12   V1    S    
H4    C20   S    
C37   H15   S    
C10   C18   A    
C38   H18   S    
C13   C24   S    
O7    V2    S    
O16   C14   A    
O8    V1    S    
O14   V4    S    
C34   H10   S    
C8    C11   A    
O3    V4    S    
O13   V1    S    
O14   V2    S    
O17   V4    S    
O1    V3    S    
C29   H5    S    
H2    C18   S    
C26   C33   S    
C4    C7    S    
C21   C25   D    
C23   C27   D    
C33   H9    S    
C5    C17   A    
O9    V1    S    
C31   H7    S    
C11   C19   A    
C15   C22   S    
O8    C4    A    
O10   C15   A    
C39   H19   S    
C25   C34   S    
C10   C30   S    
C24   C28   D    
C22   C37   S    
O5    V1    S    
