data_mof_unit_4293.cif
_audit_creation_date              2012-12-10T17:03:45-0500
_audit_creation_method            fapswitch 2.2
_symmetry_space_group_name_H-M    P1
_symmetry_Int_Tables_number       1
_space_group_crystal_system       triclinic
_cell_length_a                    10.035927
_cell_length_b                    10.724678
_cell_length_c                    13.099187
_cell_angle_alpha                 89.950046
_cell_angle_beta                  69.872259
_cell_angle_gamma                 90.382085
_cell_volume                      1323.75052753

loop_
_atom_site_label
_atom_site_type_symbol
_atom_type_description
_atom_site_fract_x
_atom_site_fract_y
_atom_site_fract_z
_atom_type_partial_charge
C1    C     C_R   0.500873 0.737331 0.499339 0.917631
C2    C     C_R   0.368307 0.504409 0.822802 -0.117258
C3    C     C_2   0.599202 0.067300 0.525617 -0.158576
C4    C     C_R   0.420862 0.503565 0.704317 0.862845
C5    C     C_2   0.488755 0.131480 0.519514 -0.352795
C6    C     C_2   0.594188 0.932847 0.530519 -0.159979
C7    C     C_2   0.504398 0.869238 0.494594 -0.320778
C8    C     C_2   0.045487 0.435298 0.566980 0.479627
C9    C     C_2   0.893096 0.442336 0.570309 -0.259377
C10   C     C_R   0.497586 0.262741 0.504411 0.921881
C11   C     C_R   0.579139 0.500527 0.295761 0.867579
C12   C     C_R   0.428465 0.511568 0.987296 -0.022292
C13   C     C_R   0.750838 0.652219 0.026696 -0.193365
C14   C     C_R   0.627980 0.520085 0.179282 -0.088224
C15   C     C_R   0.240966 0.442951 0.878692 -0.271983
C16   C     C_R   0.202490 0.421528 0.989291 -0.249841
C17   C     C_R   0.296849 0.449274 0.044672 0.484537
C18   C     C_3   0.053827 0.239198 0.632371 0.084615
C19   C     C_3   0.099771 0.164826 0.714038 -0.321094
C20   C     C_3   0.081961 0.024780 0.701676 -0.977347
C21   C     C_3   0.204740 0.311363 0.189851 0.029549
C22   C     C_3   0.049472 0.311527 0.264423 -0.300981
C23   C     C_R   0.453311 0.552206 0.879582 0.026218
C24   C     C_3   0.995094 0.180024 0.301131 -0.970711
C25   C     C_R   0.536766 0.536517 0.031737 0.097698
C26   C     C_R   0.649339 0.621158 0.978981 0.166887
C27   C     C_R   0.658311 0.674635 0.880160 -0.244590
C28   C     C_R   0.562663 0.639600 0.830355 -0.167389
C29   C     C_R   0.539476 0.477329 0.125558 -0.200340
C30   C     C_R   0.737505 0.604612 0.128701 -0.202115
H1    H     H_    0.807072 0.638610 0.170171 0.159836
H2    H     H_    0.470240 0.400437 0.161675 0.171423
H3    H     H_    0.171835 0.409715 0.836547 0.206227
H4    H     H_    0.099791 0.379770 0.031496 0.156182
H5    H     H_    0.573595 0.683494 0.753421 0.160129
H6    H     H_    0.695814 0.113197 0.526084 0.166215
H7    H     H_    0.118420 0.209026 0.548518 0.143027
H8    H     H_    0.939882 0.218177 0.647469 0.119494
H9    H     H_    0.212765 0.185991 0.701829 0.227015
H10   H     H_    0.034708 0.193015 0.797979 0.217331
H11   H     H_    0.968665 0.001218 0.717376 0.261513
H12   H     H_    0.387307 0.088719 0.528470 0.153560
H13   H     H_    0.117940 0.973636 0.761115 0.270151
H14   H     H_    0.146411 0.994075 0.618452 0.261486
H15   H     H_    0.269196 0.275155 0.237270 0.155248
H16   H     H_    0.219887 0.244509 0.121530 0.125475
H17   H     H_    0.040434 0.368040 0.337122 0.214838
H18   H     H_    0.982320 0.354320 0.222076 0.222317
H19   H     H_    0.882171 0.184248 0.354606 0.275160
H20   H     H_    0.002781 0.120939 0.229753 0.265612
H21   H     H_    0.057501 0.137305 0.347426 0.253077
H22   H     H_    0.668392 0.885811 0.561244 0.163847
H23   H     H_    0.433296 0.912353 0.458999 0.143704
H24   H     H_    0.127594 0.555490 0.443203 0.124481
H25   H     H_    0.812458 0.395621 0.636961 0.188338
H26   H     H_    0.926760 0.542985 0.434660 0.152261
H27   H     H_    0.741421 0.741446 0.839981 0.145436
H28   H     H_    0.835701 0.717945 0.987764 0.142212
N1    N     N_2   0.148270 0.498670 0.498870 -0.211351
N2    N     N_2   0.852610 0.498640 0.498840 -0.211620
O1    O     O_R   0.386950 0.680940 0.500020 -0.613290
O2    O     O_3   0.250136 0.435538 0.157037 -0.654805
O3    O     O_R   0.613110 0.680900 0.499980 -0.613387
O4    O     O_R   0.330780 0.500000 0.653640 -0.565782
O5    O     O_R   0.556930 0.499960 0.653610 -0.611761
O6    O     O_R   0.386890 0.319100 0.500020 -0.606194
O7    O     O_R   0.613050 0.319060 0.499980 -0.607541
O8    O     O_R   0.443070 0.500040 0.346390 -0.591781
O9    O     O_R   0.669220 0.500000 0.346360 -0.615216
O10   O     O_3   0.074939 0.367423 0.646525 -0.612621
Zn1   Zn    Zn3+2 0.349000 0.500030 0.500020 0.982440
Zn2   Zn    Zn3+2 0.651000 0.499970 0.499980 0.927285

loop_
_geom_bond_atom_site_label_1
_geom_bond_atom_site_label_2
_ccdc_geom_bond_type
C12   C17   A    
C18   O10   S    
O9    Zn2   S    
C2    C4    S    
C5    H12   S    
C11   O9    A    
C6    C7    D    
C9    H25   S    
C17   O2    S    
O5    Zn2   S    
C4    O4    A    
C8    O10   S    
O6    Zn1   S    
C12   C25   A    
C3    C6    S    
C6    H22   S    
O1    Zn1   S    
C24   H21   S    
C22   H17   S    
C18   H8    S    
C5    C10   S    
C10   O7    A    
C21   C22   S    
O3    Zn2   S    
C25   C29   A    
C2    C15   A    
C12   C23   A    
C26   C27   A    
C4    O5    A    
C19   H9    S    
C3    H6    S    
C14   C30   A    
O8    Zn1   S    
C1    O3    A    
C20   H14   S    
C18   H7    S    
C22   H18   S    
C20   H11   S    
C29   H2    S    
C21   H15   S    
H24   N1    S    
C10   O6    A    
C8    N1    D    
C24   H20   S    
C30   H1    S    
C11   C14   S    
C22   C24   S    
C13   C26   A    
C21   O2    S    
C23   C28   A    
C19   H10   S    
C7    H23   S    
C14   C29   A    
C15   C16   A    
C21   H16   S    
H26   N2    S    
C13   C30   A    
C24   H19   S    
C20   H13   S    
C11   O8    A    
C2    C23   A    
C18   C19   S    
C27   H27   S    
O4    Zn1   S    
C27   C28   A    
N2    Zn2   S    
C16   C17   A    
O7    Zn2   S    
C13   H28   S    
C16   H4    S    
C25   C26   A    
C1    C7    S    
C15   H3    S    
C19   C20   S    
C28   H5    S    
N1    Zn1   S    
C8    C9    S    
C3    C5    D    
C9    N2    D    
C1    O1    A    
