data_mof_unit_4442.cif
_audit_creation_date              2012-12-11T16:26:28-0500
_audit_creation_method            fapswitch 2.2
_symmetry_space_group_name_H-M    P1
_symmetry_Int_Tables_number       1
_space_group_crystal_system       triclinic
_cell_length_a                    6.936059
_cell_length_b                    17.568255
_cell_length_c                    19.444177
_cell_angle_alpha                 108.578662
_cell_angle_beta                  89.541714
_cell_angle_gamma                 90.651602
_cell_volume                      2245.7162697

loop_
_atom_site_label
_atom_site_type_symbol
_atom_type_description
_atom_site_fract_x
_atom_site_fract_y
_atom_site_fract_z
_atom_type_partial_charge
O1    O     O_R   0.494330 0.415720 0.413720 -0.535886
O2    O     O_R   0.819330 0.430070 0.560210 -0.548912
O3    O     O_R   0.994320 0.584280 0.586280 -0.536227
C1    C     C_R   0.649966 0.414654 0.581581 0.701820
O4    O     O_R   0.823730 0.406300 0.412670 -0.537754
O5    O     O_R   0.998760 0.560340 0.437690 -0.538811
C2    C     C_R   0.654888 0.383502 0.385001 0.699373
O6    O     O_R   0.489890 0.439660 0.562310 -0.539146
O7    O     O_3   0.662340 0.550560 0.508380 -0.368721
V1    V     V_3+5 0.935370 0.490620 0.498450 1.412411
O8    O     O_R   0.328750 0.569930 0.439790 -0.547354
C3    C     C_R   0.160830 0.585269 0.418319 0.705932
O9    O     O_R   0.324340 0.593700 0.587330 -0.539028
C4    C     C_R   0.155372 0.616450 0.615066 0.694386
V2    V     V_3+5 0.435940 0.509380 0.501550 1.412074
O10   O     O_3   0.159100 0.449440 0.491620 -0.368193
H1    H     H_    0.408771 0.863015 0.578313 0.113521
C5    C     C_R   0.993008 0.596292 0.746097 -0.159815
C6    C     C_R   0.911659 0.584813 0.807808 -0.118637
C7    C     C_R   0.902840 0.648147 0.872335 -0.110950
C8    C     C_R   0.973179 0.723720 0.875433 -0.140461
C9    C     C_R   0.050959 0.738032 0.813037 0.069967
C10   C     C_R   0.062235 0.672823 0.747011 0.074021
C11   C     C_R   0.120218 0.815312 0.815992 -0.186558
C12   C     C_R   0.199804 0.827458 0.752737 0.070906
C13   C     C_R   0.212219 0.762155 0.686811 0.069151
C14   C     C_R   0.144525 0.684670 0.683995 -0.186058
C15   C     C_R   0.263309 0.904582 0.753195 -0.143826
C16   C     C_R   0.339304 0.916757 0.690975 -0.127071
C17   C     C_R   0.351378 0.853093 0.626728 -0.119186
C18   C     C_R   0.287587 0.776776 0.624214 -0.136063
H2    H     H_    0.001357 0.544232 0.698060 0.111875
H3    H     H_    0.856677 0.526218 0.805687 0.157157
H4    H     H_    0.842168 0.638594 0.920434 0.122909
H5    H     H_    0.966263 0.770377 0.927432 0.108408
H6    H     H_    0.253062 0.956668 0.801166 0.109395
H7    H     H_    0.387332 0.976138 0.692500 0.115720
H8    H     H_    0.296165 0.729915 0.572376 0.107105
C19   C     C_R   0.308603 0.634959 0.322012 -0.224798
C20   C     C_R   0.153555 0.634919 0.369208 -0.080377
C21   C     C_R   0.990356 0.681648 0.368491 -0.221439
C22   C     C_R   0.982144 0.728456 0.321908 0.090138
C23   C     C_R   0.136825 0.726985 0.273895 0.054811
C24   C     C_R   0.300000 0.679609 0.273634 0.088729
C25   C     C_R   0.821982 0.776796 0.322460 -0.188841
C26   C     C_R   0.813690 0.822392 0.275182 -0.192091
C27   C     C_R   0.965090 0.820312 0.226292 0.090175
C28   C     C_R   0.128260 0.772931 0.226028 0.054673
C29   C     C_R   0.282942 0.771460 0.178014 0.089070
C30   C     C_R   0.443099 0.723116 0.177460 -0.184033
C31   C     C_R   0.451395 0.677525 0.224740 -0.188889
C32   C     C_R   0.956498 0.864971 0.177922 -0.224936
C33   C     C_R   0.111545 0.865007 0.130724 -0.080298
C34   C     C_R   0.274735 0.818273 0.131435 -0.219624
H9    H     H_    0.434664 0.599086 0.321995 0.117634
H10   H     H_    0.870654 0.682404 0.404907 0.126958
H11   H     H_    0.702261 0.778949 0.359163 0.132576
H12   H     H_    0.687952 0.858903 0.276523 0.133507
H13   H     H_    0.830454 0.900858 0.177948 0.117489
H14   H     H_    0.394434 0.817516 0.095017 0.127170
H15   H     H_    0.562816 0.720961 0.140754 0.134364
H16   H     H_    0.577133 0.641014 0.223400 0.135029
C35   C     C_R   0.469520 0.186797 0.869193 -0.218341
C36   C     C_R   0.623864 0.135936 0.870302 -0.081156
C37   C     C_R   0.782514 0.132324 0.823947 -0.215835
C38   C     C_R   0.785342 0.177659 0.776001 0.109326
C39   C     C_R   0.629517 0.228732 0.775404 0.070275
C40   C     C_R   0.472361 0.233584 0.822649 0.043224
C41   C     C_R   0.940822 0.172373 0.728297 -0.178949
C42   C     C_R   0.942593 0.217242 0.680523 -0.178346
C43   C     C_R   0.789533 0.268637 0.679881 0.131115
C44   C     C_R   0.631119 0.274748 0.727523 0.079815
C45   C     C_R   0.475730 0.326816 0.727449 0.001281
C46   C     C_R   0.320267 0.333357 0.777408 -0.013961
C47   C     C_R   0.320459 0.285499 0.823374 -0.171815
C48   C     C_R   0.794120 0.314462 0.632733 -0.230421
C49   C     C_R   0.640804 0.365185 0.630821 -0.073779
C50   C     C_R   0.481917 0.370209 0.677328 -0.221538
H17   H     H_    0.347226 0.190575 0.905193 0.127540
H18   H     H_    0.901744 0.092953 0.824027 0.121392
H19   H     H_    0.061496 0.133616 0.728019 0.123526
H20   H     H_    0.065075 0.212351 0.644457 0.119587
H21   H     H_    0.917005 0.310021 0.596875 0.120754
H22   H     H_    0.365720 0.408945 0.673777 0.111326
H23   H     H_    0.201891 0.289302 0.860982 0.170658
H24   H     H_    0.849160 0.133684 0.426174 0.113460
C51   C     C_R   0.532460 0.406331 0.250989 -0.141291
C52   C     C_R   0.472321 0.419439 0.187530 -0.123033
C53   C     C_R   0.460952 0.355809 0.123163 -0.109707
C54   C     C_R   0.509514 0.278591 0.121771 -0.134644
C55   C     C_R   0.569100 0.263203 0.185532 0.068000
C56   C     C_R   0.580910 0.328446 0.251543 0.071025
C57   C     C_R   0.620470 0.184756 0.183983 -0.184494
C58   C     C_R   0.683698 0.171625 0.248514 0.070918
C59   C     C_R   0.695515 0.236867 0.314524 0.069047
C60   C     C_R   0.644159 0.315317 0.316075 -0.184881
C61   C     C_R   0.732149 0.093737 0.249064 -0.140052
C62   C     C_R   0.792307 0.080628 0.312519 -0.124817
C63   C     C_R   0.803688 0.144258 0.376885 -0.117960
C64   C     C_R   0.755116 0.221475 0.378282 -0.135646
H25   H     H_    0.542057 0.458071 0.299291 0.102114
H26   H     H_    0.435670 0.479415 0.188211 0.120001
H27   H     H_    0.415497 0.366381 0.073869 0.122366
H28   H     H_    0.501129 0.231477 0.070031 0.102786
H29   H     H_    0.722543 0.041994 0.200764 0.101588
H30   H     H_    0.828962 0.020651 0.311834 0.117556
H31   H     H_    0.763504 0.268587 0.430022 0.100964
O11   O     O_R   0.775200 0.060470 0.937800 -0.538196
O12   O     O_R   0.441110 0.093720 0.087350 -0.538005
O13   O     O_R   0.266330 0.939630 0.062280 -0.539124
C65   C     C_R   0.609894 0.116578 0.115052 0.699590
O14   O     O_R   0.445750 0.069950 0.939820 -0.549199
O15   O     O_R   0.271000 0.915700 0.913700 -0.536232
C66   C     C_R   0.615125 0.085487 0.918586 0.704521
O16   O     O_R   0.770530 0.084400 0.086380 -0.535837
O17   O     O_3   0.602830 0.949510 0.991680 -0.369251
V3    V     V_3+5 0.329710 0.009370 0.001550 1.413951
O18   O     O_R   0.940990 0.906170 0.912570 -0.539576
C67   C     C_R   0.109926 0.883437 0.884942 0.694497
O19   O     O_R   0.936350 0.929940 0.060100 -0.547496
C68   C     C_R   0.104267 0.914658 0.081616 0.705374
V4    V     V_3+5 0.829160 0.990450 0.998310 1.414469
O20   O     O_3   0.105910 0.050480 0.008320 -0.367584
C69   C     C_2   0.158097 0.390483 0.784784 0.370124
H32   H     H_    0.160186 0.435711 0.758027 0.031651
O21   O     O_2   0.017901 0.388487 0.822627 -0.537122

loop_
_geom_bond_atom_site_label_1
_geom_bond_atom_site_label_2
_ccdc_geom_bond_type
C46   C69   S    
C51   C52   A    
C57   C58   A    
C21   C22   A    
C59   C60   A    
C1    O6    A    
O14   C66   A    
C61   C62   A    
O12   V3    S    
C35   H17   S    
C33   C34   A    
O19   C68   A    
C40   C47   A    
C2    C60   S    
C25   H11   S    
C13   C14   A    
O17   V4    S    
C15   C16   A    
C39   C44   A    
O12   C65   A    
O13   C68   A    
O18   V4    S    
C17   C18   A    
C38   C41   A    
C29   C34   A    
C62   C63   A    
C56   C60   A    
O17   V3    S    
C48   H21   S    
C5    C6    A    
C45   C46   A    
O11   C66   A    
O18   C67   A    
O15   C67   A    
O8    V2    S    
C47   H23   S    
C19   H9    S    
C63   C64   A    
C11   C67   S    
C45   C50   A    
C42   C43   A    
O1    V2    S    
C10   C14   A    
C4    C14   S    
C23   C28   A    
C61   H29   S    
C52   C53   A    
C38   C39   A    
C13   C18   A    
C37   H18   S    
C51   H25   S    
C8    C9    A    
C53   H27   S    
H1    C17   S    
C41   C42   A    
C31   H16   S    
O13   V3    S    
O19   V4    S    
C36   C66   S    
C46   C47   A    
C39   C40   A    
C11   C12   A    
C6    H3    S    
C19   C20   A    
O4    C2    A    
C59   C64   A    
C34   H14   S    
C58   C61   A    
C12   C13   A    
C49   C50   A    
C5    C10   A    
C12   C15   A    
C22   C25   A    
C3    C20   S    
O2    C1    A    
C23   C24   A    
C21   H10   S    
C16   C17   A    
C32   H13   S    
C50   H22   S    
C55   C57   A    
C65   O16   A    
C27   C28   A    
C30   C31   A    
C48   C49   A    
H24   C63   S    
C54   H28   S    
C27   C32   A    
O3    C4    A    
C57   C65   S    
O15   V3    S    
C24   C31   A    
C28   C29   A    
C37   C38   A    
O6    V2    S    
O9    V2    S    
C9    C11   A    
C5    H2    S    
C22   C23   A    
O2    V1    S    
C43   C48   A    
C55   C56   A    
C51   C56   A    
C32   C33   A    
C69   O21   D    
O7    V1    S    
C26   C27   A    
C20   C21   A    
C64   H31   S    
O1    C2    A    
O11   V4    S    
C44   C45   A    
O5    V1    S    
C52   H26   S    
O8    C3    A    
V4    O20   S    
C19   C24   A    
C8    H5    S    
C35   C40   A    
C62   H30   S    
C18   H8    S    
C36   C37   A    
C6    C7    A    
V3    O20   S    
C7    H4    S    
C1    C49   S    
O3    V1    S    
C33   C68   S    
O5    C3    A    
C54   C55   A    
O14   V3    S    
O7    V2    S    
C58   C59   A    
C42   H20   S    
C41   H19   S    
C35   C36   A    
C25   C26   A    
O4    V1    S    
C43   C44   A    
C7    C8    A    
C15   H6    S    
C29   C30   A    
C16   H7    S    
O16   V4    S    
C30   H15   S    
C9    C10   A    
V1    O10   S    
C53   C54   A    
O9    C4    A    
C26   H12   S    
V2    O10   S    
C69   H32   S    
