data_mof_unit_2134.cif
_audit_creation_date              2012-10-26T18:56:27-0400
_audit_creation_method            fapswitch 2.2
_symmetry_space_group_name_H-M    P1
_symmetry_Int_Tables_number       1
_space_group_crystal_system       triclinic
_cell_length_a                    10.65542
_cell_length_b                    10.618343
_cell_length_c                    9.447834
_cell_angle_alpha                 90.225783
_cell_angle_beta                  89.393482
_cell_angle_gamma                 89.603611
_cell_volume                      1068.86129505

loop_
_atom_site_label
_atom_site_type_symbol
_atom_type_description
_atom_site_fract_x
_atom_site_fract_y
_atom_site_fract_z
_atom_type_partial_charge
C1    C     C_R   0.499568 0.259684 0.499604 0.551676
C2    C     C_3   0.387263 0.485031 0.051976 -0.016033
C3    C     C_R   0.259805 0.500228 0.500834 0.550019
C4    C     C_R   0.740195 0.499771 0.499166 0.550018
C5    C     C_3   0.037325 0.502050 0.633934 0.006280
C6    C     C_3   0.962675 0.497949 0.366067 0.006275
C7    C     C_3   0.956810 0.396837 0.568515 -0.142427
C8    C     C_3   0.043189 0.603161 0.431486 -0.142420
C9    C     C_3   0.876688 0.499919 0.497435 0.020196
C10   C     C_3   0.123311 0.500079 0.502566 0.020199
C11   C     C_3   0.956327 0.603863 0.563938 -0.025168
C12   C     C_R   0.500432 0.740316 0.500396 0.551674
C13   C     C_3   0.043673 0.396135 0.436063 -0.025172
C14   C     C_3   0.607494 0.041121 0.551746 -0.006682
C15   C     C_3   0.392506 0.958879 0.448254 -0.006682
C16   C     C_3   0.596523 0.956792 0.419403 -0.117642
C17   C     C_3   0.403477 0.043208 0.580597 -0.117641
C18   C     C_3   0.500538 0.877073 0.501312 0.043325
C19   C     C_3   0.499461 0.122927 0.498688 0.043326
C20   C     C_1   0.077461 0.503250 0.781825 0.239892
C21   C     C_1   0.922540 0.496748 0.218176 0.239890
C22   C     C_3   0.905047 0.722246 0.635812 -0.390465
C23   C     C_3   0.513008 0.959736 0.634520 -0.101671
C24   C     C_3   0.094953 0.277752 0.364191 -0.390452
C25   C     C_3   0.730447 0.090490 0.609443 -0.399532
C26   C     C_3   0.269553 0.909510 0.390556 -0.399533
C27   C     C_1   0.353024 0.690675 0.894673 0.239519
C28   C     C_1   0.646975 0.309325 0.105327 0.239518
C29   C     C_3   0.486991 0.040264 0.365480 -0.101671
C30   C     C_3   0.542860 0.605523 0.050690 -0.029630
C31   C     C_3   0.457140 0.394477 0.949310 -0.029631
C32   C     C_3   0.431237 0.589164 0.951916 0.091370
C33   C     C_3   0.568763 0.410836 0.048084 0.091371
C34   C     C_3   0.612737 0.514970 0.948023 -0.016030
Cu1   Cu    Cu3+1 0.500030 0.499990 0.643150 0.946358
Cu2   Cu    Cu3+1 0.499970 0.500010 0.356850 0.946352
H1    H     H_    0.920355 0.313025 0.624968 0.110717
H2    H     H_    0.292712 0.472833 0.100101 0.139250
H3    H     H_    0.984099 0.781820 0.670998 0.144103
H4    H     H_    0.846605 0.776023 0.560181 0.121456
H5    H     H_    0.846714 0.696058 0.729013 0.150668
H6    H     H_    0.015880 0.218245 0.328895 0.144146
H7    H     H_    0.153399 0.303945 0.271049 0.150666
H8    H     H_    0.153310 0.223905 0.439876 0.121439
H9    H     H_    0.791158 0.010299 0.640979 0.123902
H10   H     H_    0.779217 0.145973 0.526436 0.137936
H11   H     H_    0.711545 0.151509 0.703014 0.149286
H12   H     H_    0.079644 0.686973 0.375032 0.110718
H13   H     H_    0.208842 0.989700 0.359019 0.123901
H14   H     H_    0.288455 0.848490 0.296987 0.149287
H15   H     H_    0.220781 0.854028 0.473564 0.137935
H16   H     H_    0.675976 0.918899 0.354871 0.116395
H17   H     H_    0.324023 0.081101 0.645129 0.116392
H18   H     H_    0.524914 0.924848 0.744220 0.131152
H19   H     H_    0.475086 0.075152 0.255780 0.131151
H20   H     H_    0.578296 0.694334 0.097515 0.111448
H21   H     H_    0.421704 0.305666 0.902485 0.111448
H22   H     H_    0.707288 0.527169 0.899898 0.139253
N1    N     N_3   0.500090 0.499970 0.858290 -0.253192
N2    N     N_3   0.499910 0.500030 0.141710 -0.253193
N3    N     N_1   0.109231 0.503880 0.898448 -0.305402
N4    N     N_1   0.890770 0.496117 0.101552 -0.305404
N5    N     N_1   0.291239 0.770719 0.849493 -0.323791
N6    N     N_1   0.708760 0.229280 0.150506 -0.323800
O1    O     O_R   0.500060 0.316850 0.620870 -0.511601
O2    O     O_R   0.499940 0.683150 0.379130 -0.511600
O3    O     O_R   0.500000 0.316860 0.379090 -0.498674
O4    O     O_R   0.500000 0.683140 0.620910 -0.498671
O5    O     O_R   0.316880 0.499960 0.620870 -0.488955
O6    O     O_R   0.683120 0.500040 0.379130 -0.488957
O7    O     O_R   0.316830 0.499970 0.379090 -0.514097
O8    O     O_R   0.683170 0.500030 0.620910 -0.514087

loop_
_geom_bond_atom_site_label_1
_geom_bond_atom_site_label_2
_ccdc_geom_bond_type
C15   C18   S    
C25   H9    S    
C24   H6    S    
Cu1   Cu2   S    
C6    C9    S    
C4    O6    A    
Cu2   O3    S    
C5    C20   S    
C12   O4    A    
C17   C23   S    
C2    C32   S    
C3    O5    A    
C5    C11   S    
C26   H14   S    
C2    N2    S    
C22   H5    S    
Cu1   O1    S    
Cu1   N1    S    
C31   N1    S    
C20   N3    T    
C1    O3    A    
C30   N2    S    
C1    O1    A    
C31   C33   S    
C25   H11   S    
Cu2   O7    S    
Cu2   O6    S    
C15   C29   S    
C1    C19   S    
C30   C34   S    
C18   C23   S    
C26   H13   S    
C5    C7    S    
C15   C26   S    
C6    C8    S    
C29   H19   S    
C16   C29   S    
C6    C21   S    
C30   H20   S    
C13   C24   S    
C2    C31   S    
C14   C23   S    
C3    O7    A    
C8    H12   S    
C2    H2    S    
C22   H4    S    
C33   C34   S    
C7    H1    S    
C9    C11   S    
C21   N4    T    
C27   N5    T    
C28   N6    T    
C8    C10   S    
C28   C33   S    
C33   N2    S    
C34   N1    S    
C24   H8    S    
C14   C16   S    
C19   C29   S    
C17   H17   S    
C4    O8    A    
C23   H18   S    
C15   C17   S    
C27   C32   S    
C14   C19   S    
C16   H16   S    
Cu2   N2    S    
C10   C13   S    
Cu1   O8    S    
C11   C22   S    
C31   H21   S    
C5    C10   S    
C3    C10   S    
C26   H15   S    
C6    C13   S    
C30   C32   S    
C12   O2    A    
Cu1   O4    S    
C8    C11   S    
C22   H3    S    
C17   C19   S    
Cu2   O2    S    
C14   C25   S    
C7    C9    S    
C7    C13   S    
Cu1   O5    S    
C16   C18   S    
C12   C18   S    
C34   H22   S    
C24   H7    S    
C32   N1    S    
C4    C9    S    
C25   H10   S    
