data_mof_unit_1085.cif
_audit_creation_date              2012-10-26T20:26:58-0400
_audit_creation_method            fapswitch 2.2
_symmetry_space_group_name_H-M    P1
_symmetry_Int_Tables_number       1
_space_group_crystal_system       triclinic
_cell_length_a                    23.496194
_cell_length_b                    22.196315
_cell_length_c                    27.662267
_cell_angle_alpha                 89.980108
_cell_angle_beta                  90.013527
_cell_angle_gamma                 90.093354
_cell_volume                      14426.6519062

loop_
_atom_site_label
_atom_site_type_symbol
_atom_type_description
_atom_site_fract_x
_atom_site_fract_y
_atom_site_fract_z
_atom_type_partial_charge
C1    C     C_R   0.391004 0.499953 0.499932 0.551512
C2    C     C_R   0.548319 0.587894 0.899126 -0.116532
C3    C     C_3   0.342747 0.474085 0.615555 -0.424001
C4    C     C_3   0.670328 0.521173 0.408528 -0.286104
C5    C     C_3   0.652669 0.461421 0.385615 -0.434780
C6    C     C_3   0.524976 0.389546 0.252410 -0.247684
C7    C     C_3   0.580908 0.364843 0.272531 -0.469563
C8    C     C_3   0.558776 0.411521 0.753049 -0.255073
C9    C     C_3   0.598532 0.369822 0.724864 -0.463122
C10   C     C_3   0.636120 0.938803 0.426773 -0.251109
C11   C     C_3   0.639844 0.974090 0.379256 -0.457888
C12   C     C_3   0.340219 0.056803 0.508820 -0.253121
C13   C     C_R   0.493494 0.568230 0.128260 0.020566
C14   C     C_3   0.310570 0.023003 0.467658 -0.452859
C15   C     C_3   0.362737 0.944114 0.568894 -0.253957
C16   C     C_3   0.367773 0.978132 0.616843 -0.451719
C17   C     C_3   0.659976 0.059039 0.475588 -0.237451
C18   C     C_3   0.674092 0.081274 0.526562 -0.410400
C19   C     C_3   0.423569 0.589159 0.746769 -0.258458
C20   C     C_3   0.386726 0.629993 0.715077 -0.460093
C21   C     C_3   0.578408 0.595262 0.260141 -0.248764
C22   C     C_3   0.636170 0.587200 0.284760 -0.475189
C23   C     C_3   0.374810 0.374191 0.873583 -0.240766
C24   C     C_R   0.447468 0.461962 0.873054 0.017304
C25   C     C_3   0.339622 0.331456 0.905232 -0.473313
C26   C     C_3   0.537119 0.674687 0.127170 -0.245485
C27   C     C_3   0.569077 0.720571 0.095929 -0.470436
C28   C     C_R   0.505800 0.500675 0.354144 -0.042589
C29   C     C_R   0.497704 0.500310 0.645621 -0.034726
C30   C     C_R   0.444850 0.465903 0.976262 -0.003018
C31   C     C_R   0.499168 0.561705 0.025876 -0.003521
C32   C     C_R   0.506180 0.555466 0.975176 0.017530
C33   C     C_R   0.446967 0.465854 0.027749 0.018287
C34   C     C_R   0.477023 0.508733 0.950236 0.030225
C35   C     C_R   0.608946 0.499997 0.500067 0.551181
C36   C     C_R   0.473298 0.514751 0.052217 0.030178
C37   C     C_R   0.411267 0.424586 0.950186 -0.118150
C38   C     C_R   0.516741 0.613920 0.050837 -0.117855
C39   C     C_R   0.500953 0.500073 0.407165 0.538128
C40   C     C_R   0.499849 0.500026 0.592711 0.537184
C41   C     C_R   0.411701 0.421304 0.899343 0.011153
C42   C     C_R   0.514479 0.618410 0.101554 0.013333
C43   C     C_R   0.424258 0.418230 0.055810 -0.145967
C44   C     C_R   0.542894 0.593510 0.948761 -0.149089
C45   C     C_R   0.879813 0.552133 0.494096 0.395067
C46   C     C_R   0.509925 0.504563 0.252846 0.202841
C47   C     C_R   0.120153 0.447461 0.499980 0.395669
C48   C     C_R   0.879544 0.445126 0.502071 0.390319
C49   C     C_R   0.120413 0.554478 0.492033 0.390800
C50   C     C_R   0.940023 0.443259 0.502208 0.035740
C51   C     C_R   0.059935 0.556310 0.491610 0.035223
C52   C     C_R   0.969825 0.498933 0.497251 -0.047229
C53   C     C_R   0.030132 0.500606 0.496400 -0.047167
C54   C     C_R   0.939340 0.553222 0.493154 0.011676
C55   C     C_R   0.060618 0.446305 0.500462 0.011654
C56   C     C_R   0.972077 0.388804 0.506716 0.003312
C57   C     C_R   0.491494 0.500385 0.746710 0.253262
C58   C     C_R   0.027879 0.610745 0.487006 0.002527
C59   C     C_R   0.031574 0.391651 0.505476 -0.114144
C60   C     C_R   0.968381 0.607867 0.488055 -0.113937
C61   C     C_R   0.462473 0.320433 0.471352 0.031207
C62   C     C_R   0.467658 0.679582 0.467166 0.028539
C63   C     C_R   0.537541 0.320163 0.528396 0.032775
C64   C     C_R   0.532341 0.679848 0.532732 0.029569
C65   C     C_R   0.461708 0.257146 0.470605 -0.090356
C66   C     C_R   0.467209 0.742882 0.466339 -0.089940
C67   C     C_R   0.538404 0.256832 0.528490 -0.085393
C68   C     C_R   0.473635 0.516733 0.103398 -0.036578
C69   C     C_R   0.532816 0.743172 0.533316 -0.088950
C70   C     C_R   0.239900 0.483949 0.455723 -0.049760
C71   C     C_R   0.761108 0.487510 0.541861 -0.049857
C72   C     C_R   0.299502 0.483569 0.456056 -0.025972
C73   C     C_R   0.701526 0.487688 0.542916 -0.023264
C74   C     C_R   0.328703 0.499897 0.498984 0.040355
C75   C     C_R   0.671168 0.499843 0.499744 0.040558
C76   C     C_R   0.297716 0.516416 0.540876 -0.019622
C77   C     C_R   0.700854 0.510986 0.456072 -0.020673
C78   C     C_R   0.238180 0.516774 0.539128 -0.046271
C79   C     C_R   0.480249 0.505050 0.899027 -0.038720
C80   C     C_R   0.760423 0.510817 0.456357 -0.046869
C81   C     C_R   0.209461 0.500595 0.496914 0.219889
C82   C     C_R   0.790406 0.499212 0.498933 0.218433
C83   C     C_R   0.451235 0.872098 0.510157 0.389790
C84   C     C_R   0.547806 0.128565 0.483399 0.389728
C85   C     C_R   0.548948 0.871941 0.488108 0.388894
C86   C     C_R   0.452898 0.127843 0.513177 0.387146
C87   C     C_R   0.548538 0.935713 0.482183 0.016100
C88   C     C_R   0.449886 0.064141 0.508735 0.015310
C89   C     C_R   0.451515 0.936047 0.514142 0.017213
C90   C     C_R   0.451132 0.468287 0.130116 0.024064
C91   C     C_R   0.550444 0.064300 0.484990 0.022182
C92   C     C_R   0.500066 0.967986 0.497683 -0.065258
C93   C     C_R   0.500169 0.032186 0.497052 -0.067010
C94   C     C_R   0.595668 0.968263 0.463155 0.028940
C95   C     C_R   0.399386 0.030970 0.518485 0.041185
C96   C     C_R   0.404047 0.969415 0.531321 0.041208
C97   C     C_R   0.600579 0.030927 0.473228 0.037008
C98   C     C_R   0.455882 0.468831 0.180698 0.397059
C99   C     C_R   0.521208 0.540754 0.823610 0.373475
C100  C     C_R   0.500109 0.224436 0.499328 0.233389
C101  C     C_R   0.516724 0.544813 0.873835 0.024494
C102  C     C_R   0.500016 0.775612 0.499760 0.221754
C103  C     C_R   0.490979 0.566825 0.179393 0.384853
C104  C     C_R   0.451667 0.462408 0.821635 0.366910
C105  C     C_R   0.533675 0.552599 0.280431 0.067046
C106  C     C_R   0.461036 0.544194 0.719996 0.053706
C107  C     C_R   0.524764 0.552815 0.330540 -0.133326
C108  C     C_R   0.466103 0.544501 0.669442 -0.138200
C109  C     C_R   0.501062 0.447295 0.327512 -0.138746
C110  C     C_R   0.526466 0.456267 0.672104 -0.133275
C111  C     C_R   0.508420 0.447980 0.277155 0.063998
C112  C     C_R   0.426149 0.419667 0.106007 -0.118669
C113  C     C_R   0.525118 0.456549 0.722923 0.058106
C114  C     C_3   0.946375 0.326555 0.514072 -0.235477
C115  C     C_3   0.927349 0.317337 0.566408 -0.397707
C116  C     C_3   0.053585 0.673041 0.479964 -0.236411
C117  C     C_3   0.072504 0.682693 0.427656 -0.394283
C118  C     C_3   0.330555 0.466978 0.409932 -0.284789
C119  C     C_3   0.350395 0.523140 0.382854 -0.420317
C120  C     C_3   0.671708 0.475429 0.590504 -0.290489
C121  C     C_3   0.653596 0.533990 0.614911 -0.426171
C122  C     C_3   0.326624 0.531404 0.588339 -0.293419
Cu1   Cu    Cu3+1 0.500000 0.559570 0.500000 0.920007
Cu2   Cu    Cu3+1 0.500000 0.440430 0.500000 0.922233
H1    H     H_    0.406827 0.377796 0.040072 0.103518
H2    H     H_    0.896953 0.352632 0.578057 0.193055
H3    H     H_    0.586881 0.756491 0.119460 0.144929
H4    H     H_    0.500925 0.698625 0.144366 0.199234
H5    H     H_    0.567406 0.660346 0.155769 0.161893
H6    H     H_    0.382555 0.395891 0.969559 0.117773
H7    H     H_    0.530341 0.652566 0.030516 0.117410
H8    H     H_    0.906481 0.272654 0.570084 0.139042
H9    H     H_    0.911659 0.317371 0.487993 0.200900
H10   H     H_    0.978209 0.290904 0.506023 0.117241
H11   H     H_    0.093429 0.727373 0.424199 0.142439
H12   H     H_    0.102818 0.647448 0.415766 0.197858
H13   H     H_    0.034893 0.681596 0.403323 0.139805
H14   H     H_    0.021771 0.708619 0.488265 0.118104
H15   H     H_    0.088354 0.681997 0.506043 0.200882
H16   H     H_    0.055670 0.350304 0.509197 0.162083
H17   H     H_    0.569889 0.626606 0.965872 0.104876
H18   H     H_    0.944292 0.649212 0.484293 0.162352
H19   H     H_    0.216781 0.471939 0.423216 0.123291
H20   H     H_    0.785114 0.478730 0.574560 0.121468
H21   H     H_    0.313249 0.551450 0.372905 0.161140
H22   H     H_    0.380020 0.550152 0.405363 0.169328
H23   H     H_    0.372875 0.509628 0.349265 0.159554
H24   H     H_    0.367453 0.437407 0.417795 0.161118
H25   H     H_    0.302141 0.440755 0.385596 0.145576
H26   H     H_    0.691267 0.563222 0.621311 0.162995
H27   H     H_    0.622433 0.558655 0.592230 0.172083
H28   H     H_    0.213715 0.528814 0.570883 0.122924
H29   H     H_    0.633440 0.523733 0.650270 0.149720
H30   H     H_    0.634086 0.445875 0.585020 0.152178
H31   H     H_    0.700496 0.450807 0.615542 0.136367
H32   H     H_    0.304581 0.445292 0.621082 0.167952
H33   H     H_    0.375280 0.448246 0.595221 0.182695
H34   H     H_    0.360398 0.485975 0.651520 0.152060
H35   H     H_    0.364963 0.559701 0.582353 0.166518
H36   H     H_    0.297701 0.558295 0.611675 0.137731
H37   H     H_    0.690724 0.433038 0.378821 0.157440
H38   H     H_    0.622811 0.436542 0.409439 0.186240
H39   H     H_    0.783886 0.518884 0.423254 0.124407
H40   H     H_    0.631073 0.469991 0.350624 0.138317
H41   H     H_    0.632410 0.550261 0.413659 0.165736
H42   H     H_    0.698615 0.545336 0.382766 0.137994
H43   H     H_    0.433013 0.345210 0.448850 0.118246
H44   H     H_    0.442102 0.654817 0.441392 0.125726
H45   H     H_    0.567037 0.344741 0.551076 0.116113
H46   H     H_    0.557921 0.655290 0.558574 0.124802
H47   H     H_    0.495060 0.404706 0.345997 0.130889
H48   H     H_    0.550749 0.422924 0.652520 0.120811
H49   H     H_    0.615191 0.399121 0.269050 0.150029
H50   H     H_    0.431734 0.233750 0.447526 0.111522
H51   H     H_    0.576295 0.352016 0.311133 0.155486
H52   H     H_    0.593475 0.324101 0.251866 0.147159
H53   H     H_    0.490837 0.355424 0.257516 0.181390
H54   H     H_    0.531856 0.396283 0.213113 0.164761
H55   H     H_    0.573711 0.339867 0.700542 0.152903
H56   H     H_    0.629768 0.396546 0.703609 0.148157
H57   H     H_    0.622428 0.341001 0.750629 0.145316
H58   H     H_    0.585277 0.436884 0.779414 0.165072
H59   H     H_    0.528570 0.383019 0.773843 0.177689
H60   H     H_    0.409210 0.381568 0.125864 0.157866
H61   H     H_    0.441609 0.766256 0.439763 0.127713
H62   H     H_    0.577300 0.618045 0.880552 0.163215
H63   H     H_    0.596523 0.982037 0.364477 0.162076
H64   H     H_    0.661679 0.017931 0.384036 0.150915
H65   H     H_    0.664509 0.947668 0.352389 0.141549
H66   H     H_    0.679057 0.932447 0.442668 0.157504
H67   H     H_    0.620642 0.893867 0.415468 0.200258
H68   H     H_    0.336348 0.026294 0.434085 0.158750
H69   H     H_    0.304140 0.974763 0.476542 0.165442
H70   H     H_    0.268232 0.043446 0.460739 0.142438
H71   H     H_    0.313444 0.055090 0.541785 0.151423
H72   H     H_    0.568484 0.233184 0.551248 0.108946
H73   H     H_    0.341412 0.104152 0.496624 0.201864
H74   H     H_    0.411873 0.974505 0.631053 0.159952
H75   H     H_    0.356956 0.026454 0.612700 0.167493
H76   H     H_    0.338166 0.958106 0.643725 0.140338
H77   H     H_    0.318233 0.946166 0.555686 0.149007
H78   H     H_    0.371554 0.896770 0.578412 0.204733
H79   H     H_    0.644624 0.117250 0.538505 0.181619
H80   H     H_    0.671591 0.043246 0.552607 0.146876
H81   H     H_    0.718055 0.099699 0.527182 0.138166
H82   H     H_    0.693561 0.025944 0.466760 0.126818
H83   H     H_    0.558471 0.766775 0.559759 0.128451
H84   H     H_    0.665436 0.095312 0.448500 0.196717
H85   H     H_    0.444215 0.577802 0.647862 0.129654
H86   H     H_    0.537842 0.591676 0.351513 0.132561
H87   H     H_    0.413829 0.660255 0.692842 0.156741
H88   H     H_    0.358562 0.602612 0.691421 0.149078
H89   H     H_    0.359474 0.658541 0.738499 0.147207
H90   H     H_    0.394403 0.563767 0.771005 0.164721
H91   H     H_    0.450893 0.618315 0.769724 0.178892
H92   H     H_    0.634070 0.600711 0.323326 0.148046
H93   H     H_    0.650211 0.539561 0.282060 0.151318
H94   H     H_    0.964904 0.318705 0.590796 0.141152
H95   H     H_    0.668304 0.616138 0.266606 0.144568
H96   H     H_    0.586015 0.586479 0.221238 0.157971
H97   H     H_    0.564333 0.642670 0.264857 0.183090
H98   H     H_    0.367711 0.305048 0.929598 0.149504
H99   H     H_    0.307627 0.356947 0.926524 0.151348
H100  H     H_    0.316314 0.299206 0.881738 0.149476
H101  H     H_    0.344170 0.397938 0.849667 0.195686
H102  H     H_    0.403025 0.345111 0.851390 0.191660
H103  H     H_    0.604955 0.698650 0.076624 0.151045
H104  H     H_    0.539745 0.742290 0.069721 0.149624
N1    N     N_R   0.487649 0.512645 0.203305 -0.382654
N2    N     N_R   0.488411 0.500781 0.798704 -0.403300
N3    N     N_R   0.851461 0.498831 0.498464 -0.394755
N4    N     N_R   0.148460 0.500817 0.496023 -0.395423
N5    N     N_R   0.500000 0.350920 0.500000 -0.222576
N6    N     N_R   0.500000 0.649080 0.500000 -0.224994
N7    N     N_R   0.500112 0.841267 0.499493 -0.385128
N8    N     N_R   0.500303 0.158794 0.498648 -0.385086
O1    O     O_R   0.417880 0.550320 0.500010 -0.501495
O2    O     O_2   0.591382 0.160892 0.465282 -0.525705
O3    O     O_2   0.598065 0.841000 0.484179 -0.521250
O4    O     O_2   0.410417 0.158478 0.534738 -0.517410
O5    O     O_2   0.426831 0.427620 0.206682 -0.522760
O6    O     O_2   0.557701 0.576983 0.799520 -0.517435
O7    O     O_2   0.419495 0.425595 0.794184 -0.540577
O8    O     O_2   0.485818 0.618553 0.204319 -0.536239
O9    O     O_2   0.850219 0.604083 0.490862 -0.505578
O10   O     O_2   0.149807 0.395622 0.503895 -0.505118
O11   O     O_2   0.848377 0.394311 0.504863 -0.527996
O12   O     O_R   0.582120 0.449680 0.499990 -0.506652
O13   O     O_2   0.151618 0.605212 0.488652 -0.524733
O14   O     O_R   0.582120 0.550320 0.499990 -0.500173
O15   O     O_R   0.417880 0.449680 0.500010 -0.502046
O16   O     O_R   0.500010 0.550300 0.430260 -0.509089
O17   O     O_R   0.499990 0.449700 0.569740 -0.499801
O18   O     O_R   0.499990 0.550300 0.569740 -0.508134
O19   O     O_R   0.500010 0.449700 0.430260 -0.506960
O20   O     O_2   0.402211 0.841051 0.514854 -0.525480

loop_
_geom_bond_atom_site_label_1
_geom_bond_atom_site_label_2
_ccdc_geom_bond_type
C103  N1    A    
C62   H44   S    
C82   N3    S    
C87   C94   A    
Cu2   O12   S    
C62   N6    A    
C22   H92   S    
C65   H50   S    
C61   N5    A    
C6    C111  S    
C66   C102  A    
C95   C96   A    
C90   C112  A    
C22   H95   S    
C43   H1    S    
C114  C115  S    
C78   H28   S    
Cu1   Cu2   S    
C112  H60   S    
C107  H86   S    
C54   C60   A    
C69   C102  A    
C121  H26   S    
C119  H22   S    
C105  C107  A    
C35   C75   S    
C35   O12   A    
C10   H66   S    
C115  H2    S    
C21   H97   S    
C18   H81   S    
C11   H63   S    
C1    C74   S    
C21   C22   S    
C17   H82   S    
C84   N8    A    
C76   C78   A    
C38   C42   A    
Cu2   O15   S    
C55   C59   A    
C109  C111  A    
C86   C88   A    
C27   H104  S    
C63   H45   S    
C91   C93   A    
C10   C94   S    
C28   C107  A    
C58   C60   A    
C15   C16   S    
Cu1   N6    S    
C46   C105  A    
C33   C36   A    
C37   H6    S    
C25   H100  S    
C17   C18   S    
C20   H87   S    
C86   O4    S    
C70   C81   A    
C118  C119  S    
C3    H32   S    
C98   O5    S    
C60   H18   S    
C48   N3    A    
C104  N2    A    
C48   O11   S    
C39   O16   A    
C19   C20   S    
C5    H38   S    
C2    C44   A    
C8    C9    S    
Cu1   O18   S    
C81   N4    S    
C7    H51   S    
C3    H34   S    
C50   C52   A    
C122  H35   S    
C29   C108  A    
C18   H79   S    
C84   C91   A    
C13   C103  A    
C9    H55   S    
C3    C122  S    
C116  H15   S    
C40   O18   A    
C70   H19   S    
C85   C87   A    
C57   C106  A    
C14   H70   S    
C88   C95   A    
C102  N7    S    
C73   C120  S    
C46   C111  A    
C6    H54   S    
C58   C116  S    
C24   C41   A    
C73   C75   A    
C27   H3    S    
Cu2   O19   S    
C13   C42   A    
C23   H101  S    
C52   C54   A    
C108  H85   S    
C116  H14   S    
C115  H8    S    
C53   C55   A    
C32   C44   A    
C83   C89   A    
C63   C67   A    
C69   H83   S    
C62   C66   A    
C11   H64   S    
C33   C43   A    
C5    H40   S    
C29   C110  A    
Cu1   O14   S    
C80   C82   A    
C2    C101  A    
C45   O9    S    
C15   C96   S    
C71   C73   A    
C30   C34   A    
C44   H17   S    
C57   C113  A    
C47   N4    A    
C94   C97   A    
C49   C51   A    
C32   C34   A    
C76   C122  S    
C117  H13   S    
C21   H96   S    
C120  H31   S    
C50   C56   A    
C121  H27   S    
C30   C37   A    
C85   O3    S    
C5    H37   S    
C15   H77   S    
C118  H25   S    
C2    H62   S    
C80   H39   S    
C64   N6    A    
C34   C79   A    
C63   N5    A    
C98   N1    A    
C24   C79   A    
C68   C90   A    
C31   C32   A    
C12   H73   S    
C7    H52   S    
C26   H5    S    
C120  H30   S    
C103  O8    S    
C114  H10   S    
C25   H98   S    
C115  H94   S    
C51   C58   A    
C26   H4    S    
C64   C69   A    
C91   C97   A    
C89   C92   A    
C75   C77   A    
C110  C113  A    
C16   H75   S    
C121  H29   S    
C67   C100  A    
Cu2   N5    S    
C8    C113  S    
C8    H59   S    
C72   C74   A    
C23   H102  S    
C99   C101  A    
C14   H69   S    
C12   C14   S    
C45   C54   A    
C6    H53   S    
C26   C27   S    
C46   N1    S    
C100  N8    S    
C12   C95   S    
C40   O17   A    
C43   C112  A    
C74   C76   A    
C61   H43   S    
C67   H72   S    
C117  H11   S    
Cu2   O17   S    
C15   H78   S    
C16   H74   S    
C120  C121  S    
C26   C42   S    
C47   C55   A    
C77   C80   A    
C8    H58   S    
C88   C93   A    
C122  H36   S    
C30   C33   A    
C85   N7    A    
C22   H93   S    
C17   H84   S    
C84   O2    S    
C9    H56   S    
C65   C100  A    
C83   N7    A    
C4    C5    S    
C16   H76   S    
C18   H80   S    
C36   C68   A    
C31   C38   A    
C6    C7    S    
C28   C109  A    
C119  H21   S    
C104  O7    S    
C83   O20   S    
C10   H67   S    
C28   C39   S    
C56   C59   A    
C99   N2    A    
C64   H46   S    
C19   H90   S    
C1    O1    A    
C38   H7    S    
C71   C82   A    
C49   N4    A    
C118  H24   S    
C23   C41   S    
C119  H23   S    
C14   H68   S    
C4    C77   S    
C20   H89   S    
C24   C104  A    
C57   N2    S    
C78   C81   A    
C27   H103  S    
C35   O14   A    
C106  C108  A    
C59   H16   S    
C89   C96   A    
C7    H49   S    
C29   C40   S    
C48   C50   A    
C92   C93   A    
C12   H71   S    
C114  H9    S    
C4    H42   S    
C116  C117  S    
C25   H99   S    
C19   H91   S    
C20   H88   S    
C37   C41   A    
C86   N8    A    
C9    H57   S    
C10   C11   S    
C51   C53   A    
C19   C106  S    
C61   C65   A    
Cu1   O16   S    
C23   C25   S    
C39   O19   A    
C66   H61   S    
C72   C118  S    
C3    H33   S    
C99   O6    S    
C56   C114  S    
C31   C36   A    
C79   C101  A    
C70   C72   A    
C45   N3    A    
C49   O13   S    
C11   H65   S    
C4    H41   S    
C87   C92   A    
C117  H12   S    
C17   C97   S    
C90   C98   A    
C47   O10   S    
C21   C105  S    
C1    O15   A    
C109  H47   S    
C52   C53   A    
C71   H20   S    
Cu1   O1    S    
C13   C68   A    
C110  H48   S    
