data_mof_unit_2948.cif
_audit_creation_date              2012-12-10T18:11:47-0500
_audit_creation_method            fapswitch 2.2
_symmetry_space_group_name_H-M    P1
_symmetry_Int_Tables_number       1
_space_group_crystal_system       triclinic
_cell_length_a                    15.825009
_cell_length_b                    10.809861
_cell_length_c                    9.548453
_cell_angle_alpha                 90.558397
_cell_angle_beta                  88.310177
_cell_angle_gamma                 90.189459
_cell_volume                      1632.62173273

loop_
_atom_site_label
_atom_site_type_symbol
_atom_type_description
_atom_site_fract_x
_atom_site_fract_y
_atom_site_fract_z
_atom_type_partial_charge
C1    C     C_R   0.495255 0.260378 0.499001 0.783647
C2    C     C_3   0.083672 0.495414 0.504710 -0.036826
C3    C     C_3   0.971272 0.601070 0.546514 0.400819
C4    C     C_3   0.917403 0.492885 0.495397 -0.007744
C5    C     C_3   0.031348 0.585940 0.418378 0.098735
C6    C     C_3   0.978012 0.475097 0.366048 0.093635
C7    C     C_1   0.175254 0.497268 0.507568 -0.043197
C8    C     C_1   0.825464 0.495271 0.494119 -0.017367
C9    C     C_3   0.580050 0.072893 0.531801 -0.428687
C10   C     C_3   0.579718 0.930836 0.544865 -0.550150
C11   C     C_3   0.427241 0.072499 0.607390 -0.468697
C12   C     C_R   0.340267 0.499725 0.501850 0.810042
C13   C     C_3   0.466990 0.071143 0.343027 0.425681
C14   C     C_3   0.490866 0.121852 0.494198 0.052642
C15   C     C_3   0.493377 0.877890 0.498472 -0.003476
C16   C     C_3   0.426142 0.928578 0.609342 -0.037346
C17   C     C_3   0.475121 0.924889 0.344731 0.722932
C18   C     C_3   0.458544 0.612140 0.087395 0.329513
C19   C     C_3   0.472446 0.625575 0.921589 0.745917
C20   C     C_3   0.590030 0.496455 0.080275 0.011920
C21   C     C_3   0.457393 0.391176 0.085779 -0.269278
C22   C     C_3   0.588475 0.476353 0.914296 0.006640
C23   C     C_R   0.498004 0.739683 0.500276 0.825350
C24   C     C_3   0.444133 0.402734 0.921449 0.075089
C25   C     C_R   0.659913 0.499537 0.498312 0.815454
C26   C     C_3   0.970307 0.403069 0.581864 0.122467
C27   C     C_3   0.030829 0.384134 0.452821 0.177309
C28   C     C_1   0.250750 0.498583 0.506179 -0.168193
C29   C     C_1   0.749779 0.497403 0.494968 -0.185312
C30   C     C_3   0.024186 0.513376 0.634464 -0.290127
Cu1   Cu    Cu3+1 0.500040 0.499860 0.642410 0.921651
Cu2   Cu    Cu3+1 0.499960 0.500140 0.357590 0.950384
H1    H     H_    0.590691 0.906107 0.655788 0.210419
H2    H     H_    0.446306 0.106230 0.712468 0.181232
H3    H     H_    0.448439 0.901717 0.714461 0.201572
H4    H     H_    0.364705 0.112429 0.593184 0.181456
H5    H     H_    0.485881 0.695588 0.136095 0.186132
H6    H     H_    0.632846 0.544863 0.867917 0.154523
H7    H     H_    0.493082 0.306374 0.107343 0.178051
H8    H     H_    0.397676 0.376960 0.146649 0.195810
H9    H     H_    0.464049 0.314045 0.873321 0.183335
H10   H     H_    0.621381 0.417774 0.129521 0.216448
H11   H     H_    0.044428 0.530814 0.743257 0.157360
H12   H     H_    0.600053 0.114087 0.632924 0.184339
H13   H     H_    0.628304 0.101173 0.451225 0.209565
H14   H     H_    0.633952 0.889741 0.484538 0.181935
N1    N     N_3   0.501840 0.500250 0.143650 -0.210807
N2    N     N_3   0.501160 0.503300 0.856280 -0.207832
O1    O     O_R   0.500050 0.317570 0.620260 -0.622433
O2    O     O_R   0.499980 0.317810 0.379740 -0.556567
O3    O     O_R   0.379110 0.499870 0.620240 -0.560113
O4    O     O_R   0.379040 0.500110 0.379720 -0.533100
O5    O     O_R   0.500020 0.682190 0.620260 -0.579884
O6    O     O_R   0.499950 0.682430 0.379740 -0.542332
O7    O     O_R   0.620960 0.499890 0.620280 -0.619015
O8    O     O_R   0.620890 0.500130 0.379760 -0.588672
C31   C     C_3   0.074879 0.264535 0.403253 -0.371967
C32   C     C_3   0.013103 0.163533 0.359934 -0.852839
H15   H     H_    0.971224 0.136304 0.449409 0.258668
H16   H     H_    0.973996 0.194546 0.272725 0.255058
H17   H     H_    0.049237 0.080694 0.323994 0.242093
H18   H     H_    0.118421 0.285865 0.313475 0.197400
H19   H     H_    0.114240 0.229509 0.488537 0.200121
C33   C     C_3   0.379684 0.124307 0.286757 -0.394019
C34   C     C_3   0.290973 0.076830 0.330704 -0.881225
H20   H     H_    0.276901 0.982594 0.292122 0.279170
H21   H     H_    0.275432 0.085663 0.443127 0.245422
H22   H     H_    0.244089 0.136218 0.279283 0.229750
H23   H     H_    0.376441 0.224617 0.307605 0.209796
H24   H     H_    0.381647 0.115975 0.170537 0.179820
O9    O     O_3   0.530319 0.116922 0.249088 -0.779815
H25   H     H_    0.518802 0.086274 0.153110 0.326102
O10   O     O_3   0.540922 0.884280 0.250719 -0.775651
H26   H     H_    0.595263 0.923756 0.274016 0.333336
O11   O     O_3   0.400661 0.868850 0.299598 -0.771571
H27   H     H_    0.397550 0.884156 0.197436 0.317251
C35   C     C_3   0.336545 0.869879 0.602476 -0.339398
C36   C     C_3   0.275612 0.916922 0.718706 -0.877822
H28   H     H_    0.306246 0.918406 0.821730 0.247420
H29   H     H_    0.253069 0.011434 0.695767 0.248843
H30   H     H_    0.219473 0.855097 0.725680 0.248100
H31   H     H_    0.307348 0.884795 0.501034 0.253270
H32   H     H_    0.341766 0.768214 0.614403 0.229499
C37   C     C_3   0.929939 0.307088 0.680155 -0.374304
C38   C     C_3   0.995877 0.233904 0.758018 -0.837902
H33   H     H_    0.031535 0.171572 0.685114 0.254792
H34   H     H_    0.040833 0.297087 0.810244 0.249374
H35   H     H_    0.963723 0.176246 0.839225 0.243773
H36   H     H_    0.888504 0.356291 0.758271 0.199641
H37   H     H_    0.889634 0.242978 0.619713 0.197281
O12   O     O_3   0.371822 0.608617 0.125514 -0.721041
H38   H     H_    0.349648 0.694067 0.122031 0.317887
O13   O     O_3   0.397677 0.664476 0.860190 -0.721081
H39   H     H_    0.385373 0.749476 0.894971 0.310910
O14   O     O_3   0.532050 0.722212 0.900454 -0.832169
H40   H     H_    0.569386 0.706275 0.818142 0.341568
C39   C     C_3   0.646205 0.611554 0.118025 -0.379945
C40   C     C_3   0.739951 0.578566 0.120950 -0.904439
H41   H     H_    0.750701 0.502822 0.195739 0.263994
H42   H     H_    0.763359 0.548766 0.015201 0.251181
H43   H     H_    0.776764 0.660964 0.153937 0.254281
H44   H     H_    0.641871 0.687304 0.042615 0.238079
H45   H     H_    0.626700 0.655235 0.218584 0.270112
C41   C     C_3   0.345742 0.409775 0.897003 -0.271277
C42   C     C_3   0.310605 0.292609 0.829147 -0.966546
H46   H     H_    0.335466 0.284470 0.720092 0.272307
H47   H     H_    0.328066 0.209481 0.889282 0.245478
H48   H     H_    0.240565 0.297892 0.826494 0.252804
H49   H     H_    0.308791 0.422300 0.996534 0.209565
H50   H     H_    0.323999 0.488458 0.837518 0.286013
C43   C     C_3   0.943648 0.456096 0.218969 -0.375525
C44   C     C_3   0.012828 0.437883 0.106058 -0.847386
H51   H     H_    0.059797 0.513983 0.108552 0.257290
H52   H     H_    0.045358 0.348348 0.118815 0.254563
H53   H     H_    0.983739 0.437379 0.001680 0.243889
H54   H     H_    0.900254 0.375243 0.218967 0.197400
H55   H     H_    0.906152 0.538413 0.192858 0.212378
C45   C     C_3   0.633740 0.352017 0.863872 -0.373414
C46   C     C_3   0.623529 0.230506 0.945401 -0.899503
H56   H     H_    0.643228 0.237371 0.055271 0.270686
H57   H     H_    0.559454 0.190608 0.939354 0.232402
H58   H     H_    0.666130 0.160653 0.894866 0.244881
H59   H     H_    0.618812 0.327789 0.755945 0.261757
H60   H     H_    0.702979 0.370971 0.860351 0.187252
C47   C     C_3   0.072688 0.693665 0.338201 -0.378935
C48   C     C_3   0.008642 0.772279 0.262894 -0.822853
H61   H     H_    0.981372 0.719822 0.174752 0.252621
H62   H     H_    0.957127 0.803317 0.336267 0.280327
H63   H     H_    0.040904 0.855294 0.219105 0.233101
H64   H     H_    0.106236 0.753387 0.414081 0.198644
H65   H     H_    0.120551 0.657299 0.261261 0.209640
O15   O     O_3   0.937280 0.713104 0.595707 -0.728212
H66   H     H_    0.986383 0.763259 0.624887 0.317000

loop_
_geom_bond_atom_site_label_1
_geom_bond_atom_site_label_2
_ccdc_geom_bond_type
C22   N2    S    
C9    H13   S    
O13   H39   S    
O10   H26   S    
O14   H40   S    
C25   O8    A    
C4    C8    S    
C18   N1    S    
C44   H52   S    
C39   C40   S    
C31   H18   S    
C35   C36   S    
C42   H47   S    
C26   C27   S    
C48   H61   S    
C12   C28   S    
C18   O12   S    
C11   H4    S    
C18   H5    S    
C18   C19   S    
C10   C15   S    
C16   H3    S    
C41   H49   S    
C11   C14   S    
C36   H29   S    
C46   H58   S    
C35   H32   S    
C32   H16   S    
C15   C16   S    
C22   H6    S    
C22   C45   S    
C16   C35   S    
C6    C43   S    
C45   C46   S    
C44   H51   S    
C2    C7    S    
C47   H64   S    
Cu2   O4    S    
C20   C39   S    
Cu1   Cu2   S    
O15   H66   S    
C34   H21   S    
C10   H14   S    
C48   H62   S    
C31   H19   S    
C43   H54   S    
C33   H24   S    
C1    O2    A    
C39   H44   S    
C19   O13   S    
C32   H17   S    
C15   C23   S    
C13   C14   S    
C17   O10   S    
C24   H9    S    
C37   H37   S    
Cu1   O1    S    
Cu2   O6    S    
C41   C42   S    
C12   O4    A    
C23   O5    A    
C38   H34   S    
C25   C29   S    
C42   H48   S    
C3    O15   S    
C24   N2    S    
C2    C30   S    
C37   C38   S    
C4    C6    S    
C27   C31   S    
O12   H38   S    
C9    C14   S    
C19   N2    S    
C13   O9    S    
C48   H63   S    
C32   H15   S    
C38   H33   S    
C7    C28   T    
C24   C41   S    
C3    C30   S    
O11   H27   S    
C39   H45   S    
C11   C16   S    
C47   H65   S    
C4    C26   S    
C6    C27   S    
C21   H7    S    
C34   H22   S    
C45   H60   S    
C33   H23   S    
Cu1   O5    S    
Cu2   O2    S    
C2    C27   S    
C46   H57   S    
C20   C22   S    
C26   C30   S    
C40   H42   S    
Cu1   N2    S    
C47   C48   S    
Cu2   N1    S    
C30   H11   S    
C2    C5    S    
C37   H36   S    
C8    C29   T    
C3    C4    S    
C12   O3    A    
C19   O14   S    
C23   O6    A    
C9    C10   S    
C38   H35   S    
C15   C17   S    
C9    H12   S    
C26   C37   S    
C43   C44   S    
C36   H28   S    
C11   H2    S    
C25   O7    A    
Cu1   O3    S    
C3    C5    S    
C20   H10   S    
C46   H56   S    
C40   H43   S    
C42   H46   S    
C13   C17   S    
C43   H55   S    
C33   C34   S    
O9    H25   S    
C41   H50   S    
C36   H30   S    
C31   C32   S    
C5    C6    S    
C13   C33   S    
C35   H31   S    
C10   H1    S    
C45   H59   S    
C34   H20   S    
C20   N1    S    
C40   H41   S    
C21   C24   S    
C5    C47   S    
C17   O11   S    
C1    C14   S    
Cu1   O7    S    
C1    O1    A    
Cu2   O8    S    
C44   H53   S    
C21   N1    S    
C21   H8    S    
