data_mof_unit_4401.cif
_audit_creation_date              2013-03-05T15:45:35-0500
_audit_creation_method            fapswitch 2.2
_symmetry_space_group_name_H-M    P1
_symmetry_Int_Tables_number       1
_space_group_crystal_system       triclinic
_cell_length_a                    27.736848
_cell_length_b                    10.623896
_cell_length_c                    9.994342
_cell_angle_alpha                 88.949953
_cell_angle_beta                  89.991434
_cell_angle_gamma                 90.098728
_cell_volume                      2944.56763635

loop_
_atom_site_label
_atom_site_type_symbol
_atom_site_description
_atom_site_fract_x
_atom_site_fract_y
_atom_site_fract_z
_atom_type_partial_charge
O1    O     O_R   0.499990 0.319060 0.613040 -0.618179
O2    O     O_R   0.500010 0.319100 0.386900 -0.597357
C1    C     C_R   0.495238 0.262817 0.501063 0.949686
O3    O     O_R   0.428750 0.500000 0.613050 -0.628517
O4    O     O_R   0.428760 0.500040 0.386920 -0.612652
C2    C     C_R   0.406046 0.499821 0.500008 0.862751
Zn1   Zn    Zn3+2 0.499990 0.499970 0.650990 0.938265
Zn2   Zn    Zn3+2 0.500010 0.500030 0.349010 0.955667
O5    O     O_R   0.499990 0.680900 0.613100 -0.611997
O6    O     O_R   0.500010 0.680940 0.386960 -0.609419
O7    O     O_R   0.571240 0.499960 0.613080 -0.614626
O8    O     O_R   0.571250 0.500000 0.386950 -0.613797
C3    C     C_R   0.499039 0.737872 0.498383 0.949411
C4    C     C_R   0.593987 0.500099 0.500001 0.876307
C5    C     C_R   0.177772 0.387875 0.494830 0.505553
O9    O     O_2   0.202674 0.278873 0.492001 -0.555351
N1    N     N_R   0.201819 0.499922 0.498854 -0.356469
C6    C     C_R   0.178116 0.612282 0.502342 0.498230
C7    C     C_R   0.277964 0.521101 0.618358 -0.113932
C8    C     C_R   0.328040 0.520573 0.618994 -0.231275
C9    C     C_R   0.328183 0.477385 0.381086 -0.236174
C10   C     C_R   0.278142 0.477523 0.380813 -0.133408
C11   C     C_R   0.253111 0.499536 0.499345 0.329596
C12   C     C_R   0.101932 0.500525 0.498202 -0.053102
C13   C     C_R   0.127363 0.386008 0.494239 -0.022209
C14   C     C_R   0.102138 0.272446 0.491034 -0.138007
C15   C     C_R   0.127703 0.614754 0.502325 -0.016823
C16   C     C_R   0.353448 0.499036 0.500115 -0.026038
H1    H     H_    0.347043 0.461566 0.288214 0.157235
H2    H     H_    0.258754 0.461303 0.288668 0.136416
H3    H     H_    0.120935 0.183124 0.490317 0.189278
C17   C     C_R   0.646664 0.500723 0.499900 -0.044975
C18   C     C_R   0.974462 0.386063 0.482312 0.046277
C19   C     C_R   0.974784 0.616291 0.514115 0.046480
C20   C     C_R   0.949399 0.501283 0.498354 0.070689
C21   C     C_R   0.947435 0.275581 0.458693 -0.215977
C22   C     C_R   0.897477 0.277294 0.457098 -0.135781
C23   C     C_R   0.872569 0.389088 0.478273 -0.021899
C24   C     C_R   0.898323 0.501483 0.498677 -0.051617
C25   C     C_R   0.872874 0.614065 0.519434 -0.021412
C26   C     C_R   0.822452 0.612056 0.519647 0.504406
N2    N     N_R   0.798410 0.501821 0.499403 -0.358573
C27   C     C_R   0.822162 0.391431 0.478826 0.505083
C28   C     C_R   0.722089 0.492694 0.378781 -0.101821
C29   C     C_R   0.672014 0.492265 0.378734 -0.211903
C30   C     C_R   0.672074 0.509981 0.620887 -0.213561
C31   C     C_R   0.722158 0.510741 0.620505 -0.100883
C32   C     C_R   0.747088 0.501940 0.499559 0.321640
O10   O     O_2   0.796972 0.284380 0.459841 -0.550083
C33   C     C_R   0.025469 0.385018 0.489304 0.047098
C34   C     C_R   0.050857 0.500800 0.498100 0.069970
C35   C     C_R   0.025796 0.616841 0.506873 0.046858
C36   C     C_R   0.052178 0.271649 0.489005 -0.214930
H4    H     H_    0.653249 0.484988 0.284160 0.165725
H5    H     H_    0.741549 0.486000 0.285239 0.139389
H6    H     H_    0.878429 0.190109 0.438999 0.191599
H7    H     H_    0.963711 0.186086 0.438059 0.140001
H8    H     H_    0.035645 0.179878 0.490204 0.137644
O11   O     O_2   0.203356 0.720975 0.505283 -0.572729
C37   C     C_R   0.102800 0.728596 0.505234 -0.138058
H9    H     H_    0.346770 0.537889 0.711956 0.158427
H10   H     H_    0.258400 0.538053 0.710037 0.136888
H11   H     H_    0.121859 0.817708 0.505991 0.189930
C38   C     C_R   0.948065 0.727021 0.537876 -0.215990
C39   C     C_R   0.898098 0.725692 0.540136 -0.136110
O12   O     O_2   0.797541 0.719259 0.539002 -0.551382
C40   C     C_R   0.052833 0.729930 0.507084 -0.216050
H12   H     H_    0.964601 0.816411 0.558177 0.139962
H13   H     H_    0.653347 0.516859 0.715564 0.163245
H14   H     H_    0.879294 0.813037 0.558399 0.191387
H15   H     H_    0.741671 0.517718 0.713928 0.139285
H16   H     H_    0.036554 0.821866 0.505792 0.137937
C41   C     C_2   0.463597 0.930659 0.413868 -0.019070
C42   C     C_2   0.496514 0.871169 0.491447 -0.394963
H17   H     H_    0.524659 0.920555 0.544769 0.140821
C43   C     C_2   0.466183 0.067722 0.400502 -0.011265
C44   C     C_2   0.482153 0.132390 0.506345 -0.423544
H18   H     H_    0.485380 0.086963 0.604287 0.154948
C45   C     C_2   0.525889 0.577103 0.923413 -0.126516
N3    N     N_2   0.500520 0.501330 0.852150 -0.194107
H19   H     H_    0.550048 0.642420 0.872326 0.161435
H20   H     H_    0.475212 0.445576 0.899075 0.160655
C46   C     C_2   0.523096 0.582936 0.073473 -0.154123
N4    N     N_2   0.500540 0.501360 0.147810 -0.191149
H21   H     H_    0.542071 0.659024 0.121790 0.159540
H22   H     H_    0.485307 0.424690 0.103472 0.185808
C47   C     C_R   0.424438 0.863244 0.343095 0.140552
C48   C     C_R   0.378967 0.850475 0.403293 -0.180619
C49   C     C_R   0.341332 0.791885 0.335133 -0.103910
C50   C     C_R   0.348959 0.745484 0.206848 -0.119672
C51   C     C_R   0.394216 0.757730 0.146439 -0.132882
C52   C     C_R   0.431805 0.817221 0.213831 -0.068259
H23   H     H_    0.372670 0.886424 0.502475 0.144150
H24   H     H_    0.306304 0.781951 0.381947 0.183130
H25   H     H_    0.319843 0.699595 0.154528 0.132408
H26   H     H_    0.400124 0.721576 0.047230 0.128516
H27   H     H_    0.466603 0.827239 0.165666 0.118093
C53   C     C_R   0.451970 0.127130 0.270704 0.185333
C54   C     C_R   0.479334 0.105541 0.155175 -0.149739
C55   C     C_R   0.464301 0.154395 0.031230 -0.163895
C56   C     C_R   0.421765 0.224304 0.021808 -0.153686
C57   C     C_R   0.394439 0.246424 0.136484 -0.136646
C58   C     C_R   0.409481 0.198351 0.260845 -0.103850
H28   H     H_    0.512015 0.050075 0.161150 0.126611
H29   H     H_    0.485448 0.137420 0.942354 0.143046
H30   H     H_    0.410000 0.261410 0.925674 0.137134
H31   H     H_    0.361352 0.299745 0.128500 0.128051
H32   H     H_    0.387715 0.214618 0.348824 0.122412

loop_
_geom_bond_atom_site_label_1
_geom_bond_atom_site_label_2
_geom_bond_distance
_ccdc_geom_bond_type
C47   C48   1.402600 A    
C56   C57   1.397681 A    
C26   N2    1.364981 A    
C20   C24   1.416693 A    
C7    C8    1.388984 A    
C12   C15   1.408626 A    
C50   H25   1.082332 S    
C44   H18   1.087179 S    
Zn1   O7    2.012187 S    
C55   H29   1.082409 S    
N1    C11   1.422703 S    
C37   H11   1.083663 S    
C38   H12   1.076566 S    
C21   C22   1.385913 A    
N4    H22   1.024906 S    
C40   H16   1.076604 S    
C15   C37   1.394579 A    
C23   C24   1.408440 A    
O7    C4    1.294229 A    
C5    C13   1.398308 A    
C7    H10   1.082912 S    
C43   C53   1.485799 S    
C5    O9    1.350139 S    
C49   H24   1.082465 S    
C18   C21   1.415124 A    
C5    N1    1.364728 A    
C19   C20   1.420417 A    
C17   C29   1.404585 A    
C8    H9    1.083073 S    
O5    C3    1.286922 A    
C41   C47   1.486306 S    
C30   H13   1.083059 S    
C51   H26   1.082427 S    
C48   H23   1.083058 S    
C22   H6    1.083641 S    
C2    C16   1.458910 S    
C31   C32   1.397195 A    
C37   C40   1.386151 A    
C58   H32   1.083158 S    
C12   C34   1.416663 A    
C54   H28   1.083083 S    
C14   H3    1.083671 S    
O1    Zn1   1.965844 S    
C47   C52   1.404722 A    
O3    Zn1   2.012082 S    
C52   H27   1.082717 S    
C33   C34   1.420435 A    
C41   C42   1.348481 D    
C33   C36   1.415164 A    
C42   H17   1.085206 S    
C34   C35   1.420418 A    
C43   C44   1.346470 D    
O3    C2    1.293545 A    
C21   H7    1.076553 S    
C51   C52   1.397734 A    
C45   H19   1.084691 S    
C27   O10   1.350121 S    
C8    C16   1.403884 A    
C18   C33   1.416547 A    
C9    H1    1.081358 S    
O1    C1    1.284967 A    
C39   H14   1.083635 S    
C7    C11   1.397208 A    
C22   C23   1.394519 A    
C46   N4    1.291849 D    
Zn2   O8    2.012084 S    
C19   C38   1.415174 A    
N1    C6    1.364766 A    
C57   H31   1.081491 S    
N2    C32   1.423511 S    
C12   C13   1.408548 A    
C31   H15   1.082953 S    
C35   C40   1.415220 A    
N3    H20   1.025586 S    
C25   C26   1.398671 A    
C46   H21   1.084685 S    
C9    C16   1.403170 A    
O8    C4    1.294060 A    
C29   H4    1.083045 S    
C25   C39   1.394602 A    
C41   C43   1.461453 S    
N2    C27   1.364976 A    
C1    C44   1.431813 S    
C14   C36   1.385898 A    
C24   C25   1.408472 A    
C28   C29   1.388925 A    
C56   H30   1.082448 S    
Zn1   O5    1.952308 S    
C30   C31   1.389197 A    
C10   H2    1.082879 S    
Zn2   N4    2.010705 S    
C17   C30   1.404595 A    
O2    Zn2   1.952309 S    
C6    C15   1.398592 A    
C4    C17   1.461106 S    
O6    C3    1.277262 A    
O4    Zn2   2.012185 S    
C36   H8    1.076583 S    
C26   O12   1.350067 S    
C19   C35   1.416745 A    
C54   C55   1.398233 A    
C38   C39   1.386134 A    
O2    C1    1.285138 A    
C13   C14   1.394504 A    
C23   C27   1.398402 A    
C45   C46   1.504152 S    
C28   H5    1.082962 S    
C50   C51   1.397669 A    
O4    C2    1.293856 A    
C55   C56   1.397478 A    
C18   C20   1.420384 A    
C57   C58   1.399054 A    
C45   N3    1.292147 D    
C28   C32   1.397102 A    
C6    O11   1.350144 S    
C48   C49   1.398097 A    
C3    C42   1.418411 S    
Zn2   O6    1.965843 S    
C53   C54   1.404241 A    
C10   C11   1.396627 A    
C49   C50   1.398227 A    
C9    C10   1.387994 A    
C53   C58   1.404112 A    
Zn1   N3    2.010834 S    
