data_mof_unit_2014.cif
_audit_creation_date              2013-03-05T15:44:22-0500
_audit_creation_method            fapswitch 2.2
_symmetry_space_group_name_H-M    P1
_symmetry_Int_Tables_number       1
_space_group_crystal_system       triclinic
_cell_length_a                    19.047864
_cell_length_b                    10.949581
_cell_length_c                    18.890692
_cell_angle_alpha                 90.049774
_cell_angle_beta                  90.449017
_cell_angle_gamma                 89.976115
_cell_volume                      3939.83571344

loop_
_atom_site_label
_atom_site_type_symbol
_atom_site_description
_atom_site_fract_x
_atom_site_fract_y
_atom_site_fract_z
_atom_type_partial_charge
O1    O     O_R   0.784320 0.290430 0.830510 -0.519235
O2    O     O_R   0.215680 0.290430 0.169490 -0.516478
O3    O     O_R   0.284320 0.790430 0.830510 -0.516075
O4    O     O_R   0.715680 0.790430 0.169490 -0.517805
O5    O     O_R   0.762640 0.040960 0.825200 -0.503263
O6    O     O_R   0.237360 0.040960 0.174800 -0.499528
O7    O     O_R   0.262640 0.540960 0.825200 -0.499511
O8    O     O_R   0.737360 0.540960 0.174800 -0.504770
C1    C     C_R   0.727091 0.956678 0.853710 0.549833
C2    C     C_R   0.274654 0.959880 0.144624 0.549763
C3    C     C_R   0.225458 0.459680 0.855278 0.549976
C4    C     C_R   0.774528 0.459572 0.144732 0.549019
O9    O     O_R   0.667400 0.923970 0.829950 -0.523432
O10   O     O_R   0.332600 0.923970 0.170050 -0.523885
O11   O     O_R   0.167400 0.423970 0.829950 -0.524495
O12   O     O_R   0.832600 0.423970 0.170050 -0.524487
O13   O     O_R   0.553960 0.081340 0.821780 -0.491132
O14   O     O_R   0.446040 0.081340 0.178220 -0.492579
O15   O     O_R   0.053960 0.581340 0.821780 -0.493612
O16   O     O_R   0.946040 0.581340 0.178220 -0.494268
C5    C     C_R   0.530604 0.177618 0.851188 0.563338
C6    C     C_R   0.469948 0.177697 0.149166 0.562865
C7    C     C_R   0.030253 0.677720 0.850978 0.562500
C8    C     C_R   0.969781 0.677631 0.149042 0.562604
O17   O     O_R   0.543180 0.283240 0.826740 -0.506910
O18   O     O_R   0.456820 0.283240 0.173260 -0.507702
O19   O     O_R   0.043180 0.783240 0.826740 -0.506321
O20   O     O_R   0.956820 0.783240 0.173260 -0.504650
O21   O     O_R   0.678360 0.375140 0.822710 -0.507642
O22   O     O_R   0.321640 0.375140 0.177290 -0.507186
O23   O     O_R   0.178360 0.875140 0.822710 -0.507364
O24   O     O_R   0.821640 0.875140 0.177290 -0.504332
C9    C     C_R   0.738206 0.364042 0.852754 0.547616
C10   C     C_R   0.261803 0.363899 0.147226 0.548410
C11   C     C_R   0.238194 0.864103 0.852722 0.548369
C12   C     C_R   0.763266 0.857407 0.144984 0.549729
O25   O     O_R   0.785050 0.289380 0.670560 -0.433245
O26   O     O_R   0.214950 0.289380 0.329440 -0.433710
O27   O     O_R   0.285050 0.789380 0.670560 -0.433781
O28   O     O_R   0.714950 0.789380 0.329440 -0.432096
O29   O     O_R   0.763320 0.039990 0.676930 -0.443653
O30   O     O_R   0.236680 0.039990 0.323070 -0.443580
O31   O     O_R   0.263320 0.539990 0.676930 -0.443624
O32   O     O_R   0.736680 0.539990 0.323070 -0.443090
C13   C     C_R   0.726618 0.957602 0.646158 0.581418
C14   C     C_R   0.273379 0.957663 0.353852 0.582469
C15   C     C_R   0.226621 0.457606 0.646157 0.582453
C16   C     C_R   0.773382 0.457671 0.353856 0.583012
O33   O     O_R   0.668130 0.922920 0.670000 -0.526572
O34   O     O_R   0.331870 0.922920 0.330000 -0.525271
O35   O     O_R   0.168130 0.422920 0.670000 -0.525204
O36   O     O_R   0.831870 0.422920 0.330000 -0.525115
O37   O     O_R   0.554640 0.080370 0.673500 -0.494271
O38   O     O_R   0.445360 0.080370 0.326500 -0.494191
O39   O     O_R   0.054640 0.580370 0.673500 -0.494305
O40   O     O_R   0.945360 0.580370 0.326500 -0.494317
C17   C     C_R   0.530613 0.176496 0.644383 0.586637
C18   C     C_R   0.469391 0.176515 0.355606 0.586714
C19   C     C_R   0.030607 0.676495 0.644387 0.586573
C20   C     C_R   0.969385 0.676517 0.355610 0.586397
O41   O     O_R   0.543920 0.282180 0.666790 -0.502945
O42   O     O_R   0.456080 0.282180 0.333210 -0.502775
O43   O     O_R   0.043920 0.782180 0.666790 -0.502745
O44   O     O_R   0.956080 0.782180 0.333210 -0.503055
O45   O     O_R   0.679040 0.374160 0.674430 -0.522122
O46   O     O_R   0.320960 0.374160 0.325570 -0.521662
O47   O     O_R   0.179040 0.874160 0.674430 -0.521809
O48   O     O_R   0.820960 0.874160 0.325570 -0.521032
C21   C     C_R   0.739373 0.363480 0.646620 0.574271
C22   C     C_R   0.260618 0.363532 0.353374 0.574219
C23   C     C_R   0.239372 0.863475 0.646618 0.574215
C24   C     C_R   0.760621 0.863526 0.353378 0.576094
Cr1   Cr    Cr6+3 0.769270 0.163730 0.750710 1.118468
Cr2   Cr    Cr6+3 0.230730 0.163730 0.249290 1.120181
Cr3   Cr    Cr6+3 0.269270 0.663730 0.750710 1.120223
Cr4   Cr    Cr6+3 0.730730 0.663730 0.249290 1.118830
Cr5   Cr    Cr6+3 0.612620 0.009790 0.748780 1.065379
Cr6   Cr    Cr6+3 0.387380 0.009790 0.251220 1.066757
Cr7   Cr    Cr6+3 0.112620 0.509790 0.748780 1.064938
Cr8   Cr    Cr6+3 0.887380 0.509790 0.251220 1.063683
Cr9   Cr    Cr6+3 0.614160 0.322500 0.747710 1.058977
Cr10  Cr    Cr6+3 0.385840 0.322500 0.252290 1.060552
Cr11  Cr    Cr6+3 0.114160 0.822500 0.747710 1.060918
Cr12  Cr    Cr6+3 0.885840 0.822500 0.252290 1.062033
O49   O     O_3   0.665350 0.165340 0.749070 -0.286918
O50   O     O_3   0.334650 0.165340 0.250930 -0.288586
O51   O     O_3   0.165350 0.665340 0.749070 -0.288262
O52   O     O_3   0.834650 0.665340 0.250930 -0.290028
C25   C     C_2   0.499414 0.168298 0.921636 -0.107992
C26   C     C_2   0.502673 0.169748 0.079396 -0.103037
C27   C     C_2   0.998403 0.669393 0.921173 -0.104285
C28   C     C_2   0.001685 0.669178 0.078871 -0.102840
C29   C     C_2   0.495568 0.069549 0.038921 -0.159248
C30   C     C_2   0.512023 0.070370 0.962895 -0.162313
C31   C     C_2   0.992263 0.569768 0.038082 -0.163552
C32   C     C_2   0.007669 0.569822 0.961793 -0.163962
H1    H     H_    0.524304 0.252991 0.057122 0.108628
H2    H     H_    0.474195 0.248915 0.943377 0.107499
H3    H     H_    0.024391 0.751618 0.056729 0.109093
H4    H     H_    0.975838 0.751935 0.943454 0.112376
C33   C     C_R   0.691424 0.453162 0.963892 -0.142291
C34   C     C_R   0.308500 0.453277 0.036191 -0.135379
C35   C     C_R   0.191061 0.951661 0.964039 -0.135255
C36   C     C_R   0.800536 0.970571 0.037348 -0.138765
H5    H     H_    0.641137 0.471988 0.939059 0.131436
H6    H     H_    0.358751 0.472193 0.061079 0.134104
H7    H     H_    0.140368 0.968276 0.939514 0.134683
H8    H     H_    0.837349 0.024892 0.067963 0.128828
C37   C     C_R   0.698057 0.464821 0.037111 -0.145091
C38   C     C_R   0.301833 0.465355 0.962998 -0.135673
C39   C     C_R   0.197920 0.963661 0.037210 -0.135795
C40   C     C_R   0.795550 0.987095 0.964453 -0.131815
H9    H     H_    0.654107 0.498687 0.067424 0.124506
H10   H     H_    0.345698 0.499672 0.932784 0.130029
H11   H     H_    0.153669 0.995590 0.067784 0.129808
H12   H     H_    0.826736 0.058176 0.940226 0.137680
C41   C     C_R   0.761243 0.431790 0.070572 0.034515
C42   C     C_R   0.238750 0.431977 0.929436 0.033370
C43   C     C_R   0.261646 0.932933 0.070323 0.033398
C44   C     C_R   0.747204 0.917745 0.924392 0.030555
C45   C     C_R   0.818203 0.392148 0.030003 -0.132979
C46   C     C_R   0.181860 0.391919 0.969915 -0.129650
C47   C     C_R   0.319031 0.896204 0.029411 -0.129235
C48   C     C_R   0.707374 0.827274 0.956854 -0.136750
C49   C     C_R   0.812701 0.385931 0.957585 -0.131330
C50   C     C_R   0.187357 0.385456 0.042324 -0.127350
C51   C     C_R   0.313177 0.889424 0.956995 -0.127736
C52   C     C_R   0.711266 0.812692 0.029038 -0.125326
H13   H     H_    0.857847 0.353923 0.928324 0.137479
H14   H     H_    0.142255 0.353196 0.071503 0.139451
H15   H     H_    0.358528 0.859289 0.927396 0.140006
H16   H     H_    0.678731 0.742570 0.052371 0.139493
C53   C     C_R   0.748559 0.411026 0.924064 0.032401
C54   C     C_R   0.251436 0.410747 0.075921 0.031900
C55   C     C_R   0.248499 0.911663 0.923896 0.031535
C56   C     C_R   0.756617 0.885928 0.070165 0.033811
C57   C     C_R   0.501858 0.281165 0.535850 -0.106416
C58   C     C_R   0.498291 0.281158 0.464182 -0.106813
C59   C     C_R   0.001772 0.781161 0.535874 -0.106459
C60   C     C_R   0.998206 0.781167 0.464205 -0.106917
H17   H     H_    0.505466 0.369019 0.561830 0.218964
H18   H     H_    0.494762 0.368993 0.438252 0.219029
H19   H     H_    0.005336 0.869013 0.561862 0.219002
H20   H     H_    0.994641 0.869006 0.438284 0.218867
C61   C     C_R   0.493513 0.170702 0.427420 0.033410
C62   C     C_R   0.506520 0.170699 0.572549 0.033395
C63   C     C_R   0.993486 0.670715 0.427431 0.033431
C64   C     C_R   0.006494 0.670691 0.572560 0.033411
C65   C     C_R   0.495382 0.059562 0.463637 -0.106929
C66   C     C_R   0.504532 0.059555 0.536260 -0.107327
C67   C     C_R   0.995398 0.559568 0.463638 -0.106916
C68   C     C_R   0.004552 0.559555 0.536260 -0.107285
H21   H     H_    0.488140 0.974009 0.436128 0.208346
H22   H     H_    0.511673 0.973995 0.563712 0.208380
H23   H     H_    0.988193 0.474015 0.436120 0.208419
H24   H     H_    0.011735 0.473997 0.563703 0.208383
C69   C     C_R   0.815645 0.400189 0.543368 0.195946
C70   C     C_R   0.184340 0.400324 0.456624 0.195905
C71   C     C_R   0.315640 0.900139 0.543358 0.195921
C72   C     C_R   0.684339 0.900375 0.456618 0.195561
C73   C     C_R   0.819512 0.403980 0.470396 -0.152138
C74   C     C_R   0.180480 0.403971 0.529594 -0.152161
C75   C     C_R   0.319503 0.903929 0.470387 -0.152170
C76   C     C_R   0.680463 0.904037 0.529587 -0.152047
H25   H     H_    0.870799 0.392865 0.447028 0.178574
H26   H     H_    0.129197 0.392868 0.552951 0.178617
H27   H     H_    0.370788 0.892794 0.447018 0.178592
H28   H     H_    0.629170 0.893004 0.552935 0.178592
C77   C     C_R   0.760102 0.429186 0.428192 -0.024957
C78   C     C_R   0.239895 0.429051 0.571818 -0.024903
C79   C     C_R   0.260094 0.929159 0.428185 -0.024906
C80   C     C_R   0.739880 0.929034 0.571821 -0.024500
C81   C     C_R   0.694777 0.449973 0.460564 0.186458
C82   C     C_R   0.305217 0.449819 0.539480 0.186550
C83   C     C_R   0.194770 0.949948 0.460559 0.186537
C84   C     C_R   0.805214 0.949707 0.539501 0.186663
C85   C     C_R   0.690452 0.442170 0.534261 -0.156367
C86   C     C_R   0.309535 0.442159 0.465779 -0.156293
C87   C     C_R   0.190449 0.942148 0.534256 -0.156285
C88   C     C_R   0.809551 0.942076 0.465803 -0.156500
C89   C     C_R   0.749873 0.412736 0.575647 -0.024845
C90   C     C_R   0.250112 0.412852 0.424365 -0.024759
C91   C     C_R   0.249870 0.912713 0.575641 -0.024726
C92   C     C_R   0.750123 0.912840 0.424372 -0.025165
H29   H     H_    0.476974 0.984634 0.061576 0.145779
H30   H     H_    0.535672 0.988470 0.941003 0.157362
H31   H     H_    0.972405 0.485757 0.060738 0.143498
H32   H     H_    0.027399 0.485729 0.938995 0.143762
N1    N     N_R   0.632325 0.473900 0.419808 0.083673
O53   O     O_R   0.619746 0.413431 0.361733 -0.331155
O54   O     O_R   0.583727 0.544610 0.445190 -0.286222
N2    N     N_R   0.367669 0.473593 0.580272 0.083644
O55   O     O_R   0.416260 0.544292 0.555009 -0.286390
O56   O     O_R   0.380239 0.413049 0.638266 -0.331830
N3    N     N_R   0.132314 0.973855 0.419804 0.083739
O57   O     O_R   0.083694 0.044496 0.445201 -0.286376
O58   O     O_R   0.119748 0.913404 0.361722 -0.331590
N4    N     N_R   0.867659 0.973333 0.580323 0.083370
O59   O     O_R   0.880235 0.912608 0.638250 -0.331905
O60   O     O_R   0.916130 0.044565 0.555281 -0.285839
H33   H     H_    0.639357 0.450398 0.558598 0.176997
H34   H     H_    0.360629 0.450355 0.441452 0.177171
H35   H     H_    0.139355 0.950379 0.558596 0.177088
H36   H     H_    0.860658 0.950222 0.441497 0.176844
H37   H     H_    0.868145 0.368130 0.053868 0.128665
H38   H     H_    0.131957 0.367782 0.945998 0.130309
H39   H     H_    0.369466 0.874719 0.053029 0.131124
H40   H     H_    0.670354 0.771954 0.927045 0.133402
N5    N     N_R   0.878761 0.380816 0.583863 0.084161
O61   O     O_R   0.925421 0.302571 0.562433 -0.282506
O62   O     O_R   0.891265 0.445262 0.640520 -0.338942
N6    N     N_R   0.121231 0.381025 0.416102 0.083953
O63   O     O_R   0.074643 0.302647 0.437372 -0.282574
O64   O     O_R   0.108732 0.445463 0.359500 -0.339027
N7    N     N_R   0.378755 0.880735 0.583848 0.084065
O65   O     O_R   0.425392 0.802441 0.562424 -0.282598
O66   O     O_R   0.391278 0.945185 0.640499 -0.338951
N8    N     N_R   0.621235 0.881118 0.416084 0.083919
O67   O     O_R   0.574638 0.802737 0.437330 -0.282517
O68   O     O_R   0.608753 0.945583 0.359488 -0.337015

loop_
_geom_bond_atom_site_label_1
_geom_bond_atom_site_label_2
_geom_bond_distance
_ccdc_geom_bond_type
C18   O42   1.257311 A    
Cr11  O51   1.977616 S    
O4    C12   1.257559 A    
C69   N5    1.435677 S    
C29   C30   1.472432 S    
N3    O58   1.301548 A    
O39   C19   1.271414 A    
O20   Cr12  2.066792 S    
C46   H38   1.082023 S    
O37   Cr5   1.953422 S    
C31   C32   1.472967 S    
C40   H12   1.083219 S    
C43   C47   1.402207 A    
C38   C42   1.402641 A    
Cr7   O51   1.977644 S    
C18   C61   1.430355 S    
O1    C9    1.265847 A    
C5    C25   1.465292 S    
O7    C3    1.274449 A    
O5    C1    1.267809 A    
C26   C29   1.343008 D    
C73   H25   1.081941 S    
C72   C76   1.381542 A    
C35   C39   1.393508 A    
C51   C55   1.398551 A    
C71   C75   1.381675 A    
O25   C21   1.270317 A    
C52   C56   1.407779 A    
C42   C46   1.401919 A    
C9    C53   1.453592 S    
O45   C21   1.272632 A    
C64   C68   1.396649 A    
O34   Cr6   2.065301 S    
C10   C54   1.453781 S    
C58   C61   1.396762 A    
C33   C37   1.393699 A    
O21   C9    1.275235 A    
O8    Cr4   1.950005 S    
O23   Cr11  1.951148 S    
C14   C79   1.462743 S    
C39   C43   1.402162 A    
O30   C14   1.278048 A    
C25   C30   1.346568 D    
O32   Cr4   1.947263 S    
C65   H21   1.079239 S    
O44   Cr12  2.071303 S    
C1    O9    1.270636 A    
C2    C43   1.453409 S    
C27   C32   1.344557 D    
C74   H26   1.081949 S    
C3    O11   1.263548 A    
C22   C90   1.460486 S    
O11   Cr7   2.073545 S    
C68   H24   1.079222 S    
O28   Cr4   2.068538 S    
C88   C92   1.407963 A    
C67   C68   1.381572 A    
C16   C77   1.462747 S    
N4    O59   1.301532 A    
C20   C63   1.430353 S    
O27   Cr3   2.070455 S    
C27   H4    1.086550 S    
O3    Cr3   2.066211 S    
Cr4   O52   1.979539 S    
C26   H1    1.086876 S    
O2    Cr2   2.067810 S    
O8    C4    1.273939 A    
C48   C52   1.374479 A    
C73   C77   1.406556 A    
C19   C64   1.430455 S    
O2    C10   1.266039 A    
C60   H20   1.081513 S    
O42   Cr10  2.071303 S    
Cr5   O49   1.977644 S    
O18   Cr10  2.066792 S    
C66   H22   1.079228 S    
C62   C66   1.396642 A    
C17   C62   1.430460 S    
C48   H40   1.083867 S    
O17   Cr9   2.067568 S    
C69   C89   1.404269 A    
C12   C56   1.452284 S    
C60   C63   1.396780 A    
C83   N3    1.436054 S    
O6    Cr2   1.950005 S    
C87   C91   1.407977 A    
C7    O19   1.268125 A    
C70   N6    1.435670 S    
O24   Cr12  1.951575 S    
O9    Cr5   2.073545 S    
C59   C64   1.397098 A    
O30   Cr2   1.947263 S    
C33   H5    1.083050 S    
C71   N7    1.435678 S    
O22   C10   1.275385 A    
O26   C22   1.270481 A    
C37   C41   1.402500 A    
O48   Cr12  1.946385 S    
C4    O12   1.263300 A    
C57   C62   1.397117 A    
C76   H28   1.081955 S    
C24   C92   1.460504 S    
N5    O61   1.300857 A    
C58   H18   1.081515 S    
C11   C55   1.453339 S    
C36   C40   1.391520 A    
C50   H14   1.083836 S    
O16   Cr8   1.946974 S    
C85   H33   1.083315 S    
O7    Cr3   1.951761 S    
O26   Cr2   2.068538 S    
O27   C23   1.270305 A    
Cr10  O50   1.978285 S    
C25   H2    1.086626 S    
C79   C83   1.409083 A    
C28   C31   1.344363 D    
O13   C5    1.272936 A    
O40   C20   1.271070 A    
C44   C48   1.393542 A    
C83   C87   1.397964 A    
O12   Cr8   2.072733 S    
N2    O56   1.301552 A    
O41   Cr9   2.070976 S    
C46   C50   1.372919 A    
O15   C7    1.274499 A    
N7    O65   1.300864 A    
C34   C54   1.405493 A    
C45   C49   1.372848 A    
C49   H13   1.083837 S    
C84   N4    1.435943 S    
O46   Cr10  1.946385 S    
O39   Cr7   1.953422 S    
C84   C88   1.397737 A    
C47   C51   1.373587 A    
C74   C78   1.406469 A    
O3    C11   1.266237 A    
C75   H27   1.081935 S    
O48   C24   1.272841 A    
C33   C53   1.405392 A    
O13   Cr5   1.945634 S    
C13   O33   1.263621 A    
C6    C26   1.464889 S    
C47   H39   1.081931 S    
C59   H19   1.081520 S    
O47   Cr11  1.947382 S    
Cr2   O50   1.979539 S    
O15   Cr7   1.945634 S    
C70   C90   1.404260 A    
O35   Cr7   2.063703 S    
Cr1   O49   1.979525 S    
C86   C90   1.407893 A    
Cr3   O51   1.979525 S    
O14   Cr6   1.946974 S    
N6    O64   1.301931 A    
O21   Cr9   1.951148 S    
C31   H31   1.084411 S    
O28   C24   1.270507 A    
C67   H23   1.079232 S    
C57   H17   1.081507 S    
C86   H34   1.083327 S    
C2    O10   1.263026 A    
C8    C28   1.465390 S    
C8    O20   1.268096 A    
C7    C27   1.465465 S    
C34   C38   1.393894 A    
C41   C45   1.401757 A    
C13   C80   1.462325 S    
C69   C73   1.381696 A    
C38   H10   1.083149 S    
C36   H8    1.083221 S    
C15   C78   1.462365 S    
C75   C79   1.406553 A    
O31   Cr3   1.945643 S    
C40   C44   1.409259 A    
O38   C18   1.271057 A    
C49   C53   1.398976 A    
C5    O17   1.269289 A    
C52   H16   1.083103 S    
O37   C17   1.271417 A    
O22   Cr10  1.951575 S    
C36   C56   1.397470 A    
O14   C6    1.275590 A    
C19   O43   1.257073 A    
C82   C86   1.397781 A    
C30   H30   1.086307 S    
C87   H35   1.083320 S    
C88   H36   1.083334 S    
C21   C89   1.460820 S    
O6    C2    1.273851 A    
C15   O35   1.263693 A    
C59   C60   1.355044 A    
O24   C12   1.278981 A    
C17   O41   1.257064 A    
C78   C82   1.409052 A    
C37   H9    1.083104 S    
C57   C58   1.355038 A    
C14   O34   1.263434 A    
O25   Cr1   2.070455 S    
O40   Cr8   1.952809 S    
N8    O68   1.301928 A    
C20   O44   1.257291 A    
C35   H7    1.083087 S    
O1    Cr1   2.066211 S    
N2    O55   1.300711 A    
C51   H15   1.083860 S    
O19   Cr11  2.067568 S    
Cr8   O52   1.976931 S    
O29   C13   1.278160 A    
C65   C66   1.381575 A    
Cr6   O50   1.976931 S    
N8    O67   1.300863 A    
O46   C22   1.272867 A    
Cr12  O52   1.978285 S    
C85   C89   1.407973 A    
C63   C67   1.396872 A    
O23   C11   1.274699 A    
C81   N1    1.436041 S    
N5    O62   1.301928 A    
O33   Cr5   2.063703 S    
C34   H6    1.083071 S    
O47   C23   1.272638 A    
C72   N8    1.435656 S    
O10   Cr6   2.072733 S    
O5    Cr1   1.951761 S    
N1    O53   1.301597 A    
O16   C8    1.274858 A    
C35   C55   1.405667 A    
O4    Cr4   2.067810 S    
N7    O66   1.301929 A    
C76   C80   1.406450 A    
C70   C74   1.381538 A    
O29   Cr1   1.945643 S    
N3    O57   1.300718 A    
C80   C84   1.408927 A    
C45   H37   1.081960 S    
C16   O36   1.263433 A    
C61   C65   1.396896 A    
N6    O63   1.300864 A    
C50   C54   1.398967 A    
C39   H11   1.083172 S    
C6    O18   1.267225 A    
O43   Cr11  2.070976 S    
C1    C44   1.450586 S    
C77   C81   1.409079 A    
O45   Cr9   1.947382 S    
N4    O60   1.301007 A    
C4    C41   1.453615 S    
C71   C91   1.404275 A    
C81   C85   1.397956 A    
O36   Cr8   2.065301 S    
C3    C42   1.453859 S    
O31   C15   1.278111 A    
C32   H32   1.084481 S    
C72   C92   1.404282 A    
Cr9   O49   1.977616 S    
O32   C16   1.278042 A    
C28   H3    1.086596 S    
C82   N2    1.436052 S    
N1    O54   1.300753 A    
O38   Cr6   1.952809 S    
C23   C91   1.460814 S    
C29   H29   1.084638 S    
