data_mof_unit_1199.cif
_audit_creation_date              2012-12-11T16:18:15-0500
_audit_creation_method            fapswitch 2.2
_symmetry_space_group_name_H-M    P1
_symmetry_Int_Tables_number       1
_space_group_crystal_system       triclinic
_cell_length_a                    14.05
_cell_length_b                    14.04072
_cell_length_c                    30.0809
_cell_angle_alpha                 96.998745
_cell_angle_beta                  97.093091
_cell_angle_gamma                 61.34396
_cell_volume                      5154.04251669

loop_
_atom_site_label
_atom_site_type_symbol
_atom_type_description
_atom_site_fract_x
_atom_site_fract_y
_atom_site_fract_z
_atom_type_partial_charge
Br1   Br    Br    0.208193 0.183828 0.195604 -0.552474
Br2   Br    Br    0.580222 0.407473 0.699246 -0.516036
Br3   Br    Br    0.813449 0.526726 0.092122 -0.483334
Br4   Br    Br    0.933758 0.453318 0.318781 -0.493115
C1    C     C_R   0.385559 0.710840 0.442233 0.539362
C2    C     C_R   0.757269 0.282036 0.373214 -0.187340
C3    C     C_R   0.788178 0.257374 0.329490 -0.172837
C4    C     C_R   0.398543 0.380952 0.426621 0.543880
C5    C     C_R   0.832627 0.314007 0.312524 0.007391
C6    C     C_R   0.853170 0.391133 0.340105 0.177560
C7    C     C_R   0.814088 0.422899 0.383253 0.271998
C8    C     C_R   0.828770 0.394004 0.159619 -0.054919
C9    C     C_R   0.849355 0.390599 0.115047 0.165684
C10   C     C_R   0.908786 0.195882 0.108133 -0.143924
C11   C     C_R   0.886925 0.200753 0.152380 -0.118026
C12   C     C_R   0.343977 0.397816 0.222248 -0.134289
C13   C     C_R   0.851879 0.298571 0.178566 0.019570
C14   C     C_1   0.846674 0.299779 0.225629 0.016835
C15   C     C_1   0.842790 0.303244 0.265347 0.033998
C16   C     C_R   0.709388 0.406029 0.442124 0.558673
C17   C     C_R   0.896203 0.289169 0.089568 0.037019
C18   C     C_R   0.362645 0.770348 0.401956 -0.024172
C19   C     C_R   0.435956 0.803220 0.390495 -0.124934
C20   C     C_R   0.426885 0.837152 0.347568 0.265611
C21   C     C_R   0.345652 0.834810 0.315841 0.036811
C22   C     C_R   0.267231 0.811350 0.328384 -0.161727
C23   C     C_R   0.355025 0.406521 0.269036 -0.114489
C24   C     C_R   0.274944 0.780242 0.371311 -0.141467
C25   C     C_R   0.250383 0.847459 0.155981 0.281742
C26   C     C_R   0.233107 0.868178 0.110503 -0.104291
C27   C     C_R   0.386661 0.904846 0.118144 -0.109605
C28   C     C_R   0.389729 0.711639 0.568217 0.550585
C29   C     C_R   0.405414 0.882258 0.163128 -0.124219
C30   C     C_R   0.335605 0.856898 0.182306 0.057822
C31   C     C_1   0.344832 0.850322 0.229764 0.038486
C32   C     C_1   0.347120 0.845372 0.269369 0.030298
C33   C     C_R   0.297436 0.902605 0.091971 -0.014134
C34   C     C_R   0.323827 0.348939 0.293671 0.008554
C35   C     C_R   0.364111 0.360221 0.591318 -0.063321
C36   C     C_R   0.432086 0.266169 0.614107 -0.100695
C37   C     C_R   0.409135 0.255448 0.656493 0.249053
C38   C     C_R   0.318421 0.340458 0.676585 0.045450
C39   C     C_R   0.243092 0.428689 0.652025 0.234402
C40   C     C_R   0.402232 0.382738 0.552314 0.560452
C41   C     C_R   0.267265 0.439140 0.609737 -0.114594
C42   C     C_R   0.212227 0.405051 0.832381 -0.116037
C43   C     C_R   0.206203 0.388778 0.876529 -0.124742
C44   C     C_R   0.390193 0.238849 0.876990 -0.124503
C45   C     C_R   0.301469 0.331608 0.199903 0.050196
C46   C     C_R   0.396030 0.255496 0.832893 -0.109970
C47   C     C_R   0.305733 0.335994 0.810178 0.033073
C48   C     C_1   0.306328 0.341118 0.763136 0.000454
C49   C     C_1   0.309306 0.341727 0.723540 0.067750
C50   C     C_R   0.293468 0.302361 0.898552 0.021185
C51   C     C_1   0.761606 0.376643 0.612533 0.008492
C52   C     C_R   0.713302 0.407589 0.568449 0.555805
C53   C     C_R   0.918589 0.298737 0.717631 -0.153561
C54   C     C_R   0.940009 0.283415 0.763515 -0.107534
C55   C     C_R   0.749486 0.340987 0.770362 -0.083475
C56   C     C_1   0.295484 0.318862 0.151794 0.002752
C57   C     C_R   0.727496 0.356374 0.724396 0.181525
C58   C     C_R   0.812450 0.335724 0.697952 0.041943
C59   C     C_R   0.855418 0.305249 0.789970 -0.006739
C60   C     C_1   0.878440 0.293311 0.837415 -0.057207
C61   C     C_1   0.789820 0.355651 0.651100 -0.019520
C62   C     C_1   0.905939 0.282783 0.876772 -0.003094
C63   C     C_1   0.374899 0.761255 0.613116 -0.004094
C64   C     C_1   0.364095 0.363414 0.381189 -0.006415
C65   C     C_R   0.248234 0.888748 0.714639 -0.104820
C66   C     C_R   0.232582 0.905872 0.761041 0.288121
C67   C     C_1   0.342210 0.354468 0.341564 -0.049123
C68   C     C_R   0.426962 0.789281 0.776557 -0.153793
C69   C     C_R   0.440755 0.770235 0.730538 -0.109593
C70   C     C_R   0.351554 0.820110 0.699537 -0.003163
C71   C     C_R   0.323479 0.856664 0.791870 0.053852
C72   C     C_1   0.309980 0.878294 0.839402 -0.004451
C73   C     C_1   0.364120 0.792352 0.652213 -0.046370
C74   C     C_1   0.292052 0.905056 0.878363 0.006230
C75   C     C_R   0.950186 0.273128 0.048124 0.571063
C76   C     C_R   0.279931 0.283716 0.271555 -0.058381
C77   C     C_R   0.275090 0.269846 0.065534 0.552905
C78   C     C_1   0.288540 0.301356 0.111764 0.028966
C79   C     C_R   0.260531 0.954660 0.049128 0.553743
C80   C     C_R   0.952178 0.269245 0.922110 0.548705
C81   C     C_R   0.276103 0.266203 0.939364 0.538427
C82   C     C_R   0.261335 0.951141 0.922787 0.547851
C83   C     C_R   0.268223 0.274975 0.224609 0.187439
C84   C     C_3   0.082786 0.909654 0.180906 -0.015517
C85   C     C_3   0.015522 0.880755 0.207162 -0.357648
C86   C     C_3   0.464028 0.975344 0.342733 -0.012915
C87   C     C_3   0.544573 0.005505 0.327305 -0.361698
C88   C     C_3   0.068772 0.479855 0.664404 -0.016881
C89   C     C_R   0.765390 0.367629 0.400035 -0.002605
C90   C     C_3   0.969987 0.565031 0.688176 -0.362136
C91   C     C_3   0.449507 0.086520 0.673064 -0.018409
C92   C     C_3   0.525193 0.992130 0.701388 -0.359773
C93   C     C_3   0.047896 0.957732 0.753176 -0.013691
C94   C     C_3   0.955814 0.991805 0.783274 -0.353962
C95   C     C_3   0.743434 0.607087 0.395119 0.037149
C96   C     C_3   0.749004 0.697671 0.426785 -0.347269
Cr1   Cr    Cr6+3 0.581000 0.584320 0.508140 1.020677
Cr2   Cr    Cr6+3 0.339110 0.576430 0.496080 1.037330
Cr3   Cr    Cr6+3 0.579910 0.339270 0.495810 1.025213
Cr4   Cr    Cr6+3 0.082090 0.079210 0.982490 1.030248
Cr5   Cr    Cr6+3 0.082460 0.324610 0.994920 1.074053
Cr6   Cr    Cr6+3 0.323630 0.087860 0.996130 1.036689
H1    H     H_    0.256150 0.238880 0.290632 0.146496
H2    H     H_    0.437938 0.930781 0.104757 0.153317
H3    H     H_    0.130592 0.439105 0.892207 0.135249
H4    H     H_    0.142192 0.467809 0.814904 0.114763
H5    H     H_    0.212951 0.511699 0.592533 0.154370
H6    H     H_    0.506756 0.203759 0.600485 0.159827
H7    H     H_    0.468897 0.202069 0.815793 0.124396
H8    H     H_    0.458751 0.171880 0.893064 0.133596
H9    H     H_    0.984427 0.282925 0.697644 0.101359
H10   H     H_    0.369863 0.441496 0.203524 0.128821
H11   H     H_    0.022345 0.255681 0.778487 0.141716
H12   H     H_    0.902277 0.127318 0.166824 0.101400
H13   H     H_    0.683979 0.357945 0.790763 0.144282
H14   H     H_    0.180264 0.927555 0.690253 0.096814
H15   H     H_    0.496865 0.751038 0.800208 0.122121
H16   H     H_    0.520816 0.715879 0.719104 0.141423
H17   H     H_    0.389479 0.456886 0.286035 0.125541
H18   H     H_    0.798287 0.470536 0.179940 0.159405
H19   H     H_    0.719743 0.238752 0.384800 0.151010
H20   H     H_    0.037568 0.936632 0.147890 0.124578
H21   H     H_    0.092196 0.978079 0.200233 0.155292
H22   H     H_    0.057901 0.854332 0.240553 0.155717
H23   H     H_    0.942860 0.117007 0.089606 0.134753
H24   H     H_    0.935043 0.952971 0.212051 0.094885
H25   H     H_    0.002977 0.813891 0.188496 0.181549
H26   H     H_    0.454165 0.001591 0.379103 0.129017
H27   H     H_    0.384553 0.020428 0.323181 0.141933
H28   H     H_    0.554741 0.981821 0.290911 0.168277
H29   H     H_    0.514031 0.094751 0.333028 0.105053
H30   H     H_    0.624643 0.963012 0.346468 0.158792
H31   H     H_    0.095461 0.400315 0.678554 0.112213
H32   H     H_    0.044077 0.473981 0.627941 0.132244
H33   H     H_    0.939635 0.645377 0.674450 0.160498
H34   H     H_    0.773142 0.197080 0.308272 0.125394
H35   H     H_    0.904330 0.541241 0.683059 0.105508
H36   H     H_    0.992068 0.571621 0.724757 0.156399
H37   H     H_    0.453432 0.055359 0.637089 0.124044
H38   H     H_    0.365179 0.118041 0.683115 0.118114
H39   H     H_    0.520996 0.020364 0.737580 0.157329
H40   H     H_    0.500562 0.927135 0.695476 0.104831
H41   H     H_    0.610189 0.958184 0.692182 0.160221
H42   H     H_    0.075851 0.870540 0.741386 0.137388
H43   H     H_    0.015454 0.008668 0.723904 0.140092
H44   H     H_    0.924193 0.078653 0.795349 0.175559
H45   H     H_    0.165542 0.863592 0.090586 0.133410
H46   H     H_    0.888639 0.980471 0.764205 0.104437
H47   H     H_    0.985612 0.941481 0.812672 0.163317
H48   H     H_    0.661048 0.614209 0.395331 0.139451
H49   H     H_    0.753996 0.619687 0.360693 0.182201
H50   H     H_    0.831090 0.691407 0.427789 0.172538
H51   H     H_    0.687769 0.778073 0.414909 0.108051
H52   H     H_    0.732201 0.691523 0.461153 0.155686
H53   H     H_    0.203540 0.811006 0.304163 0.127707
H54   H     H_    0.216661 0.756260 0.379234 0.152492
H55   H     H_    0.502672 0.798257 0.414035 0.118311
H56   H     H_    0.471007 0.889873 0.183475 0.136402
O1    O     O_R   0.688580 0.499770 0.460490 -0.482790
O2    O     O_R   0.346150 0.177650 0.050510 -0.509684
O3    O     O_R   0.314200 0.996600 0.036060 -0.494211
O4    O     O_R   0.480400 0.672610 0.462660 -0.514452
O5    O     O_R   0.168690 0.969990 0.933130 -0.499735
O6    O     O_R   0.991920 0.175870 0.937430 -0.494281
O7    O     O_R   0.974010 0.342590 0.941330 -0.504524
O8    O     O_R   0.182630 0.317940 0.955040 -0.505547
O9    O     O_R   0.347320 0.174720 0.953250 -0.515871
O10   O     O_R   0.315290 0.993890 0.945900 -0.496444
O11   O     O_3   0.162730 0.163890 0.991180 -0.253520
O12   O     O_R   0.348600 0.476260 0.536540 -0.495077
O13   O     O_R   0.315310 0.685650 0.451800 -0.511779
O14   O     O_R   0.346220 0.474990 0.446280 -0.487904
O15   O     O_R   0.492270 0.312460 0.441630 -0.521343
O16   O     O_R   0.669740 0.350480 0.455640 -0.513454
O17   O     O_R   0.691150 0.501150 0.557860 -0.508308
O18   O     O_R   0.482790 0.673890 0.552920 -0.495401
O19   O     O_R   0.317880 0.687030 0.549170 -0.503173
O20   O     O_3   0.184789 0.817253 0.174883 -0.557804
O21   O     O_3   0.503973 0.861730 0.335563 -0.566298
O22   O     O_3   0.151613 0.510993 0.671016 -0.546993
O23   O     O_R   0.494840 0.313840 0.539010 -0.510216
O24   O     O_3   0.482853 0.167699 0.680257 -0.535371
O25   O     O_3   0.131675 0.974920 0.777652 -0.561515
O26   O     O_3   0.826034 0.505372 0.409322 -0.520510
O27   O     O_R   0.672120 0.351750 0.545910 -0.484065
O28   O     O_3   0.500010 0.500010 0.500010 -0.245762
O29   O     O_R   0.167510 0.972920 0.030390 -0.520583
O30   O     O_R   0.990840 0.178580 0.027590 -0.516444
O31   O     O_R   0.972840 0.345510 0.038590 -0.447115
O32   O     O_R   0.181550 0.320660 0.045200 -0.479459

loop_
_geom_bond_atom_site_label_1
_geom_bond_atom_site_label_2
_ccdc_geom_bond_type
Br1   C83   S    
C51   C52   S    
C91   H37   S    
C68   H15   S    
C37   C38   A    
C45   C83   A    
C91   C92   S    
Cr3   O23   S    
C16   C89   S    
C88   H32   S    
C74   C82   S    
C77   C78   S    
C86   C87   S    
C53   C58   A    
C36   H6    S    
C94   H46   S    
Cr5   O31   S    
C92   H39   S    
C79   O3    A    
C76   H1    S    
C81   O9    A    
C45   C56   S    
Cr5   O7    S    
Cr1   O17   S    
C22   H53   S    
C10   C17   A    
C79   O29   A    
C72   C74   T    
C14   C15   T    
C76   C83   A    
C38   C49   S    
C3    H34   S    
C23   C34   A    
Cr2   O14   S    
Cr4   O30   S    
C95   H48   S    
C39   O22   S    
C24   H54   S    
C3    C5    A    
C30   C31   S    
Cr6   O9    S    
C84   H20   S    
Cr2   O28   S    
C77   O32   A    
C42   C43   A    
C56   C78   T    
C96   H51   S    
C5    C15   S    
C87   H30   S    
C31   C32   T    
C70   C73   S    
C95   H49   S    
C8    C13   A    
Cr1   O4    S    
C19   C20   A    
C27   C29   A    
Cr3   O27   S    
Cr6   O2    S    
C5    C6    A    
Br3   C9    S    
Br2   C57   S    
C40   O23   A    
C35   C41   A    
C86   H26   S    
C84   C85   S    
C96   H50   S    
C12   C23   A    
C44   C46   A    
C94   H47   S    
C91   H38   S    
Cr5   O11   S    
C20   O21   S    
C90   H33   S    
C1    O13   A    
C65   C66   A    
C68   C71   A    
C88   H31   S    
C12   H10   S    
C95   O26   S    
C51   C61   T    
C93   C94   S    
C2    C3    A    
C53   C54   A    
C69   C70   A    
Cr5   O32   S    
C55   C57   A    
C25   O20   S    
C1    C18   S    
C7    O26   S    
C90   H36   S    
Cr6   O3    S    
C28   O19   A    
Cr1   O1    S    
C20   C21   A    
C53   H9    S    
Cr1   O28   S    
Cr5   O8    S    
C35   C36   A    
C86   H27   S    
C23   H17   S    
C16   O16   A    
C46   C47   A    
C21   C22   A    
C43   H3    S    
C16   O1    A    
C25   C30   A    
C54   H11   S    
C85   H24   S    
C27   C33   A    
C26   C33   A    
Cr3   O15   S    
C60   C62   T    
C44   C50   A    
C71   C72   S    
C25   C26   A    
C80   O6    A    
C63   C73   T    
Cr4   O6    S    
C84   O20   S    
C95   C96   S    
C8    H18   S    
C2    C89   A    
C17   C75   S    
C88   C90   S    
C13   C14   S    
C9    C17   A    
C65   C70   A    
Cr3   O28   S    
C1    O4    A    
C12   C45   A    
C39   C41   A    
C35   C40   S    
C66   O25   S    
C43   C50   A    
C36   C37   A    
C4    C64   S    
C75   O30   A    
C28   C63   S    
C88   O22   S    
C52   O17   A    
C93   H42   S    
C82   O10   A    
C55   C59   A    
C38   C39   A    
Br4   C6    S    
C27   H2    S    
C48   C49   T    
C44   H8    S    
C94   H44   S    
C54   C59   A    
C11   C13   A    
C92   H41   S    
C93   O25   S    
C34   C67   S    
C55   H13   S    
C58   C61   S    
C10   C11   A    
C90   H35   S    
Cr6   O10   S    
C28   O18   A    
C82   O5    A    
C2    H19   S    
C40   O12   A    
C68   C69   A    
C80   O7    A    
C75   O31   A    
C50   C81   S    
C4    O14   A    
Cr4   O11   S    
Cr2   O12   S    
C84   H21   S    
C92   H40   S    
C65   H14   S    
C22   C24   A    
C81   O8    A    
C85   H25   S    
C11   H12   S    
Cr3   O16   S    
C86   O21   S    
C46   H7    S    
C42   H4    S    
C29   H56   S    
Cr2   O13   S    
C47   C48   S    
Cr1   O18   S    
Cr2   O19   S    
Cr4   O5    S    
Cr4   O29   S    
C7    C89   A    
C26   H45   S    
C52   O27   A    
C87   H28   S    
C34   C76   A    
C64   C67   T    
C42   C47   A    
C77   O2    A    
Cr6   O11   S    
C29   C30   A    
C37   O24   S    
C4    O15   A    
C57   C58   A    
C6    C7    A    
C21   C32   S    
C62   C80   S    
C59   C60   S    
C96   H52   S    
C87   H29   S    
C8    C9    A    
C69   H16   S    
C66   C71   A    
C93   H43   S    
C18   C19   A    
C33   C79   S    
C18   C24   A    
C19   H55   S    
C10   H23   S    
C91   O24   S    
C41   H5    S    
C85   H22   S    
