data_mof_unit_4335.cif
_audit_creation_date              2012-12-10T18:58:47-0500
_audit_creation_method            fapswitch 2.2
_symmetry_space_group_name_H-M    P1
_symmetry_Int_Tables_number       1
_space_group_crystal_system       triclinic
_cell_length_a                    13.007034
_cell_length_b                    10.823992
_cell_length_c                    9.542711
_cell_angle_alpha                 89.8182
_cell_angle_beta                  96.05054
_cell_angle_gamma                 90.195752
_cell_volume                      1336.00213304

loop_
_atom_site_label
_atom_site_type_symbol
_atom_type_description
_atom_site_fract_x
_atom_site_fract_y
_atom_site_fract_z
_atom_type_partial_charge
C1    C     C_R   0.501676 0.262382 0.500419 0.824801
C2    C     C_R   0.026895 0.515282 0.557268 0.173843
C3    C     C_R   0.973878 0.456854 0.437658 0.094092
C4    C     C_R   0.865946 0.439618 0.431269 -0.074353
C5    C     C_R   0.866701 0.545444 0.657586 -0.226882
C6    C     C_R   0.973181 0.556970 0.666957 -0.210563
C7    C     C_R   0.503956 0.063419 0.626721 0.137302
C8    C     C_R   0.511210 0.129398 0.502318 -0.097041
C9    C     C_R   0.531598 0.065147 0.380608 -0.167446
C10   C     C_R   0.530982 0.936416 0.380366 -0.221427
C11   C     C_R   0.510328 0.871037 0.501815 -0.100845
C12   C     C_R   0.300818 0.498563 0.473766 0.793992
C13   C     C_R   0.503476 0.936171 0.626534 0.123033
C14   C     C_3   0.422763 0.929802 0.726890 -0.467991
C15   C     C_3   0.423642 0.070005 0.727303 -0.473541
C16   C     C_R   0.585285 0.538139 0.085680 0.274610
C17   C     C_R   0.420357 0.449680 0.063189 -0.079838
C18   C     C_R   0.420381 0.449580 0.914358 -0.085961
C19   C     C_R   0.585360 0.538014 0.938380 0.263312
C20   C     C_3   0.635686 0.661939 0.939164 -0.505714
C21   C     C_3   0.635237 0.662205 0.098172 -0.511350
C22   C     C_R   0.501361 0.737740 0.500086 0.800629
C23   C     C_R   0.699304 0.495250 0.525911 0.847907
C24   C     C_R   0.812258 0.490114 0.539675 -0.071460
C25   C     C_R   0.188812 0.489465 0.458300 -0.044335
C26   C     C_R   0.031024 0.416058 0.329088 -0.215203
C27   C     C_R   0.137266 0.433693 0.338869 -0.187185
C28   C     C_R   0.133682 0.530288 0.566942 -0.259737
Cu1   Cu    Cu3+1 0.499990 0.499980 0.640670 0.945249
Cu2   Cu    Cu3+1 0.500010 0.500020 0.359330 0.962471
H1    H     H_    0.452666 0.889229 0.830213 0.195528
H2    H     H_    0.350006 0.111426 0.679311 0.194056
H3    H     H_    0.454712 0.109916 0.830429 0.203675
H4    H     H_    0.355177 0.410575 0.109506 0.134445
H5    H     H_    0.355218 0.410226 0.849794 0.143060
H6    H     H_    0.714786 0.657779 0.905764 0.187827
H7    H     H_    0.585071 0.733713 0.885125 0.215689
H8    H     H_    0.713955 0.658403 0.156030 0.194752
H9    H     H_    0.583601 0.733627 0.135175 0.208790
H10   H     H_    0.826472 0.583458 0.741128 0.151922
H11   H     H_    0.995235 0.369884 0.236185 0.127325
H12   H     H_    0.013391 0.601173 0.758825 0.138394
H13   H     H_    0.179551 0.400265 0.254750 0.142845
H14   H     H_    0.174058 0.573770 0.659312 0.143364
H15   H     H_    0.543344 0.113714 0.284130 0.182272
H16   H     H_    0.542093 0.888978 0.283746 0.156487
H17   H     H_    0.348667 0.889521 0.678431 0.198305
N1    N     N_R   0.500660 0.500930 0.148010 -0.184153
N2    N     N_R   0.500660 0.500890 0.852110 -0.186696
O1    O     O_R   0.500000 0.319640 0.618810 -0.581850
O2    O     O_R   0.500010 0.319680 0.381230 -0.569313
O3    O     O_R   0.348990 0.499960 0.599490 -0.593068
O4    O     O_R   0.349000 0.500000 0.361910 -0.592745
O5    O     O_R   0.499990 0.680320 0.618770 -0.581025
O6    O     O_R   0.500000 0.680360 0.381190 -0.586379
O7    O     O_R   0.651000 0.500000 0.638090 -0.590884
O8    O     O_R   0.651010 0.500040 0.400510 -0.565810
C29   C     C_2   0.810556 0.366002 0.315037 0.369762
H18   H     H_    0.823900 0.383029 0.206374 0.045622
O9    O     O_2   0.750204 0.284350 0.340673 -0.542565

loop_
_geom_bond_atom_site_label_1
_geom_bond_atom_site_label_2
_ccdc_geom_bond_type
C10   H16   S    
C2    C28   A    
C23   C24   S    
C9    H15   S    
C16   C21   S    
Cu1   O7    S    
C25   C27   A    
C1    C8    S    
C11   C13   A    
Cu2   O6    S    
C19   N2    A    
C11   C22   S    
C12   O4    A    
C21   H9    S    
C17   N1    A    
C12   C25   S    
Cu2   O2    S    
Cu1   O5    S    
C10   C11   A    
C16   N1    A    
C7    C15   S    
C17   C18   A    
C22   O6    A    
C7    C8    A    
C22   O5    A    
C2    C6    A    
C13   C14   S    
C25   C28   A    
C20   H7    S    
C1    O2    A    
C23   O7    A    
C26   C27   A    
C14   H17   S    
C5    C24   A    
C16   C19   A    
C18   H5    S    
Cu2   N1    S    
C12   O3    A    
C28   H14   S    
C1    O1    A    
C2    C3    A    
Cu1   O1    S    
C6    H12   S    
C5    C6    A    
C4    C24   A    
Cu2   O4    S    
C17   H4    S    
Cu1   Cu2   S    
C3    C4    A    
C20   H6    S    
Cu2   O8    S    
C27   H13   S    
C7    C13   A    
C20   C21   S    
C26   H11   S    
C9    C10   A    
C5    H10   S    
C4    C29   S    
C23   O8    A    
C14   H1    S    
C14   C15   S    
Cu1   N2    S    
C29   H18   S    
C29   O9    D    
C15   H3    S    
C3    C26   A    
C21   H8    S    
C19   C20   S    
C18   N2    A    
C8    C9    A    
Cu1   O3    S    
C15   H2    S    
