data_mof_unit_4791.cif
_audit_creation_date              2012-12-10T17:36:39-0500
_audit_creation_method            fapswitch 2.2
_symmetry_space_group_name_H-M    P1
_symmetry_Int_Tables_number       1
_space_group_crystal_system       triclinic
_cell_length_a                    12.173192
_cell_length_b                    12.773858
_cell_length_c                    15.712619
_cell_angle_alpha                 92.823647
_cell_angle_beta                  86.937768
_cell_angle_gamma                 94.373546
_cell_volume                      2430.19063295

loop_
_atom_site_label
_atom_site_type_symbol
_atom_type_description
_atom_site_fract_x
_atom_site_fract_y
_atom_site_fract_z
_atom_type_partial_charge
C1    C     C_R   0.522631 0.699793 0.496768 0.879963
C2    C     C_R   0.530825 0.023044 0.465400 0.140065
C3    C     C_R   0.943784 0.375386 0.440277 0.138107
C4    C     C_R   0.045774 0.576793 0.597638 0.117059
C5    C     C_R   0.834738 0.402802 0.432365 0.282423
C6    C     C_R   0.161840 0.580240 0.581541 0.284674
C7    C     C_R   0.861708 0.546011 0.532833 0.233698
C8    C     C_R   0.138734 0.446839 0.471171 0.245321
C9    C     C_R   0.975717 0.525873 0.537205 -0.053324
C10   C     C_R   0.020261 0.447682 0.482456 -0.058343
C11   C     C_R   0.500647 0.500331 0.661673 0.887381
C12   C     C_R   0.477236 0.300117 0.502885 0.876508
C13   C     C_R   0.499353 0.499672 0.338321 0.888603
C14   C     C_3   0.479677 0.597089 0.032700 -0.215031
C15   C     C_3   0.520030 0.403265 0.967289 -0.215131
C16   C     C_3   0.579870 0.571253 0.971858 -0.214916
C17   C     C_3   0.419837 0.429096 0.028127 -0.214181
C18   C     C_1   0.501884 0.500129 0.750564 -0.185143
C19   C     C_1   0.498073 0.499992 0.249426 -0.185247
C20   C     C_3   0.402853 0.525430 0.976380 0.063716
C21   C     C_3   0.596852 0.474920 0.023595 0.062723
C22   C     C_3   0.501463 0.500006 0.916887 0.145086
C23   C     C_R   0.597728 0.963588 0.410008 -0.197915
C24   C     C_3   0.498256 0.500340 0.083105 0.145204
C25   C     C_1   0.502238 0.499994 0.825883 -0.057121
C26   C     C_1   0.497605 0.500251 0.174112 -0.055923
C27   C     C_R   0.461893 0.188675 0.509902 -0.049821
C28   C     C_R   0.537288 0.811064 0.489045 -0.049474
C29   C     C_1   0.703601 0.447122 0.051451 0.147853
C30   C     C_1   0.296147 0.553198 0.948392 0.148174
C31   C     C_3   0.326457 0.207124 0.639006 -0.864666
C32   C     C_3   0.664329 0.791157 0.355055 -0.873212
C33   C     C_3   0.187277 0.368957 0.407358 -0.806160
C34   C     C_R   0.399564 0.035771 0.587934 -0.198308
C35   C     C_3   0.821446 0.650112 0.565009 -0.809652
C36   C     C_3   0.231227 0.647837 0.643129 -0.808051
C37   C     C_3   0.772656 0.356717 0.356939 -0.811673
C38   C     C_3   0.965144 0.260698 0.422868 -0.913018
C39   C     C_3   0.999896 0.608648 0.686410 -0.897409
C40   C     C_R   0.600536 0.856224 0.420367 0.169356
C41   C     C_R   0.395864 0.142959 0.576931 0.167063
C42   C     C_R   0.473225 0.871143 0.545549 -0.313594
C43   C     C_R   0.526298 0.128631 0.453734 -0.314968
C44   C     C_R   0.467950 0.976600 0.533488 0.140325
H1    H     H_    0.645766 0.628396 0.947111 0.147443
H2    H     H_    0.379040 0.271252 0.670070 0.237366
H3    H     H_    0.261017 0.241240 0.604951 0.257278
H4    H     H_    0.701956 0.839307 0.302606 0.229565
H5    H     H_    0.731948 0.755836 0.385319 0.248539
H6    H     H_    0.608440 0.727897 0.326322 0.235952
H7    H     H_    0.149786 0.372713 0.344842 0.217234
H8    H     H_    0.177961 0.288863 0.431636 0.220483
H9    H     H_    0.274897 0.381629 0.394640 0.282007
H10   H     H_    0.752547 0.638911 0.613457 0.255729
H11   H     H_    0.796226 0.691408 0.510009 0.242348
H12   H     H_    0.353945 0.371946 0.052868 0.147325
H13   H     H_    0.886267 0.705733 0.591298 0.219990
H14   H     H_    0.227611 0.611903 0.706182 0.233371
H15   H     H_    0.317691 0.661107 0.623826 0.272972
H16   H     H_    0.200035 0.727377 0.650882 0.203684
H17   H     H_    0.821082 0.302062 0.315816 0.212773
H18   H     H_    0.694879 0.313041 0.376246 0.251286
H19   H     H_    0.757677 0.420688 0.314910 0.249681
H20   H     H_    0.012168 0.232355 0.474621 0.246146
H21   H     H_    0.886894 0.209811 0.424486 0.244988
H22   H     H_    0.006871 0.247628 0.359208 0.245849
H23   H     H_    0.462169 0.675738 0.061148 0.147558
H24   H     H_    0.010541 0.695150 0.698044 0.240288
H25   H     H_    0.911744 0.581650 0.697236 0.255126
H26   H     H_    0.043168 0.570154 0.735379 0.252003
H27   H     H_    0.537541 0.324615 0.938843 0.147437
H28   H     H_    0.575158 0.165026 0.401939 0.139798
H29   H     H_    0.424460 0.834568 0.597440 0.143552
H30   H     H_    0.645190 0.000347 0.357657 0.139748
H31   H     H_    0.350851 0.998783 0.639566 0.139557
H32   H     H_    0.285452 0.158575 0.689963 0.226848
N1    N     N_R   0.207800 0.519340 0.515560 -0.120680
N2    N     N_R   0.792200 0.480660 0.484440 -0.117931
N3    N     N_1   0.787736 0.425213 0.073522 -0.205584
N4    N     N_1   0.212061 0.575074 0.926193 -0.210776
O1    O     O_R   0.421700 0.658830 0.504150 -0.623461
O2    O     O_R   0.578300 0.341170 0.495850 -0.615869
O3    O     O_R   0.609310 0.646410 0.494170 -0.621899
O4    O     O_R   0.390690 0.353590 0.505830 -0.624388
O5    O     O_R   0.406210 0.506220 0.628210 -0.616518
O6    O     O_R   0.593790 0.493780 0.371790 -0.615345
O7    O     O_R   0.593830 0.493800 0.618230 -0.608066
O8    O     O_R   0.406170 0.506200 0.381770 -0.621954
Zn1   Zn    Zn3+2 0.374730 0.508290 0.506660 0.933622
Zn2   Zn    Zn3+2 0.625270 0.491710 0.493340 0.933903

loop_
_geom_bond_atom_site_label_1
_geom_bond_atom_site_label_2
_ccdc_geom_bond_type
C11   C18   S    
C43   H28   S    
C5    C37   S    
C39   H24   S    
C36   H15   S    
C37   H18   S    
C20   C30   S    
N2    Zn2   S    
C33   H8    S    
C18   C25   T    
N1    Zn1   S    
C16   C21   S    
C24   C26   S    
C36   H14   S    
C28   C40   A    
C1    O1    A    
C23   C40   A    
C17   C20   S    
C12   O4    A    
C15   C17   S    
C14   C24   S    
C19   C26   T    
C15   C22   S    
C38   H22   S    
C3    C38   S    
C2    C44   A    
C22   C25   S    
C13   O6    A    
C1    C28   S    
C14   H23   S    
C38   H21   S    
C9    C10   A    
C34   H31   S    
O1    Zn1   S    
C31   H3    S    
C35   H10   S    
C32   H4    S    
C34   C41   A    
C42   C44   A    
C37   H19   S    
C38   H20   S    
C33   H9    S    
C17   C24   S    
C13   C19   S    
C12   C27   S    
C35   H11   S    
C14   C20   S    
C34   C44   A    
C4    C6    A    
O6    Zn2   S    
C11   O7    A    
O5    Zn1   S    
C6    N1    A    
C3    C5    A    
C21   C29   S    
C31   H2    S    
C27   C41   A    
C29   N3    T    
C4    C39   S    
C2    C43   A    
C39   H25   S    
C12   O2    A    
C17   H12   S    
C32   H6    S    
C7    N2    A    
C20   C22   S    
C8    N1    A    
C14   C16   S    
C21   C24   S    
C1    O3    A    
O4    Zn1   S    
C23   H30   S    
C7    C9    A    
O3    Zn2   S    
C42   H29   S    
C16   C22   S    
C31   C41   S    
C7    C35   S    
C36   H16   S    
C16   H1    S    
C37   H17   S    
C33   H7    S    
C15   H27   S    
O2    Zn2   S    
C35   H13   S    
C4    C9    A    
C30   N4    T    
C3    C10   A    
C31   H32   S    
C11   O5    A    
C13   O8    A    
C28   C42   A    
C39   H26   S    
C6    C36   S    
C8    C33   S    
C32   C40   S    
C32   H5    S    
C27   C43   A    
C15   C21   S    
O8    Zn1   S    
C8    C10   A    
O7    Zn2   S    
C2    C23   A    
C5    N2    A    
