data_mof_unit_492.cif
_audit_creation_date              2012-12-11T15:39:26-0500
_audit_creation_method            fapswitch 2.2
_symmetry_space_group_name_H-M    P1
_symmetry_Int_Tables_number       1
_space_group_crystal_system       triclinic
_cell_length_a                    14.329354
_cell_length_b                    14.760838
_cell_length_c                    33.215313
_cell_angle_alpha                 97.852429
_cell_angle_beta                  90.116422
_cell_angle_gamma                 119.035006
_cell_volume                      6065.97213803

loop_
_atom_site_label
_atom_site_type_symbol
_atom_type_description
_atom_site_fract_x
_atom_site_fract_y
_atom_site_fract_z
_atom_type_partial_charge
C1    C     C_R   0.616921 0.910162 0.436912 0.531757
C2    C     C_R   0.712130 0.437379 0.949214 0.527239
C3    C     C_R   0.668669 0.813185 0.768194 0.285578
C4    C     C_R   0.670809 0.834032 0.727989 0.261642
C5    C     C_R   0.688331 0.772016 0.696088 0.014589
C6    C     C_R   0.715656 0.696413 0.704600 0.213326
C7    C     C_R   0.716823 0.678464 0.744865 -0.195045
C8    C     C_R   0.691617 0.734535 0.776525 -0.046685
C9    C     C_R   0.563590 0.748158 0.638535 0.303301
C10   C     C_R   0.546071 0.784216 0.603934 0.225020
C11   C     C_R   0.739375 0.885410 0.598532 0.209285
C12   C     C_3   0.499254 0.444507 0.127288 -0.066113
C13   C     C_R   0.741088 0.717133 0.945553 0.578406
C14   C     C_3   0.846382 0.228698 0.415352 -0.096706
C15   C     C_3   0.281491 0.723012 0.170786 -0.103774
C16   C     C_3   0.066961 0.662577 0.408598 -0.064179
C17   C     C_3   0.017017 0.553529 0.126365 -0.093451
C18   C     C_3   0.470827 0.689394 0.076117 -0.084949
C19   C     C_3   0.481791 0.379633 0.702633 -0.082859
C20   C     C_3   0.141526 0.002885 0.932048 -0.069742
C21   C     C_3   0.375772 0.831787 0.698429 -0.041912
C22   C     C_3   0.370542 0.992317 0.806839 -0.097730
C23   C     C_3   0.062447 0.642703 0.536757 -0.105905
C24   C     C_R   0.830139 0.443998 0.166937 -0.052271
C25   C     C_3   0.743923 0.007841 0.725095 -0.078504
C26   C     C_3   0.552854 0.866028 0.796563 -0.047561
C27   C     C_3   0.453852 0.589729 0.658899 -0.112970
C28   C     C_3   0.390852 0.657381 0.568319 -0.039608
C29   C     C_3   0.898622 0.918972 0.570902 -0.091702
C30   C     C_R   0.831378 0.459205 0.125978 0.233377
C31   C     C_R   0.763504 0.335887 0.246657 0.259032
C32   C     C_R   0.760201 0.331737 0.288416 -0.092880
C33   C     C_R   0.730018 0.394471 0.314487 0.003030
C34   C     C_R   0.707900 0.466028 0.299013 -0.102179
C35   C     C_R   0.713375 0.472916 0.257655 -0.126375
C36   C     C_R   0.739303 0.407288 0.231058 0.032979
C37   C     C_R   0.737502 0.414507 0.187403 -0.023956
C38   C     C_R   0.604709 0.345499 0.368907 -0.134531
C39   C     C_R   0.594849 0.206680 0.456922 0.561352
C40   C     C_R   0.571554 0.297978 0.403456 -0.174077
C41   C     C_R   0.745638 0.310287 0.414706 0.262431
C42   C     C_R   0.778849 0.360539 0.380356 -0.112074
C43   C     C_R   0.706729 0.372507 0.356182 -0.011818
C44   C     C_R   0.639462 0.275564 0.425646 0.033407
C45   C     C_R   0.242204 0.876599 0.393928 -0.028820
C46   C     C_R   0.264455 0.966205 0.376830 -0.191462
C47   C     C_R   0.239915 0.958232 0.335680 -0.187897
C48   C     C_R   0.755765 0.850462 0.633891 -0.110372
C49   C     C_R   0.191994 0.860784 0.310725 -0.018406
C50   C     C_R   0.159668 0.767976 0.327597 0.295533
C51   C     C_R   0.294622 0.892167 0.434629 0.547581
C52   C     C_R   0.183704 0.776074 0.369781 0.264811
C53   C     C_R   0.218839 0.833918 0.160752 0.289697
C54   C     C_R   0.190723 0.817957 0.118722 -0.116879
C55   C     C_R   0.046947 0.856556 0.133639 -0.112617
C56   C     C_R   0.074526 0.872742 0.175151 -0.162142
C57   C     C_R   0.158307 0.859011 0.188847 0.039961
C58   C     C_1   0.173390 0.860484 0.231664 0.058323
C59   C     C_R   0.669183 0.784134 0.654150 0.042478
C60   C     C_1   0.181693 0.859764 0.267611 0.069727
C61   C     C_R   0.102692 0.826228 0.105169 -0.013130
C62   C     C_R   0.636944 0.878775 0.395145 0.015688
C63   C     C_R   0.613462 0.904466 0.551638 0.594534
C64   C     C_R   0.550859 0.802930 0.367746 -0.122415
C65   C     C_R   0.563163 0.791956 0.325997 -0.107325
C66   C     C_R   0.661582 0.855958 0.311302 0.035919
C67   C     C_R   0.749674 0.926128 0.338523 -0.115854
C68   C     C_R   0.737628 0.937198 0.380296 -0.136500
C69   C     C_R   0.764876 0.931219 0.172829 -0.068072
C70   C     C_R   0.633985 0.857147 0.584902 -0.009932
C71   C     C_R   0.778163 0.921420 0.130929 0.199495
C72   C     C_R   0.614726 0.751136 0.121246 0.220797
C73   C     C_R   0.603523 0.762848 0.163029 -0.106371
C74   C     C_R   0.681011 0.849994 0.188928 -0.044045
C75   C     C_R   0.589458 0.199489 0.570953 0.554612
C76   C     C_1   0.675364 0.853990 0.232145 0.006981
C77   C     C_1   0.669879 0.854825 0.268279 -0.005461
C78   C     C_R   0.709064 0.824765 0.105339 -0.008085
C79   C     C_R   0.621874 0.251209 0.613854 -0.063033
C80   C     C_R   0.546071 0.260707 0.638160 -0.072949
C81   C     C_R   0.052569 0.781766 0.063541 0.533950
C82   C     C_R   0.566213 0.288215 0.680477 0.276815
C83   C     C_R   0.662342 0.304277 0.698953 0.055690
C84   C     C_R   0.743232 0.304543 0.674749 0.252966
C85   C     C_R   0.721973 0.277360 0.632237 -0.107675
C86   C     C_R   0.762620 0.338453 0.845855 -0.093837
C87   C     C_R   0.288274 0.886493 0.548430 0.566984
C88   C     C_R   0.769370 0.363192 0.888268 -0.106374
C89   C     C_R   0.596464 0.355020 0.884026 -0.126232
C90   C     C_R   0.589661 0.329836 0.841695 -0.131047
C91   C     C_R   0.674691 0.325966 0.822521 0.016377
C92   C     C_R   0.743737 0.486120 0.066313 0.577713
C93   C     C_1   0.675046 0.318386 0.779054 0.028078
C94   C     C_1   0.672397 0.313498 0.742613 0.113400
C95   C     C_R   0.689031 0.377370 0.907588 0.013136
C96   C     C_R   0.079940 0.761920 0.909741 -0.014673
C97   C     C_R   0.080519 0.845119 0.892337 0.209065
C98   C     C_R   0.101819 0.853574 0.851816 -0.121762
C99   C     C_R   0.737483 0.447458 0.105905 0.048009
C100  C     C_R   0.129757 0.785679 0.828873 -0.045475
C101  C     C_R   0.144140 0.713130 0.846928 -0.063092
C102  C     C_R   0.121542 0.701252 0.887487 0.212943
C103  C     C_R   0.741418 0.790460 0.066042 0.568557
C104  C     C_R   0.238335 0.843056 0.769730 0.302137
C105  C     C_R   0.242785 0.851016 0.728014 0.318415
C106  C     C_R   0.146817 0.811928 0.703360 0.026150
C107  C     C_R   0.048042 0.756065 0.719099 -0.109009
C108  C     C_R   0.043701 0.743936 0.759851 -0.137789
C109  C     C_R   0.138167 0.788334 0.785298 -0.004724
C110  C     C_R   0.189641 0.927307 0.649954 0.296112
C111  C     C_R   0.642269 0.413338 0.126427 0.236757
C112  C     C_R   0.226296 0.944307 0.611341 -0.162179
C113  C     C_R   0.164866 0.758008 0.591846 0.267353
C114  C     C_R   0.024432 0.733782 0.947698 0.548456
C115  C     C_R   0.132367 0.741768 0.630949 -0.141419
C116  C     C_R   0.150868 0.826716 0.660643 -0.005468
C117  C     C_R   0.221748 0.861676 0.583265 -0.028637
C118  C     C_R   0.714407 0.705318 0.901965 0.013474
C119  C     C_R   0.622845 0.704873 0.885794 0.258023
C120  C     C_R   0.611820 0.705149 0.843879 -0.056165
C121  C     C_R   0.693624 0.713683 0.818747 0.017986
C122  C     C_R   0.781325 0.709447 0.834915 -0.111420
C123  C     C_R   0.643268 0.395430 0.166830 -0.113967
C124  C     C_R   0.790508 0.703632 0.875973 -0.155350
Cr1   Cr    Cr6+3 0.424820 0.846020 0.489780 1.049811
Cr2   Cr    Cr6+3 0.657880 0.078580 0.505700 1.078213
Cr3   Cr    Cr6+3 0.417280 0.075360 0.504550 1.014021
Cr4   Cr    Cr6+3 0.903360 0.812540 0.006510 1.119298
Cr5   Cr    Cr6+3 0.914630 0.587050 0.006280 1.109606
Cr6   Cr    Cr6+3 0.673560 0.582680 0.008540 1.098771
H1    H     H_    0.490047 0.272628 0.411176 0.137127
H2    H     H_    0.805502 0.995715 0.400682 0.115486
H3    H     H_    0.472220 0.757058 0.378170 0.154225
H4    H     H_    0.535574 0.701914 0.175323 0.122751
H5    H     H_    0.494658 0.737094 0.305066 0.136337
H6    H     H_    0.840799 0.378438 0.905630 0.186932
H7    H     H_    0.859255 0.385643 0.371275 0.131184
H8    H     H_    0.828369 0.334548 0.831216 0.158499
H9    H     H_    0.781804 0.272641 0.613591 0.181157
H10   H     H_    0.468008 0.240357 0.624810 0.166283
H11   H     H_    0.520825 0.319354 0.823793 0.126497
H12   H     H_    0.901289 0.455437 0.183252 0.179758
H13   H     H_    0.533010 0.365013 0.897854 0.151876
H14   H     H_    0.099576 0.663766 0.638920 0.164982
H15   H     H_    0.775363 0.275103 0.300443 0.125018
H16   H     H_    0.093508 0.911806 0.837865 0.151305
H17   H     H_    0.974610 0.723692 0.700010 0.220376
H18   H     H_    0.966495 0.701696 0.771809 0.140689
H19   H     H_    0.265255 0.023493 0.604351 0.171350
H20   H     H_    0.169830 0.663679 0.828787 0.192819
H21   H     H_    0.859718 0.701868 0.887893 0.121084
H22   H     H_    0.836185 0.881005 0.647436 0.177017
H23   H     H_    0.234323 0.794854 0.096893 0.129006
H24   H     H_    0.541133 0.702595 0.831001 0.157921
H25   H     H_    0.735308 0.618939 0.751641 0.160051
H26   H     H_    0.845074 0.715136 0.816246 0.120719
H27   H     H_    0.570661 0.367402 0.182607 0.127754
H28   H     H_    0.683907 0.514567 0.318761 0.118179
H29   H     H_    0.695097 0.528215 0.246108 0.112630
H30   H     H_    0.547793 0.353958 0.350466 0.124538
H31   H     H_    0.558770 0.525937 0.141474 0.126374
H32   H     H_    0.450173 0.399328 0.150697 0.108660
H33   H     H_    0.444174 0.450352 0.105598 0.189127
H34   H     H_    0.307901 0.043957 0.394626 0.154503
H35   H     H_    0.775777 0.157441 0.398667 0.125720
H36   H     H_    0.884219 0.201935 0.436595 0.149489
H37   H     H_    0.906435 0.269638 0.393808 0.106320
H38   H     H_    0.267600 0.686012 0.138290 0.082087
H39   H     H_    0.210847 0.677734 0.187794 0.155327
H40   H     H_    0.350319 0.719550 0.184316 0.162367
H41   H     H_    0.004413 0.479437 0.301401 0.364171
H42   H     H_    0.997943 0.651266 0.388905 0.138450
H43   H     H_    0.084645 0.723901 0.435490 0.076882
H44   H     H_    0.042762 0.587725 0.420099 0.153850
H45   H     H_    0.026782 0.890723 0.196658 0.127450
H46   H     H_    0.010648 0.619425 0.144437 0.104362
H47   H     H_    0.078640 0.587278 0.104535 0.155193
H48   H     H_    0.045371 0.515641 0.146214 0.134202
H49   H     H_    0.961328 0.200999 0.132713 0.385177
H50   H     H_    0.516246 0.744816 0.054778 0.144846
H51   H     H_    0.432541 0.723434 0.097744 0.121724
H52   H     H_    0.405930 0.617320 0.057698 0.156872
H53   H     H_    0.931011 0.301111 0.748111 0.375364
H54   H     H_    0.457040 0.382710 0.671304 0.141298
H55   H     H_    0.559600 0.450598 0.713931 0.142083
H56   H     H_    0.976124 0.858992 0.123976 0.166232
H57   H     H_    0.420658 0.380465 0.722876 0.145999
H58   H     H_    0.195748 0.045606 0.909110 0.110132
H59   H     H_    0.185065 0.983398 0.954144 0.126080
H60   H     H_    0.116753 0.056426 0.949366 0.162904
H61   H     H_    0.238377 0.530488 0.891951 0.393368
H62   H     H_    0.319597 0.769747 0.673712 0.151479
H63   H     H_    0.387148 0.795554 0.723904 0.147230
H64   H     H_    0.454256 0.874487 0.685641 0.216734
H65   H     H_    0.309502 0.008542 0.821739 0.113147
H66   H     H_    0.399068 0.035541 0.780582 0.190904
H67   H     H_    0.263158 0.029297 0.322872 0.137143
H68   H     H_    0.440170 0.023042 0.829466 0.140533
H69   H     H_    0.299687 0.130987 0.738945 0.364924
H70   H     H_    0.075655 0.705985 0.518922 0.096733
H71   H     H_    0.988140 0.619098 0.553024 0.120539
H72   H     H_    0.050471 0.573578 0.514748 0.155931
H73   H     H_    0.525731 0.791069 0.976487 0.366058
H74   H     H_    0.827100 0.157441 0.253841 0.336920
H75   H     H_    0.807343 0.005415 0.706438 0.140787
H76   H     H_    0.773389 0.033544 0.757866 0.175336
H77   H     H_    0.726709 0.067318 0.715185 0.198407
H78   H     H_    0.821227 0.001318 0.193127 0.198293
H79   H     H_    0.490022 0.786269 0.782028 0.116453
H80   H     H_    0.554213 0.926591 0.779759 0.189805
H81   H     H_    0.529366 0.880346 0.827583 0.188255
H82   H     H_    0.861335 0.655156 0.620521 0.363534
H83   H     H_    0.465921 0.555529 0.628639 0.140975
H84   H     H_    0.368283 0.541641 0.664286 0.145723
H85   H     H_    0.501235 0.582854 0.683492 0.133874
H86   H     H_    0.355728 0.596333 0.588249 0.136957
H87   H     H_    0.444361 0.642311 0.547418 0.074198
H88   H     H_    0.323798 0.649907 0.548889 0.195429
H89   H     H_    0.826350 0.975524 0.327359 0.110995
H90   H     H_    0.953892 0.938909 0.598201 0.158700
H91   H     H_    0.948177 0.959681 0.546721 0.140310
H92   H     H_    0.858214 0.833116 0.559317 0.112712
O1    O     O_R   0.318160 0.824460 0.443680 -0.472173
O2    O     O_R   0.668160 0.499860 0.053480 -0.456889
O3    O     O_R   0.689170 0.693840 0.050110 -0.459019
O4    O     O_R   0.525040 0.857250 0.449830 -0.509114
O5    O     O_R   0.803860 0.812940 0.962540 -0.432303
O6    O     O_R   0.982950 0.787950 0.964120 -0.486832
O7    O     O_R   0.007050 0.649970 0.960540 -0.433286
O8    O     O_R   0.807910 0.482370 0.965590 -0.492968
O9    O     O_R   0.643310 0.460980 0.963840 -0.516304
O10   O     O_R   0.666140 0.657800 0.967020 -0.443838
O11   O     O_3   0.830520 0.660760 0.007110 -0.328353
O12   O     O_R   0.645130 0.163230 0.552140 -0.491440
O13   O     O_R   0.684760 0.998800 0.456360 -0.521439
O14   O     O_R   0.647540 0.166310 0.470260 -0.449478
O15   O     O_R   0.500960 0.181750 0.467450 -0.531554
O16   O     O_R   0.331100 0.981120 0.457080 -0.515191
O17   O     O_R   0.315560 0.821140 0.532010 -0.450104
O18   O     O_R   0.522630 0.854180 0.531710 -0.481210
O19   O     O_R   0.682160 0.995480 0.544690 -0.453750
O20   O     O_3   0.547624 0.391227 0.105561 -0.526881
O21   O     O_3   0.816963 0.297442 0.438312 -0.557199
O22   O     O_3   0.307284 0.829010 0.174458 -0.537111
O23   O     O_R   0.498360 0.178430 0.555780 -0.511158
O24   O     O_2   0.004089 0.637586 0.269633 -0.327603
O25   O     O_2   0.173081 0.634253 0.268236 -0.294100
O26   O     O_3   0.043096 0.543105 0.322152 -0.492666
O27   O     O_3   0.157938 0.686664 0.386441 -0.492739
O28   O     O_3   0.919999 0.478390 0.103949 -0.520026
O29   O     O_2   0.976702 0.023981 0.106204 -0.291587
O30   O     O_2   0.836188 0.043418 0.072546 -0.227103
O31   O     O_3   0.909946 0.142054 0.146078 -0.446030
O32   O     O_3   0.536813 0.661887 0.097009 -0.574910
O33   O     O_2   0.935464 0.315948 0.665702 -0.264388
O34   O     O_R   0.328690 0.978040 0.538950 -0.518526
O35   O     O_2   0.928324 0.454463 0.713348 -0.263547
O36   O     O_3   0.857440 0.271758 0.735449 -0.575019
O37   O     O_3   0.486617 0.287089 0.704235 -0.538993
O38   O     O_3   0.049093 0.912267 0.913109 -0.535347
O39   O     O_2   0.203395 0.658668 0.950488 -0.240233
O40   O     O_2   0.046081 0.511944 0.910014 -0.298052
O41   O     O_3   0.229277 0.582411 0.878866 -0.485094
O42   O     O_3   0.340729 0.904016 0.712084 -0.544145
O43   O     O_3   0.331284 0.883841 0.794871 -0.581662
O44   O     O_2   0.205446 0.118345 0.662378 -0.279368
O45   O     O_3   0.499990 0.999990 0.500010 -0.258985
O46   O     O_2   0.100374 0.995752 0.708554 -0.299470
O47   O     O_3   0.307735 0.082795 0.717187 -0.466790
O48   O     O_3   0.151701 0.673208 0.564086 -0.549220
O49   O     O_2   0.456140 0.740701 0.893890 -0.247763
O50   O     O_2   0.455995 0.604935 0.929011 -0.283701
O51   O     O_3   0.584646 0.800469 0.958960 -0.475217
O52   O     O_2   0.728618 0.209904 0.174713 -0.194398
O53   O     O_2   0.909253 0.299946 0.208920 -0.290491
O54   O     O_3   0.760576 0.140746 0.237984 -0.514441
O55   O     O_3   0.648454 0.910681 0.719088 -0.597940
O56   O     O_R   0.828710 0.851830 0.052170 -0.433433
O57   O     O_3   0.655979 0.876250 0.800277 -0.564151
O58   O     O_2   0.777328 0.551505 0.683463 -0.305305
O59   O     O_2   0.647818 0.554340 0.636221 -0.332061
O60   O     O_3   0.845200 0.701931 0.639971 -0.565408
O61   O     O_3   0.477076 0.694747 0.660861 -0.573073
O62   O     O_3   0.442399 0.758482 0.591948 -0.522735
O63   O     O_3   0.824931 0.955484 0.579347 -0.527695
O64   O     O_R   0.005980 0.823990 0.047210 -0.484867
O65   O     O_R   0.031900 0.688850 0.050170 -0.499712
O66   O     O_R   0.830940 0.518420 0.048680 -0.449076
S1    S     S_3+6 0.093754 0.643721 0.295542 0.017679
S2    S     S_3+6 0.877814 0.033521 0.112367 0.047257
S3    S     S_3+6 0.870908 0.339084 0.696902 0.007746
S4    S     S_3+6 0.149007 0.611427 0.908274 0.048037
S5    S     S_3+6 0.198113 0.033567 0.684817 0.024269
S6    S     S_3+6 0.524995 0.710852 0.916842 0.047649
S7    S     S_3+6 0.791815 0.246299 0.215391 0.029389
S8    S     S_3+6 0.744835 0.621175 0.665535 -0.059082

loop_
_geom_bond_atom_site_label_1
_geom_bond_atom_site_label_2
_ccdc_geom_bond_type
C17   H48   S    
C16   H43   S    
C38   C40   A    
C55   C56   A    
O24   S1    D    
C28   H86   S    
C93   C94   T    
C17   H47   S    
C96   C102  A    
C13   O10   A    
O41   S4    S    
C101  H20   S    
C106  C116  S    
C35   C36   A    
C53   O22   S    
C39   O15   A    
C92   O66   A    
C22   H66   S    
C1    C62   S    
C114  O7    A    
C13   C118  S    
C57   C58   S    
C11   C70   A    
C7    C8    A    
C47   C49   A    
C53   C54   A    
C56   C57   A    
C29   H91   S    
C20   H60   S    
C15   H39   S    
C101  C102  A    
C49   C60   S    
C74   C76   S    
O26   S1    S    
C41   O21   S    
O44   S5    D    
C5    C6    A    
C92   O2    A    
C36   C37   S    
C28   H88   S    
C87   C117  S    
C110  C116  A    
C86   C91   A    
C105  O42   S    
O59   S8    D    
C19   O37   S    
C112  C117  A    
C86   C88   A    
C8    C121  S    
C104  O43   S    
C20   H58   S    
C106  C107  A    
C45   C51   S    
C58   C60   T    
C115  C116  A    
C63   O19   A    
O39   S4    D    
Cr5   O7    S    
C17   O28   S    
C108  C109  A    
C9    O61   S    
C75   O12   A    
C69   C71   A    
C34   C35   A    
C73   C74   A    
C55   H56   S    
C10   O62   S    
O46   S5    D    
C68   H2    S    
C118  C119  A    
C26   O57   S    
C62   C64   A    
C19   H57   S    
C12   H31   S    
C64   H3    S    
H82   O60   S    
C29   H90   S    
C83   C84   A    
Cr6   O3    S    
C24   H12   S    
C27   H84   S    
C50   C52   A    
C107  C108  A    
C63   C70   S    
O36   S3    S    
C26   H81   S    
C81   O65   A    
C71   S2    S    
C21   H64   S    
C14   H36   S    
Cr2   O14   S    
C9    C10   A    
C85   H9    S    
C40   C44   A    
O47   S5    S    
C75   O23   A    
C17   H46   S    
H69   O47   S    
C66   C67   A    
C82   O37   S    
C88   C95   A    
C18   H50   S    
C100  C109  S    
C46   H34   S    
Cr1   O45   S    
C42   H7    S    
C27   H85   S    
C4    O55   S    
C119  S6    S    
C96   C114  S    
C11   C48   A    
C54   H23   S    
C25   H75   S    
Cr4   O56   S    
C104  C105  A    
C110  S5    S    
C31   S7    S    
C97   C98   A    
C6    C7    A    
C35   H29   S    
C76   C77   T    
Cr1   O1    S    
Cr2   O12   S    
C29   H92   S    
C23   O48   S    
C87   O17   A    
C5    C59   S    
C56   H45   S    
C111  C123  A    
C67   C68   A    
C33   C43   S    
Cr5   O65   S    
C84   C85   A    
C11   O63   S    
C80   C82   A    
C3    C8    A    
C119  C120  A    
C2    O8    A    
C51   O1    A    
C63   O18   A    
O54   S7    S    
C53   C57   A    
C97   O38   S    
C4    C5    A    
C21   H62   S    
C32   H15   S    
C98   H16   S    
C18   H51   S    
C80   H10   S    
C83   C94   S    
C12   H32   S    
C30   C99   A    
C18   O32   S    
C3    C4    A    
Cr3   O34   S    
C15   H40   S    
Cr5   O11   S    
C9    C59   A    
H61   O41   S    
C89   C95   A    
O52   S7    D    
C20   H59   S    
O49   S6    D    
O58   S8    D    
C91   C93   S    
C107  H17   S    
C16   H42   S    
C21   O42   S    
C3    O57   S    
C31   C32   A    
H73   O51   S    
C1    O4    A    
Cr6   O10   S    
Cr4   O6    S    
H53   O36   S    
C99   C111  A    
C96   C97   A    
O25   S1    D    
Cr2   O19   S    
C120  H24   S    
C24   C37   A    
C45   C46   A    
C69   C74   A    
C26   H80   S    
C118  C124  A    
C113  O48   S    
C50   S1    S    
Cr2   O13   S    
C88   H6    S    
C121  C122  A    
C65   H5    S    
Cr1   O18   S    
Cr3   O45   S    
C2    O9    A    
C20   O38   S    
Cr3   O23   S    
O33   S3    D    
C34   H28   S    
C25   O55   S    
C87   O34   A    
C124  H21   S    
C23   H71   S    
C82   C83   A    
C111  O20   S    
C98   C100  A    
C48   H22   S    
C41   C44   A    
C113  C117  A    
C15   H38   S    
O40   S4    D    
C24   C30   A    
C42   C43   A    
C55   C61   A    
C122  C124  A    
C25   H76   S    
C89   C90   A    
C10   C70   A    
C79   C85   A    
C120  C121  A    
O35   S3    D    
C48   C59   A    
C102  S4    S    
C52   O27   S    
Cr5   O8    S    
C16   H44   S    
Cr4   O11   S    
C28   O62   S    
C66   C77   S    
C15   O22   S    
C2    C95   S    
C69   H78   S    
C29   O63   S    
C31   C36   A    
C78   C103  S    
C112  H19   S    
C122  H26   S    
C22   H68   S    
Cr5   O66   S    
C72   O32   S    
C72   C73   A    
Cr1   O17   S    
C19   H54   S    
C13   O5    A    
C37   C123  A    
C16   O27   S    
Cr3   O15   S    
C39   C44   S    
C54   C61   A    
C14   O21   S    
C103  O3    A    
C123  H27   S    
C105  C106  A    
Cr6   O11   S    
C12   O20   S    
C45   C52   A    
C62   C68   A    
H41   O26   S    
Cr4   O64   S    
C32   C33   A    
C67   H89   S    
C51   O16   A    
C46   C47   A    
C38   H30   S    
C38   C43   A    
C40   H1    S    
C89   H13   S    
Cr2   O45   S    
C19   H55   S    
C12   H33   S    
C27   O61   S    
C113  C115  A    
C22   O43   S    
O60   S8    S    
C90   C91   A    
C39   O14   A    
C84   S3    S    
Cr6   O9    S    
C1    O13   A    
Cr4   O5    S    
C23   H70   S    
C64   C65   A    
Cr6   O2    S    
C100  C101  A    
C14   H35   S    
C33   C34   A    
C23   H72   S    
C26   H79   S    
O30   S2    D    
O51   S6    S    
C65   C66   A    
C22   H65   S    
C110  C112  A    
C41   C42   A    
C90   H11   S    
C86   H8    S    
C114  O6    A    
C79   C80   A    
H49   O31   S    
C28   H87   S    
C30   O28   S    
O53   S7    D    
C7    H25   S    
C73   H4    S    
H74   O54   S    
Cr3   O16   S    
C49   C50   A    
C72   C78   A    
C27   H83   S    
O29   S2    D    
C18   H52   S    
C104  C109  A    
C47   H67   S    
C61   C81   S    
C81   O64   A    
C103  O56   A    
C21   H63   S    
C14   H37   S    
C25   H77   S    
C6    S8    S    
C75   C79   S    
C71   C78   A    
C115  H14   S    
Cr1   O4    S    
C92   C99   S    
O50   S6    D    
C108  H18   S    
O31   S2    S    
