data_mof_unit_1170.cif
_audit_creation_date              2013-03-05T16:33:15-0500
_audit_creation_method            fapswitch 2.2
_symmetry_space_group_name_H-M    P1
_symmetry_Int_Tables_number       1
_space_group_crystal_system       triclinic
_cell_length_a                    27.814834
_cell_length_b                    10.889263
_cell_length_c                    9.531658
_cell_angle_alpha                 90.958769
_cell_angle_beta                  90.403136
_cell_angle_gamma                 90.328189
_cell_volume                      2886.45260041

loop_
_atom_site_label
_atom_site_type_symbol
_atom_site_description
_atom_site_fract_x
_atom_site_fract_y
_atom_site_fract_z
_atom_type_partial_charge
O1    O     O_R   0.500000 0.319640 0.618810 -0.571983
O2    O     O_R   0.500010 0.319680 0.381230 -0.569289
C1    C     C_R   0.500459 0.262480 0.498117 0.812444
O3    O     O_R   0.430260 0.500000 0.618780 -0.593411
O4    O     O_R   0.430270 0.500040 0.381190 -0.591804
C2    C     C_R   0.407436 0.499147 0.499429 0.803198
Cu1   Cu    Cu3+1 0.500000 0.499980 0.640670 1.014610
Cu2   Cu    Cu3+1 0.500000 0.500020 0.359330 1.002873
O5    O     O_R   0.499990 0.680320 0.618770 -0.573456
O6    O     O_R   0.500000 0.680360 0.381190 -0.590232
O7    O     O_R   0.569730 0.499960 0.618810 -0.555648
O8    O     O_R   0.569740 0.500000 0.381220 -0.585383
C3    C     C_R   0.499311 0.737108 0.500841 0.867466
C4    C     C_R   0.592357 0.502063 0.500304 0.890758
C5    C     C_R   0.177344 0.381661 0.521118 0.599239
O9    O     O_2   0.201651 0.276639 0.542524 -0.518367
N1    N     N_R   0.201978 0.488034 0.496376 -0.450744
C6    C     C_R   0.178557 0.596328 0.475635 0.581902
C7    C     C_R   0.278817 0.487231 0.364907 0.014642
C8    C     C_R   0.329290 0.492521 0.369128 -0.237842
C9    C     C_R   0.328717 0.493778 0.623365 -0.180888
C10   C     C_R   0.278718 0.489387 0.620989 -0.104740
C11   C     C_R   0.253511 0.486457 0.493267 0.282685
C12   C     C_R   0.101869 0.491225 0.499621 -0.042998
C13   C     C_R   0.126864 0.381246 0.523098 -0.022486
C14   C     C_R   0.101076 0.273249 0.546282 -0.136590
C15   C     C_R   0.128134 0.599780 0.476016 -0.019943
C16   C     C_R   0.354455 0.495721 0.497512 -0.059474
H1    H     H_    0.347165 0.495978 0.723831 0.174117
H2    H     H_    0.259284 0.489352 0.719063 0.163096
H3    H     H_    0.119415 0.187048 0.562390 0.190435
C17   C     C_R   0.645049 0.504716 0.499896 -0.157817
C18   C     C_R   0.973815 0.386354 0.535048 0.051376
C19   C     C_R   0.974980 0.603174 0.464249 -0.012392
C20   C     C_R   0.949057 0.495565 0.499314 0.075581
C21   C     C_R   0.946479 0.283827 0.577657 -0.187570
C22   C     C_R   0.896661 0.286655 0.579389 -0.097166
C23   C     C_R   0.871937 0.391573 0.538733 -0.014227
C24   C     C_R   0.897856 0.496905 0.498691 -0.080849
C25   C     C_R   0.872486 0.603043 0.458225 -0.143301
C26   C     C_R   0.821711 0.597286 0.451292 0.587997
N2    N     N_R   0.797547 0.495388 0.495670 -0.466832
C27   C     C_R   0.821556 0.393712 0.539273 0.568021
C28   C     C_R   0.719124 0.414446 0.414513 -0.051536
C29   C     C_R   0.669081 0.418251 0.415506 -0.236068
C30   C     C_R   0.671840 0.590853 0.582009 0.299040
C31   C     C_R   0.722143 0.583529 0.582638 -0.126772
C32   C     C_R   0.745873 0.496635 0.498642 0.253044
O10   O     O_2   0.796696 0.295085 0.583779 -0.489693
C33   C     C_R   0.024852 0.383270 0.528477 0.043706
C34   C     C_R   0.050738 0.492671 0.499756 0.072491
C35   C     C_R   0.026113 0.603519 0.471206 0.067702
C36   C     C_R   0.051149 0.273892 0.548634 -0.194257
H4    H     H_    0.648968 0.352785 0.351053 0.190728
H5    H     H_    0.737151 0.347859 0.347990 0.179188
H6    H     H_    0.877530 0.205342 0.612689 0.212421
H7    H     H_    0.962432 0.200067 0.613535 0.150102
H8    H     H_    0.034287 0.185899 0.563577 0.144499
O11   O     O_2   0.204050 0.700083 0.454146 -0.521745
C37   C     C_R   0.103672 0.709289 0.453797 -0.139135
H9    H     H_    0.349110 0.492741 0.271680 0.192864
H10   H     H_    0.123048 0.794448 0.437677 0.193167
C38   C     C_R   0.948781 0.707573 0.423665 -0.256377
C39   C     C_R   0.898689 0.709583 0.422875 0.362260
O12   O     O_2   0.796436 0.690949 0.397450 -0.442300
C40   C     C_R   0.053777 0.711482 0.451649 -0.192967
H11   H     H_    0.966129 0.791062 0.391959 0.170648
H12   H     H_    0.743290 0.648339 0.644954 0.199845
H13   H     H_    0.038195 0.800591 0.436995 0.145676
C41   C     C_R   0.505161 0.064650 0.615991 0.048131
C42   C     C_R   0.500699 0.129358 0.492483 -0.162669
C43   C     C_R   0.494749 0.058785 0.365601 -0.013000
C44   C     C_R   0.493143 0.930169 0.371372 -0.212029
H14   H     H_    0.488760 0.878000 0.274127 0.202092
C45   C     C_R   0.498185 0.869206 0.499757 -0.073514
C46   C     C_R   0.503218 0.940844 0.620472 0.062474
C47   C     C_3   0.510475 0.938016 0.776233 -0.282407
C48   C     C_3   0.512760 0.079841 0.770294 0.118966
H15   H     H_    0.544763 0.893667 0.807351 0.200735
H16   H     H_    0.482876 0.129849 0.822473 0.101024
C49   C     C_R   0.525337 0.587010 0.075941 0.293939
N3    N     N_R   0.500300 0.500930 0.147930 -0.192224
C50   C     C_R   0.470961 0.422679 0.072432 -0.006467
H17   H     H_    0.448088 0.358875 0.126885 0.141658
C51   C     C_R   0.471085 0.422317 0.923385 -0.016279
H18   H     H_    0.448476 0.357670 0.865764 0.126787
N4    N     N_R   0.500310 0.500890 0.852020 -0.188936
C52   C     C_R   0.525251 0.587189 0.928630 0.274629
C53   C     C_3   0.578011 0.610892 0.924640 -0.411803
C54   C     C_3   0.578147 0.609857 0.083707 -0.470672
H19   H     H_    0.598550 0.533607 0.877222 0.242649
H20   H     H_    0.586162 0.702979 0.882554 0.247839
H21   H     H_    0.598433 0.531173 0.126822 0.236032
H22   H     H_    0.586914 0.700794 0.132405 0.223180
C55   C     C_2   0.253758 0.481745 0.226125 0.882130
O13   O     O_2   0.275339 0.510074 0.119910 -0.598166
O14   O     O_R   0.205900 0.442547 0.215237 -0.754307
H23   H     H_    0.193276 0.442990 0.115204 0.341438
N5    N     N_R   0.649192 0.690176 0.657474 0.112704
O15   O     O_R   0.671042 0.742265 0.764228 -0.322569
O16   O     O_R   0.611068 0.742392 0.606482 -0.379391
N6    N     N_R   0.875544 0.823696 0.392912 0.164596
O17   O     O_R   0.851481 0.879999 0.491077 -0.285616
O18   O     O_R   0.887134 0.883384 0.280851 -0.322648
C56   C     C_2   0.490096 0.111922 0.224751 0.873216
O19   O     O_2   0.523920 0.167129 0.173542 -0.533531
O20   O     O_R   0.447761 0.092345 0.147628 -0.750320
H24   H     H_    0.448730 0.131705 0.052161 0.315559
C57   C     C_2   0.466971 0.892068 0.852927 0.858668
O21   O     O_2   0.472282 0.832247 0.959136 -0.604919
O22   O     O_R   0.420743 0.919696 0.804582 -0.748988
H25   H     H_    0.394666 0.884137 0.865882 0.353432
N7    N     N_R   0.560372 0.130520 0.804276 0.162507
O23   O     O_R   0.598904 0.085381 0.746780 -0.283089
O24   O     O_R   0.564180 0.225803 0.887768 -0.312382

loop_
_geom_bond_atom_site_label_1
_geom_bond_atom_site_label_2
_geom_bond_distance
_ccdc_geom_bond_type
C30   N5    1.439495 S    
C26   N2    1.368593 A    
C41   C48   1.490736 S    
C17   C29   1.403488 A    
C7    C11   1.415911 A    
C55   O13   1.223657 D    
C12   C15   1.408181 A    
N4    C52   1.363835 A    
O14   H23   1.013859 S    
C7    C55   1.491025 S    
Cu1   Cu2   2.681643 S    
C47   C48   1.547316 S    
C39   N6    1.434757 S    
C56   O20   1.397194 S    
N1    C11   1.434083 S    
C50   H17   1.080979 S    
Cu2   N3    2.015259 S    
C21   C22   1.386395 A    
C15   C37   1.394815 A    
C57   O22   1.398909 S    
C23   C24   1.410680 A    
N6    O18   1.301137 A    
O7    C4    1.297394 A    
C48   H16   1.112096 S    
C5    C13   1.404335 A    
C40   H13   1.075833 S    
C5    O9    1.349565 S    
C18   C21   1.413971 A    
C37   H10   1.083599 S    
C19   C20   1.418278 A    
C44   H14   1.084777 S    
C8    H9    1.083483 S    
O5    C3    1.292037 A    
C22   H6    1.083650 S    
C2    C16   1.473890 S    
C3    C45   1.439183 S    
O20   H24   1.012776 S    
C41   C42   1.387247 A    
C53   H19   1.111439 S    
C52   C53   1.489430 S    
C12   C34   1.422381 A    
C51   N4    1.369248 A    
C37   C40   1.388182 A    
C14   H3    1.083547 S    
C9    C10   1.391277 A    
C44   C45   1.408432 A    
O3    Cu1   1.949540 S    
C54   H22   1.111641 S    
C47   H15   1.112126 S    
C38   H11   1.075606 S    
C33   C36   1.416389 A    
C34   C35   1.420572 A    
C12   C13   1.408533 A    
O3    C2    1.298722 A    
C21   H7    1.076419 S    
C24   C25   1.415248 A    
C27   O10   1.349962 S    
C26   O12   1.348519 S    
C8    C16   1.405304 A    
C33   C34   1.420005 A    
C18   C33   1.421991 A    
C51   H18   1.081577 S    
C9    H1    1.083078 S    
C49   N3    1.362059 A    
O1    C1    1.298978 A    
C1    C42   1.449752 S    
C45   C46   1.385097 A    
C22   C23   1.395858 A    
Cu1   O7    1.952146 S    
C31   C32   1.400438 A    
Cu2   O8    1.949534 S    
N1    C6    1.367076 A    
N2    C32   1.437900 S    
C46   C47   1.497758 S    
C53   H20   1.109046 S    
C47   C57   1.505565 S    
C49   C54   1.489518 S    
C25   C26   1.414355 A    
C50   C51   1.420639 A    
C9    C16   1.401690 A    
O8    C4    1.293663 A    
C29   H4    1.083749 S    
C41   C46   1.350335 A    
C48   N7    1.463854 S    
N2    C27   1.365475 A    
C14   C36   1.389097 A    
C31   H12   1.083108 S    
C35   C40   1.417019 A    
C28   C29   1.392894 A    
C54   H21   1.111515 S    
N7    O23   1.302279 A    
Cu1   O5    1.978304 S    
C30   C31   1.401884 A    
C10   H2    1.083134 S    
O22   H25   1.013774 S    
N5    O16   1.301109 A    
O1    Cu1   1.971323 S    
C17   C30   1.416633 A    
O2    Cu2   1.978306 S    
C6    C15   1.403244 A    
C4    C17   1.465789 S    
C43   C44   1.402997 A    
O6    C3    1.288313 A    
O4    Cu2   1.952149 S    
C36   H8    1.076444 S    
C55   O14   1.398225 S    
C5    N1    1.367163 A    
C56   O19   1.222521 D    
C19   C35   1.423305 A    
C25   C39   1.413342 A    
N5    O15   1.301736 A    
C7    C8    1.405032 A    
O2    C1    1.285504 A    
C13   C14   1.395575 A    
C42   C43   1.430118 A    
C57   O21   1.221497 D    
C28   H5    1.082809 S    
O4    C2    1.297693 A    
C20   C24   1.424291 A    
C19   C38   1.411848 A    
C18   C20   1.422717 A    
N6    O17   1.301402 A    
C49   C52   1.404137 A    
C38   C39   1.393559 A    
C6    O11   1.349760 S    
C23   C27   1.401719 A    
Cu1   N4    2.014333 S    
C43   C56   1.475918 S    
Cu2   O6    1.971321 S    
N3    C50   1.368616 A    
C10   C11   1.400397 A    
C53   C54   1.516381 S    
C28   C32   1.399114 A    
N7    O24   1.300384 A    
