data_mof_unit_4190.cif
_audit_creation_date              2013-03-05T16:47:34-0500
_audit_creation_method            fapswitch 2.2
_symmetry_space_group_name_H-M    P1
_symmetry_Int_Tables_number       1
_space_group_crystal_system       triclinic
_cell_length_a                    15.66362
_cell_length_b                    8.917457
_cell_length_c                    8.170269
_cell_angle_alpha                 89.974414
_cell_angle_beta                  87.761092
_cell_angle_gamma                 89.867343
_cell_volume                      1140.34606206

loop_
_atom_site_label
_atom_site_type_symbol
_atom_site_description
_atom_site_fract_x
_atom_site_fract_y
_atom_site_fract_z
_atom_type_partial_charge
O1    O     O_R   0.500000 0.285340 0.636850 -0.615561
O2    O     O_R   0.500000 0.285340 0.363150 -0.616504
H1    H     H_    0.070675 0.676153 0.494842 0.246618
H2    H     H_    0.079166 0.576696 0.306293 0.222847
H3    H     H_    0.928771 0.673917 0.484808 0.238727
H4    H     H_    0.937072 0.575801 0.294982 0.217522
C1    C     C_R   0.499987 0.218261 0.500024 0.924676
O3    O     O_R   0.377140 0.500000 0.636930 -0.613820
O4    O     O_R   0.377140 0.500000 0.363070 -0.615183
O5    O     O_R   0.622860 0.500000 0.636930 -0.615506
O6    O     O_R   0.622860 0.500000 0.363070 -0.618835
C2    C     C_R   0.337614 0.499793 0.503355 0.883639
C3    C     C_R   0.662382 0.499041 0.496854 0.891791
Zn1   Zn    Zn3+2 0.500000 0.499990 0.682780 0.975031
Zn2   Zn    Zn3+2 0.500000 0.499990 0.317220 0.971549
C4    C     C_1   0.499937 0.934717 0.499970 -0.202302
O7    O     O_R   0.500000 0.714650 0.636900 -0.611864
O8    O     O_R   0.500000 0.714650 0.363100 -0.613826
C5    C     C_1   0.499948 0.065279 0.500035 -0.205937
C6    C     C_R   0.499956 0.781721 0.499980 0.933457
C7    C     C_3   0.044075 0.427165 0.705508 0.782887
C8    C     C_3   0.056509 0.283369 0.425505 0.807350
C9    C     C_3   0.939690 0.426399 0.697686 0.771195
C10   C     C_3   0.953140 0.283694 0.417774 0.822704
N1    N     N_1   0.500000 0.500030 0.073640 -0.039961
N2    N     N_1   0.500000 0.500030 0.926360 -0.040115
C11   C     C_1   0.751028 0.476740 0.490511 -0.246713
C12   C     C_1   0.248928 0.479031 0.512708 -0.245856
C13   C     C_3   0.082730 0.430133 0.523905 -0.071841
C14   C     C_3   0.916779 0.428911 0.509546 -0.060453
C15   C     C_3   0.954789 0.570144 0.425530 -0.549922
C16   C     C_3   0.050734 0.570966 0.433317 -0.535909
C17   C     C_1   0.825579 0.452072 0.494175 0.068776
C18   C     C_1   0.174286 0.454889 0.520835 0.083285
O9    O     O_3   0.902631 0.297601 0.777986 -0.661957
C19   C     C_3   0.812274 0.291001 0.793112 -0.224142
H5    H     H_    0.793768 0.218513 0.897848 0.148341
H6    H     H_    0.786289 0.232953 0.686019 0.194205
H7    H     H_    0.780909 0.401179 0.814289 0.187591
O10   O     O_3   0.917308 0.153802 0.498680 -0.625669
C20   C     C_3   0.931652 0.016446 0.413475 -0.192340
H8    H     H_    0.962102 0.935993 0.496857 0.198664
H9    H     H_    0.973248 0.026115 0.300310 0.184994
H10   H     H_    0.869429 0.967714 0.381143 0.133155
O11   O     O_3   0.088614 0.303956 0.780268 -0.671705
C21   C     C_3   0.044265 0.198438 0.878675 -0.209619
H11   H     H_    0.007749 0.119650 0.803211 0.246097
H12   H     H_    0.006310 0.252150 0.978808 0.254843
H13   H     H_    0.091868 0.125973 0.936521 0.151526
O12   O     O_3   0.077316 0.141864 0.501394 -0.632712
C22   C     C_3   0.161356 0.103391 0.545006 -0.258159
H14   H     H_    0.156199 0.033663 0.657323 0.191635
H15   H     H_    0.203434 0.196403 0.574327 0.175631
H16   H     H_    0.192360 0.029078 0.451707 0.138696
O13   O     O_3   0.087684 0.296506 0.258371 -0.637099
C23   C     C_3   0.165899 0.226153 0.215314 -0.316989
H17   H     H_    0.156954 0.103270 0.204202 0.176556
H18   H     H_    0.217905 0.256461 0.296285 0.166045
H19   H     H_    0.187427 0.267207 0.092524 0.191183
O14   O     O_3   0.067776 0.567655 0.776899 -0.624353
C24   C     C_3   0.123489 0.556803 0.908376 -0.248463
H20   H     H_    0.093671 0.492712 0.011771 0.207559
H21   H     H_    0.136240 0.671475 0.953737 0.152111
H22   H     H_    0.185839 0.506696 0.868063 0.201310
O15   O     O_3   0.930665 0.290622 0.249320 -0.640136
C25   C     C_3   0.846319 0.245224 0.216347 -0.329874
H23   H     H_    0.805328 0.213418 0.324548 0.188219
H24   H     H_    0.850155 0.146460 0.134151 0.179496
H25   H     H_    0.813751 0.337973 0.153409 0.176247
O16   O     O_3   0.905338 0.562200 0.768266 -0.616237
C26   C     C_3   0.907446 0.569197 0.941286 -0.203906
H26   H     H_    0.841211 0.573236 0.994187 0.147437
H27   H     H_    0.939124 0.675015 0.976085 0.177218
H28   H     H_    0.941794 0.475391 0.997990 0.202656

loop_
_geom_bond_atom_site_label_1
_geom_bond_atom_site_label_2
_geom_bond_distance
_ccdc_geom_bond_type
C26   H28   1.104932 S    
C25   H24   1.107882 S    
O13   C23   1.407567 S    
C9    C14   1.592223 S    
O10   C20   1.422200 S    
O16   C26   1.416702 S    
C8    C13   1.599097 S    
O3    C2    1.275595 A    
Zn2   O8    1.950743 S    
O6    C3    1.277076 A    
C20   H8    1.108911 S    
C7    O11   1.447786 S    
O9    C19   1.417234 S    
C21   H13   1.105413 S    
C23   H19   1.108162 S    
C8    O12   1.447810 S    
C14   C15   1.543568 S    
C4    C6    1.364330 S    
C22   H16   1.107292 S    
C24   H20   1.108324 S    
C19   H6    1.108338 S    
C25   H23   1.109269 S    
O4    Zn2   1.946135 S    
C12   C18   1.188613 T    
C26   H26   1.108732 S    
H2    C16   1.114428 S    
O11   C21   1.404668 S    
C11   C17   1.189294 T    
C24   H22   1.111268 S    
O2    Zn2   1.950405 S    
C20   H9    1.113521 S    
Zn1   O7    1.950415 S    
C8    O13   1.436962 S    
O6    Zn2   1.974865 S    
C10   O15   1.435151 S    
C2    C12   1.400968 S    
C4    C5    1.164281 T    
O8    C6    1.268451 A    
C19   H5    1.102322 S    
C10   O10   1.437697 S    
C23   H18   1.103440 S    
O12   C22   1.418436 S    
C13   C16   1.549646 S    
C9    O9    1.435000 S    
C7    C9    1.638815 S    
O2    C1    1.267984 A    
H1    C16   1.115411 S    
C20   H10   1.109379 S    
C8    C10   1.622832 S    
Zn2   N1    1.990114 S    
C25   H25   1.107652 S    
O4    C2    1.281237 A    
C10   C14   1.589839 S    
C22   H14   1.108685 S    
C21   H12   1.101462 S    
O7    C6    1.268314 A    
C23   H17   1.109250 S    
C7    O14   1.437818 S    
C24   H21   1.109051 S    
O15   C25   1.418569 S    
O5    Zn1   1.946134 S    
C26   H27   1.109464 S    
C21   H11   1.109390 S    
C3    C11   1.401184 S    
C1    C5    1.364211 S    
H4    C15   1.113662 S    
O1    Zn1   1.950734 S    
O3    Zn1   1.974866 S    
C14   C17   1.453189 S    
H3    C15   1.113657 S    
N1    N2    1.203316 T    
O1    C1    1.268127 A    
C7    C13   1.580708 S    
C13   C18   1.450741 S    
C19   H7    1.108100 S    
Zn1   N2    1.990114 S    
C15   C16   1.506719 S    
O14   C24   1.413359 S    
C22   H15   1.093069 S    
O5    C3    1.279735 A    
C9    O16   1.435948 S    
