data_mof_unit_3167.cif
_audit_creation_date              2012-12-10T17:25:14-0500
_audit_creation_method            fapswitch 2.2
_symmetry_space_group_name_H-M    P1
_symmetry_Int_Tables_number       1
_space_group_crystal_system       triclinic
_cell_length_a                    27.771091
_cell_length_b                    10.75511
_cell_length_c                    9.621627
_cell_angle_alpha                 89.836128
_cell_angle_beta                  89.668704
_cell_angle_gamma                 92.79097
_cell_volume                      2870.32749219

loop_
_atom_site_label
_atom_site_type_symbol
_atom_type_description
_atom_site_fract_x
_atom_site_fract_y
_atom_site_fract_z
_atom_type_partial_charge
C1    C     C_R   0.499248 0.262693 0.500081 0.788899
C2    C     C_R   0.972174 0.392404 0.442714 0.041234
C3    C     C_R   0.977172 0.616331 0.495283 0.038743
C4    C     C_R   0.407596 0.498430 0.500012 0.813420
C5    C     C_R   0.949392 0.504442 0.471870 0.079769
C6    C     C_R   0.943100 0.285842 0.407131 -0.214528
C7    C     C_R   0.893045 0.288287 0.407998 -0.142545
C8    C     C_R   0.870285 0.396178 0.446985 -0.022298
C9    C     C_R   0.898421 0.504134 0.480701 -0.047514
C10   C     C_R   0.875625 0.611444 0.524680 -0.016090
C11   C     C_R   0.825063 0.609843 0.530246 0.531834
C12   C     C_R   0.278109 0.436777 0.390887 -0.213312
C13   C     C_R   0.819849 0.398913 0.453044 0.535059
C14   C     C_R   0.721728 0.510560 0.621864 -0.101438
C15   C     C_R   0.671460 0.509040 0.623595 -0.222224
C16   C     C_R   0.499987 0.737148 0.499765 0.753990
C17   C     C_R   0.670915 0.500123 0.371612 -0.222203
C18   C     C_R   0.721121 0.501386 0.370238 -0.106048
C19   C     C_R   0.746701 0.506242 0.495230 0.357227
C20   C     C_R   0.023014 0.390284 0.453871 0.057337
C21   C     C_R   0.050659 0.504461 0.466017 0.043750
C22   C     C_R   0.027758 0.619702 0.470799 -0.012556
C23   C     C_R   0.253477 0.498896 0.495308 0.300296
C24   C     C_R   0.047146 0.277631 0.456713 -0.211999
C25   C     C_R   0.106923 0.728640 0.468343 -0.149408
C26   C     C_R   0.953820 0.717897 0.552999 -0.238203
C27   C     C_R   0.903814 0.716542 0.564810 -0.144362
C28   C     C_R   0.592483 0.500977 0.499630 0.767016
C29   C     C_R   0.056827 0.732115 0.452448 0.140278
C30   C     C_R   0.412909 0.117058 0.585646 -0.148292
C31   C     C_R   0.371678 0.045822 0.624908 -0.145413
C32   C     C_R   0.372200 0.916603 0.626935 -0.121213
C33   C     C_R   0.413750 0.857728 0.587924 -0.173216
C34   C     C_R   0.101559 0.503206 0.473686 -0.050732
C35   C     C_R   0.455637 0.927914 0.545710 0.103128
C36   C     C_R   0.455321 0.059162 0.545391 0.084912
C37   C     C_R   0.496994 0.128482 0.499853 -0.102132
C38   C     C_R   0.537220 0.069340 0.450083 -0.179168
C39   C     C_R   0.537408 0.940873 0.449598 -0.206548
C40   C     C_R   0.174903 0.390226 0.489410 0.532819
C41   C     C_R   0.497429 0.870518 0.499366 -0.074075
C42   C     C_R   0.564722 0.664012 0.142333 -0.122039
C43   C     C_R   0.596735 0.743488 0.069652 -0.206886
C44   C     C_R   0.596894 0.743316 0.926393 -0.195719
C45   C     C_R   0.124561 0.389431 0.477414 -0.006436
C46   C     C_R   0.565057 0.663625 0.854882 -0.116262
C47   C     C_R   0.532166 0.579768 0.924538 0.118229
C48   C     C_R   0.531908 0.580292 0.073931 0.190293
C49   C     C_R   0.469721 0.423880 0.075591 -0.156354
C50   C     C_R   0.467609 0.427945 0.927367 0.520847
C51   C     C_R   0.179962 0.612261 0.486956 0.550764
C52   C     C_R   0.279617 0.559082 0.601831 -0.108661
C53   C     C_R   0.329796 0.559312 0.602365 -0.326349
C54   C     C_R   0.328482 0.431021 0.394319 0.404252
C55   C     C_3   0.337287 0.237687 0.299656 0.042613
C56   C     C_R   0.096956 0.277428 0.469336 -0.152268
C57   C     C_3   0.375580 0.159766 0.233924 -0.775837
C58   C     C_3   0.037123 0.853526 0.399880 -0.438973
C59   C     C_3   0.062968 0.902591 0.268275 -0.812696
C60   C     C_3   0.386537 0.395111 0.896036 0.051230
C61   C     C_3   0.347696 0.312553 0.827435 -0.771284
C62   C     C_R   0.129499 0.615565 0.479148 -0.069797
C63   C     C_R   0.354615 0.496408 0.498667 -0.121483
C64   C     C_R   0.645570 0.503301 0.498385 -0.037435
Cu1   Cu    Cu3+1 0.500000 0.499990 0.640660 0.968759
Cu2   Cu    Cu3+1 0.500000 0.500010 0.359340 0.952945
H1    H     H_    0.261054 0.606842 0.683620 0.159745
H2    H     H_    0.257941 0.392368 0.307173 0.150192
H3    H     H_    0.340114 0.861740 0.657239 0.150665
H4    H     H_    0.412467 0.757255 0.588541 0.132484
H5    H     H_    0.569100 0.895999 0.412217 0.132838
H6    H     H_    0.445935 0.359941 0.133230 0.180207
H7    H     H_    0.567222 0.672687 0.251877 0.190282
H8    H     H_    0.621421 0.806266 0.125230 0.155590
H9    H     H_    0.621653 0.806128 0.869893 0.159215
H10   H     H_    0.567528 0.673074 0.745254 0.194925
H11   H     H_    0.113747 0.188616 0.472629 0.183947
H12   H     H_    0.128614 0.815045 0.465358 0.193129
H13   H     H_    0.652949 0.512103 0.722815 0.164295
H14   H     H_    0.741303 0.514098 0.718890 0.142753
H15   H     H_    0.872237 0.204470 0.379614 0.188548
H16   H     H_    0.958173 0.199929 0.374781 0.140335
H17   H     H_    0.028226 0.187664 0.454797 0.138214
H18   H     H_    0.349227 0.609668 0.683310 0.159513
H19   H     H_    0.303329 0.222304 0.240172 0.166867
H20   H     H_    0.331360 0.203891 0.408434 0.150160
H21   H     H_    0.410720 0.178290 0.286170 0.250471
H22   H     H_    0.364943 0.059332 0.244943 0.220133
H23   H     H_    0.974057 0.798531 0.592352 0.148494
H24   H     H_    0.379606 0.182431 0.121782 0.242756
H25   H     H_    0.100476 0.936406 0.290882 0.251416
H26   H     H_    0.063363 0.828543 0.188048 0.263950
H27   H     H_    0.043660 0.982291 0.225855 0.239626
H28   H     H_    0.998770 0.841244 0.369911 0.224873
H29   H     H_    0.040569 0.925353 0.482496 0.195684
H30   H     H_    0.382435 0.493042 0.862710 0.153250
H31   H     H_    0.379664 0.389042 0.009715 0.164337
H32   H     H_    0.350350 0.215042 0.863593 0.241059
H33   H     H_    0.311562 0.344796 0.855850 0.213736
H34   H     H_    0.652020 0.496192 0.273448 0.165336
H35   H     H_    0.351683 0.316630 0.712966 0.241516
H36   H     H_    0.887380 0.798140 0.605862 0.186433
H37   H     H_    0.740239 0.498391 0.271982 0.141359
H38   H     H_    0.568794 0.123083 0.413106 0.150324
H39   H     H_    0.410955 0.217154 0.583072 0.148082
H40   H     H_    0.338926 0.090645 0.652155 0.142649
N1    N     N_R   0.201683 0.500626 0.492254 -0.450011
N2    N     N_R   0.798329 0.504976 0.493214 -0.468392
N3    N     N_R   0.500460 0.501210 0.147910 -0.219039
N4    N     N_R   0.500480 0.501290 0.852040 -0.233497
O1    O     O_R   0.500000 0.319640 0.618810 -0.530555
O2    O     O_R   0.569730 0.499970 0.618800 -0.600606
O3    O     O_R   0.569740 0.499990 0.381230 -0.600868
O4    O     O_2   0.196915 0.281369 0.498918 -0.561771
O5    O     O_3   0.352764 0.364933 0.294466 -0.594526
O6    O     O_3   0.432814 0.355417 0.858485 -0.554670
O7    O     O_2   0.792488 0.296197 0.420039 -0.535796
O8    O     O_2   0.207126 0.719801 0.486367 -0.551039
O9    O     O_2   0.802779 0.712584 0.570609 -0.539357
O10   O     O_R   0.500000 0.319660 0.381240 -0.576784
O11   O     O_R   0.430260 0.500010 0.618770 -0.565083
O12   O     O_R   0.430270 0.500030 0.381200 -0.531068
O13   O     O_R   0.500000 0.680340 0.618760 -0.601866
O14   O     O_R   0.500000 0.680360 0.381190 -0.590107

loop_
_geom_bond_atom_site_label_1
_geom_bond_atom_site_label_2
_ccdc_geom_bond_type
C10   C27   A    
C8    C13   A    
C6    H16   S    
Cu2   O3    S    
C35   C36   A    
C50   N4    A    
C43   C44   A    
C11   O9    S    
C46   H10   S    
C7    C8    A    
C39   C41   A    
C61   H33   S    
C28   O2    A    
C26   H23   S    
C12   H2    S    
C12   C23   A    
C26   C27   A    
C53   H18   S    
C36   C37   A    
C22   C29   A    
C24   H17   S    
C17   C64   A    
C30   C31   A    
C31   C32   A    
C54   C63   A    
C34   C62   A    
C51   O8    S    
C18   C19   A    
Cu1   O1    S    
C38   H38   S    
C15   H13   S    
C20   C24   A    
C45   C56   A    
C8    C9    A    
C49   H6    S    
C15   C64   A    
Cu2   O12   S    
Cu1   O11   S    
C9    C10   A    
C1    C37   S    
C18   H37   S    
C19   N2    S    
C43   H8    S    
C48   N3    A    
Cu2   O10   S    
C21   C22   A    
C2    C6    A    
C51   C62   A    
C13   N2    A    
C44   C46   A    
C25   C29   A    
C40   C45   A    
C40   O4    S    
C57   H24   S    
C2    C20   A    
C25   H12   S    
C60   H31   S    
C28   O3    A    
C42   C48   A    
C21   C34   A    
C58   C59   S    
C56   H11   S    
C57   H21   S    
C60   C61   S    
C1    O10   A    
C55   H19   S    
C44   H9    S    
C61   H35   S    
C58   H29   S    
Cu1   O2    S    
C5    C9    A    
C37   C38   A    
C47   C48   A    
C4    C63   S    
C23   N1    S    
C54   O5    S    
C17   C18   A    
C4    O12   A    
C34   C45   A    
C59   H25   S    
C29   C58   S    
C6    C7    A    
C52   H1    S    
C33   H4    S    
C40   N1    A    
C28   C64   S    
C7    H15   S    
Cu1   Cu2   S    
C14   H14   S    
C55   C57   S    
C30   H39   S    
C31   H40   S    
Cu2   O14   S    
C60   O6    S    
C2    C5    A    
C42   C43   A    
C60   H30   S    
C52   C53   A    
C49   N3    A    
C46   C47   A    
C42   H7    S    
C14   C19   A    
C16   O13   A    
C3    C26   A    
C3    C5    A    
C13   O7    S    
C32   H3    S    
C24   C56   A    
C47   N4    A    
C27   H36   S    
C57   H22   S    
C30   C36   A    
C32   C33   A    
C55   H20   S    
C16   O14   A    
C1    O1    A    
C53   C63   A    
C61   H32   S    
C23   C52   A    
C38   C39   A    
C55   O5    S    
C33   C35   A    
C4    O11   A    
C50   O6    S    
C25   C62   A    
Cu1   O13   S    
Cu2   N3    S    
C58   H28   S    
C35   C41   A    
C17   H34   S    
Cu1   N4    S    
C10   C11   A    
C20   C21   A    
C51   N1    A    
C49   C50   A    
C11   N2    A    
C39   H5    S    
C14   C15   A    
C3    C22   A    
C59   H26   S    
C59   H27   S    
C16   C41   S    
C12   C54   A    
