data_mof_unit_2738.cif
_audit_creation_date              2012-12-11T16:32:31-0500
_audit_creation_method            fapswitch 2.2
_symmetry_space_group_name_H-M    P1
_symmetry_Int_Tables_number       1
_space_group_crystal_system       triclinic
_cell_length_a                    6.976304
_cell_length_b                    14.614963
_cell_length_c                    15.768876
_cell_angle_alpha                 89.992471
_cell_angle_beta                  89.869414
_cell_angle_gamma                 89.976638
_cell_volume                      1607.76543525

loop_
_atom_site_label
_atom_site_type_symbol
_atom_type_description
_atom_site_fract_x
_atom_site_fract_y
_atom_site_fract_z
_atom_type_partial_charge
O1    O     O_R   0.361630 0.167340 0.164570 -0.551137
O2    O     O_R   0.638370 0.832660 0.835430 -0.526382
O3    O     O_R   0.690860 0.157560 0.338690 -0.541682
O4    O     O_R   0.309140 0.842440 0.661310 -0.539701
O5    O     O_R   0.861260 0.336420 0.339380 -0.540153
O6    O     O_R   0.138740 0.663580 0.660620 -0.539427
C1    C     C_R   0.521823 0.134641 0.367898 0.660161
C2    C     C_R   0.478177 0.865370 0.632114 0.661065
O7    O     O_R   0.691330 0.156310 0.165190 -0.528916
O8    O     O_R   0.308670 0.843690 0.834810 -0.552867
O9    O     O_R   0.861730 0.335160 0.164640 -0.519036
O10   O     O_R   0.138270 0.664840 0.835360 -0.548518
C3    C     C_R   0.523207 0.135276 0.135562 0.716410
C4    C     C_R   0.477524 0.864375 0.864665 0.710515
O11   O     O_R   0.361150 0.168600 0.339320 -0.535565
O12   O     O_R   0.638850 0.831400 0.660680 -0.536818
O13   O     O_3   0.527950 0.310560 0.252000 -0.366810
O14   O     O_3   0.472050 0.689440 0.748000 -0.367572
V1    V     V_3+5 0.802770 0.240990 0.251980 1.424784
V2    V     V_3+5 0.197230 0.759010 0.748020 1.386066
O15   O     O_R   0.191450 0.346190 0.165260 -0.551775
O16   O     O_R   0.808550 0.653810 0.834740 -0.527171
C5    C     C_R   0.022927 0.362426 0.132344 0.785847
C6    C     C_R   0.976100 0.638021 0.867903 0.791467
O17   O     O_R   0.190980 0.347440 0.338770 -0.541182
O18   O     O_R   0.809020 0.652560 0.661230 -0.542030
C7    C     C_R   0.021767 0.369482 0.367612 0.665274
C8    C     C_R   0.978198 0.630642 0.632282 0.665493
V3    V     V_3+5 0.302780 0.262760 0.251980 1.391768
V4    V     V_3+5 0.697220 0.737240 0.748020 1.427895
O19   O     O_3   0.027730 0.193200 0.251960 -0.383037
O20   O     O_3   0.972270 0.806800 0.748040 -0.382002
C9    C     C_3   0.822126 0.476551 0.476124 -0.108104
C10   C     C_3   0.177732 0.523754 0.523601 -0.107890
C11   C     C_3   0.906123 0.463723 0.566223 -0.150018
C12   C     C_3   0.093695 0.536585 0.433495 -0.149535
H1    H     H_    0.827675 0.434285 0.621103 0.100737
H2    H     H_    0.171565 0.566184 0.378505 0.100805
H3    H     H_    0.675052 0.457011 0.456372 0.110653
H4    H     H_    0.324811 0.543290 0.543349 0.110523
C13   C     C_3   0.989751 0.561031 0.561951 -0.000591
C14   C     C_3   0.010115 0.439256 0.437797 -0.000626
C15   C     C_3   0.905789 0.574663 0.472615 -0.146090
C16   C     C_3   0.094045 0.425642 0.527135 -0.146179
H5    H     H_    0.827907 0.636431 0.450458 0.093140
H6    H     H_    0.171903 0.363874 0.549306 0.093979
H7    H     H_    0.993105 0.341697 0.735444 0.128298
H8    H     H_    0.963234 0.657473 0.265581 0.129276
C17   C     C_R   0.940236 0.686364 0.051561 0.383019
C18   C     C_R   0.977580 0.312669 0.949666 0.378553
C19   C     C_R   0.933207 0.706766 0.138650 -0.177817
C20   C     C_R   0.973118 0.291796 0.862541 -0.179167
C21   C     C_R   0.966494 0.640086 0.198848 -0.214397
C22   C     C_R   0.993032 0.359433 0.802094 -0.213267
C23   C     C_R   0.997707 0.550568 0.173864 -0.139477
C24   C     C_R   0.003238 0.450112 0.826718 -0.140117
C25   C     C_R   0.995792 0.525215 0.087108 0.023449
C26   C     C_R   0.996381 0.475426 0.913440 0.022542
C27   C     C_R   0.973187 0.594340 0.024007 -0.026276
C28   C     C_R   0.994638 0.405758 0.976694 -0.020418
C29   C     C_R   0.008414 0.431673 0.063828 -0.164107
C30   C     C_R   0.984232 0.568950 0.936631 -0.165819
H9    H     H_    0.900210 0.775397 0.160000 0.139558
H10   H     H_    0.949669 0.222366 0.841074 0.135705
H11   H     H_    0.018468 0.501210 0.224057 0.104582
H12   H     H_    0.011739 0.500104 0.776331 0.106111
C31   C     C_3   0.403572 0.970698 0.431688 -0.143174
C32   C     C_3   0.596414 0.029329 0.568347 -0.143779
C33   C     C_3   0.576640 0.921027 0.472866 -0.139802
C34   C     C_3   0.423350 0.079001 0.527165 -0.139998
H13   H     H_    0.640122 0.855807 0.450106 0.092290
H14   H     H_    0.359865 0.144221 0.549920 0.092510
H15   H     H_    0.323585 0.946228 0.375302 0.098568
H16   H     H_    0.676313 0.053796 0.624762 0.099589
C35   C     C_3   0.488908 0.937316 0.561583 -0.009746
C36   C     C_3   0.511084 0.062710 0.438446 -0.009408
C37   C     C_3   0.315672 0.986372 0.521003 -0.108673
C38   C     C_3   0.684321 0.013655 0.479030 -0.109125
H17   H     H_    0.162963 0.975397 0.538129 0.104677
H18   H     H_    0.837031 0.024629 0.461906 0.104332
H19   H     H_    0.487794 0.827057 0.256917 0.111328
H20   H     H_    0.503343 0.172678 0.743542 0.111487
C39   C     C_R   0.537547 0.187075 0.957655 -0.109592
C40   C     C_R   0.494185 0.811472 0.042322 -0.099855
C41   C     C_R   0.529088 0.214994 0.873266 -0.126272
C42   C     C_R   0.488116 0.783960 0.126878 -0.126439
C43   C     C_R   0.508729 0.150681 0.809056 -0.150259
C44   C     C_R   0.491002 0.848801 0.191296 -0.152191
C45   C     C_R   0.496185 0.057970 0.828806 -0.141994
C46   C     C_R   0.500635 0.941614 0.171592 -0.139942
C47   C     C_R   0.501093 0.027722 0.914029 0.055984
C48   C     C_R   0.503912 0.971599 0.086283 0.053999
C49   C     C_R   0.519071 0.093760 0.979981 0.038769
C50   C     C_R   0.495620 0.905236 0.020191 0.048572
C51   C     C_R   0.489353 0.933381 0.933960 -0.205057
C52   C     C_R   0.515465 0.065971 0.066337 -0.208834
H21   H     H_    0.553350 0.239693 0.005411 0.125022
H22   H     H_    0.494581 0.758410 0.994452 0.113646
H23   H     H_    0.539070 0.286970 0.857643 0.129986
H24   H     H_    0.482928 0.711856 0.142458 0.128290
H25   H     H_    0.481713 0.010485 0.776584 0.094899
H26   H     H_    0.505119 0.989437 0.223913 0.093391
O21   O     O_3   0.894147 0.755199 0.994979 -0.568040
C53   C     C_3   0.043439 0.820134 0.994450 0.067713
H27   H     H_    0.170307 0.788482 0.964776 0.130158
H28   H     H_    0.081519 0.845131 0.058911 0.121068
C54   C     C_3   0.984656 0.903204 0.943369 -0.638962
H29   H     H_    0.859738 0.935747 0.973387 0.208620
H30   H     H_    0.103439 0.952894 0.939331 0.166115
H31   H     H_    0.948320 0.884158 0.878306 0.257703
O22   O     O_3   0.936341 0.243614 0.006859 -0.568481
C55   C     C_3   0.085304 0.178595 0.005515 0.070783
H32   H     H_    0.213897 0.210283 0.033321 0.131190
H33   H     H_    0.119377 0.153156 0.940779 0.123891
C56   C     C_3   0.028539 0.095793 0.057475 -0.645612
H34   H     H_    0.889927 0.069653 0.035001 0.215861
H35   H     H_    0.137759 0.041536 0.052348 0.164047
H36   H     H_    0.016351 0.113073 0.124729 0.254747

loop_
_geom_bond_atom_site_label_1
_geom_bond_atom_site_label_2
_ccdc_geom_bond_type
C26   C30   A    
O6    C8    A    
O13   V3    S    
C12   C14   S    
O22   C55   S    
C31   C37   S    
O4    C2    A    
V1    O19   S    
C53   H28   S    
C32   C35   S    
O9    V1    S    
C9    H3    S    
C10   H4    S    
C9    C14   S    
C11   H1    S    
C36   C38   S    
O3    C1    A    
C38   H18   S    
C25   C27   A    
C32   H16   S    
H20   C43   S    
C39   C49   A    
C8    C13   S    
C48   C52   A    
C42   C44   A    
C33   H13   S    
O7    C3    A    
C55   H32   S    
C9    C11   S    
O5    C7    A    
O7    V1    S    
C46   H26   S    
C16   H6    S    
C17   C19   A    
C18   C20   A    
C54   H29   S    
O3    V1    S    
C31   H15   S    
C45   C47   A    
C42   H24   S    
O14   V2    S    
C37   H17   S    
C2    O12   A    
C34   C37   S    
C32   C38   S    
C13   C15   S    
C33   C38   S    
C10   C13   S    
C14   C16   S    
C11   C13   S    
O1    V3    S    
C53   H27   S    
C23   H11   S    
C20   C22   A    
O11   V3    S    
C21   C23   A    
O17   V3    S    
H8    C21   S    
C22   C24   A    
C41   C43   A    
C9    C15   S    
C19   H9    S    
C20   H10   S    
O8    V2    S    
C1    O11   A    
C3    C52   S    
C56   H35   S    
O15   V3    S    
C2    C35   S    
C28   C29   A    
C19   C21   A    
C41   H23   S    
C47   C49   A    
C15   H5    S    
C46   C48   A    
C56   H36   S    
O10   V2    S    
C48   C50   A    
C10   C16   S    
C40   C50   A    
C11   C16   S    
C35   C37   S    
H7    C22   S    
O14   V4    S    
C55   H33   S    
C39   C41   A    
C44   C46   A    
O18   V4    S    
C49   C52   A    
O15   C5    A    
C34   C36   S    
C54   H31   S    
O16   C6    A    
O1    C3    A    
O12   V4    S    
C12   H2    S    
C4    C51   S    
V2    O20   S    
C27   C30   A    
C6    C30   S    
O16   V4    S    
C45   H25   S    
C40   C42   A    
C17   O21   S    
C25   C29   A    
C1    C36   S    
O5    V1    S    
O17   C7    A    
O6    V2    S    
O10   C6    A    
O18   C8    A    
C17   C27   A    
O2    V4    S    
C40   H22   S    
C23   C25   A    
C18   C28   A    
V3    O19   S    
V4    O20   S    
C7    C14   S    
C54   H30   S    
C24   H12   S    
O9    C5    A    
C18   O22   S    
O13   V1    S    
C24   C26   A    
C33   C35   S    
C10   C12   S    
C53   C54   S    
C50   C51   A    
O2    C4    A    
H19   C44   S    
C47   C51   A    
O4    V2    S    
C5    C29   S    
C32   C34   S    
C39   H21   S    
O21   C53   S    
C43   C45   A    
C12   C15   S    
C34   H14   S    
C31   C36   S    
C31   C33   S    
C26   C28   A    
C55   C56   S    
C56   H34   S    
O8    C4    A    
