data_mof_unit_2803.cif
_audit_creation_date              2012-12-11T16:19:12-0500
_audit_creation_method            fapswitch 2.2
_symmetry_space_group_name_H-M    P1
_symmetry_Int_Tables_number       1
_space_group_crystal_system       triclinic
_cell_length_a                    6.887993
_cell_length_b                    31.655585
_cell_length_c                    34.940407
_cell_angle_alpha                 90.000191
_cell_angle_beta                  89.999657
_cell_angle_gamma                 89.999763
_cell_volume                      7618.52681275

loop_
_atom_site_label
_atom_site_type_symbol
_atom_type_description
_atom_site_fract_x
_atom_site_fract_y
_atom_site_fract_z
_atom_type_partial_charge
O1    O     O_R   0.417270 0.211480 0.210950 -0.522337
O2    O     O_R   0.582730 0.788520 0.789050 -0.552717
O3    O     O_R   0.582730 0.788520 0.710950 -0.522337
O4    O     O_R   0.417270 0.211480 0.289050 -0.552708
O5    O     O_R   0.917270 0.288520 0.289050 -0.522336
O6    O     O_R   0.082730 0.711480 0.710950 -0.552717
O7    O     O_R   0.082730 0.711480 0.789050 -0.522336
O8    O     O_R   0.917270 0.288520 0.210950 -0.552702
O9    O     O_R   0.746940 0.206370 0.288750 -0.519730
O10   O     O_R   0.253060 0.793630 0.711250 -0.550242
O11   O     O_R   0.253060 0.793630 0.788750 -0.519732
O12   O     O_R   0.746940 0.206370 0.211250 -0.550280
O13   O     O_R   0.246940 0.293630 0.211250 -0.519727
O14   O     O_R   0.753060 0.706370 0.788750 -0.550234
O15   O     O_R   0.753060 0.706370 0.711250 -0.519733
O16   O     O_R   0.246940 0.293630 0.288750 -0.550254
C1    C     C_R   0.577657 0.195650 0.301999 0.700122
C2    C     C_R   0.421855 0.804231 0.697963 0.693351
C3    C     C_R   0.422343 0.804352 0.801998 0.700124
C4    C     C_R   0.578148 0.195772 0.197960 0.693378
C5    C     C_R   0.077658 0.304349 0.198001 0.700096
C6    C     C_R   0.921855 0.695769 0.802037 0.693360
C7    C     C_R   0.922344 0.695649 0.698002 0.700119
C8    C     C_R   0.078145 0.304229 0.302039 0.693370
O17   O     O_3   0.583760 0.276950 0.250000 -0.357795
O18   O     O_3   0.416240 0.723050 0.750000 -0.357806
O19   O     O_3   0.083760 0.223050 0.250000 -0.357816
O20   O     O_3   0.916240 0.776950 0.750000 -0.357809
V1    V     V_3+5 0.858600 0.245000 0.250000 1.509914
V2    V     V_3+5 0.141400 0.755000 0.750000 1.509948
V3    V     V_3+5 0.358600 0.255000 0.250000 1.509951
V4    V     V_3+5 0.641400 0.745000 0.750000 1.509958
C9    C     C_R   0.918940 0.585954 0.538493 0.607732
C10   C     C_R   0.974155 0.412649 0.460702 0.613067
C11   C     C_R   0.081076 0.414038 0.038489 0.607741
C12   C     C_R   0.025551 0.587338 0.960697 0.613028
C13   C     C_R   0.418898 0.914053 0.961503 0.607730
C14   C     C_R   0.474076 0.087361 0.039290 0.613088
C15   C     C_R   0.580997 0.085964 0.461514 0.607732
C16   C     C_R   0.525775 0.912661 0.539308 0.613048
N1    N     N_R   0.926748 0.571834 0.575466 -0.548677
N2    N     N_R   0.990626 0.427044 0.423926 -0.549662
N3    N     N_R   0.073132 0.428156 0.075462 -0.548684
N4    N     N_R   0.009229 0.572942 0.923919 -0.549635
N5    N     N_R   0.426704 0.928173 0.924529 -0.548676
N6    N     N_R   0.490554 0.072967 0.076066 -0.549671
N7    N     N_R   0.573203 0.071843 0.424541 -0.548674
N8    N     N_R   0.509297 0.927056 0.576083 -0.549654
C17   C     C_R   0.943123 0.529564 0.583423 0.579340
C18   C     C_R   0.991658 0.469498 0.416129 0.571963
C19   C     C_R   0.056601 0.470423 0.083418 0.579360
C20   C     C_R   0.008327 0.530487 0.916122 0.571959
C21   C     C_R   0.443065 0.970443 0.916572 0.579335
C22   C     C_R   0.491589 0.030512 0.083864 0.571964
C23   C     C_R   0.556829 0.029573 0.416585 0.579345
C24   C     C_R   0.508254 0.969512 0.583879 0.571963
C25   C     C_R   0.937379 0.499012 0.553541 -0.116603
C26   C     C_R   0.959909 0.499642 0.445707 -0.114420
C27   C     C_R   0.062311 0.500978 0.053538 -0.116598
C28   C     C_R   0.040088 0.500348 0.945702 -0.114447
C29   C     C_R   0.437311 0.000996 0.946453 -0.116603
C30   C     C_R   0.459842 0.000368 0.054287 -0.114419
C31   C     C_R   0.562563 0.999021 0.446467 -0.116606
C32   C     C_R   0.540001 0.999655 0.554301 -0.114422
C33   C     C_R   0.939852 0.513718 0.515146 0.000011
C34   C     C_R   0.952933 0.484881 0.484063 0.000009
C35   C     C_R   0.059994 0.486272 0.015142 0.000010
C36   C     C_R   0.046909 0.515108 0.984058 0.000019
C37   C     C_R   0.439787 0.986290 0.984848 0.000013
C38   C     C_R   0.452862 0.015128 0.015931 0.000008
C39   C     C_R   0.560077 0.013729 0.484862 0.000009
C40   C     C_R   0.546989 0.984893 0.515946 0.000012
C41   C     C_R   0.930483 0.557367 0.507747 -0.070063
C42   C     C_R   0.960240 0.441207 0.491439 -0.072408
C43   C     C_R   0.069524 0.442625 0.007743 -0.070078
C44   C     C_R   0.039447 0.558780 0.991435 -0.072380
C45   C     C_R   0.430430 0.942641 0.992248 -0.070063
C46   C     C_R   0.460160 0.058802 0.008554 -0.072421
C47   C     C_R   0.569441 0.057378 0.492260 -0.070063
C48   C     C_R   0.539690 0.941219 0.508570 -0.072399
C49   C     C_R   0.934554 0.454602 0.560290 -0.062205
C50   C     C_R   0.939829 0.543803 0.438769 -0.061673
C51   C     C_R   0.064956 0.545387 0.060288 -0.062193
C52   C     C_R   0.060337 0.456191 0.938764 -0.061678
C53   C     C_R   0.434473 0.045405 0.939704 -0.062209
C54   C     C_R   0.439770 0.956207 0.061226 -0.061670
C55   C     C_R   0.565393 0.954611 0.439719 -0.062198
C56   C     C_R   0.560071 0.043816 0.561239 -0.061678
C57   C     C_R   0.949554 0.426638 0.529253 -0.098885
C58   C     C_R   0.929082 0.571809 0.469837 -0.097954
C59   C     C_R   0.049963 0.573350 0.029250 -0.098917
C60   C     C_R   0.071084 0.428185 0.969833 -0.097932
C61   C     C_R   0.449468 0.073370 0.970740 -0.098871
C62   C     C_R   0.429031 0.928200 0.030158 -0.097957
C63   C     C_R   0.550387 0.926648 0.470756 -0.098898
C64   C     C_R   0.570826 0.071821 0.530170 -0.097947
O21   O     O_2   0.900897 0.627697 0.531470 -0.495431
O22   O     O_2   0.971838 0.370691 0.467546 -0.491695
O23   O     O_2   0.099264 0.372299 0.031468 -0.495408
O24   O     O_2   0.027743 0.629296 0.967543 -0.491760
O25   O     O_2   0.400868 0.872311 0.968526 -0.495437
O26   O     O_2   0.471754 0.129319 0.032445 -0.491657
O27   O     O_2   0.599038 0.127707 0.468536 -0.495426
O28   O     O_2   0.528100 0.870703 0.532464 -0.491723
O29   O     O_2   0.971369 0.517606 0.620008 -0.504645
O30   O     O_2   0.029604 0.482166 0.380084 -0.507799
O31   O     O_2   0.028242 0.482375 0.120002 -0.504646
O32   O     O_2   0.970497 0.517816 0.880073 -0.507788
O33   O     O_2   0.471307 0.982400 0.879986 -0.504647
O34   O     O_2   0.529540 0.017846 0.119909 -0.507800
O35   O     O_2   0.528594 0.017614 0.379999 -0.504642
O36   O     O_2   0.470300 0.982179 0.619924 -0.507799
H1    H     H_    0.948040 0.392936 0.534739 0.211514
H2    H     H_    0.914666 0.605340 0.464220 0.211545
H3    H     H_    0.051345 0.607052 0.034737 0.211497
H4    H     H_    0.085630 0.394657 0.964217 0.211558
H5    H     H_    0.447947 0.107073 0.965254 0.211520
H6    H     H_    0.414623 0.894669 0.035776 0.211543
H7    H     H_    0.551905 0.892946 0.465271 0.211509
H8    H     H_    0.585236 0.105353 0.535787 0.211547
C65   C     C_R   0.869111 0.392614 0.364158 0.463382
C66   C     C_R   0.769829 0.603864 0.633153 0.448327
C67   C     C_R   0.130823 0.607376 0.864158 0.463481
C68   C     C_R   0.230079 0.396141 0.133152 0.448239
C69   C     C_R   0.369073 0.107396 0.135838 0.463294
C70   C     C_R   0.269801 0.896138 0.866842 0.448343
C71   C     C_R   0.630840 0.892627 0.635849 0.463418
C72   C     C_R   0.730146 0.103868 0.366854 0.448303
C73   C     C_R   0.900664 0.365125 0.333225 0.360541
C74   C     C_R   0.779179 0.631801 0.664359 0.384941
C75   C     C_R   0.099320 0.634871 0.833227 0.360713
C76   C     C_R   0.220770 0.368203 0.164357 0.384967
C77   C     C_R   0.400657 0.134880 0.166773 0.360399
C78   C     C_R   0.279163 0.868200 0.835638 0.384939
C79   C     C_R   0.599317 0.865132 0.666779 0.360651
C80   C     C_R   0.720810 0.131804 0.335647 0.384954
C81   C     C_R   0.065270 0.337683 0.332455 -0.306920
C82   C     C_R   0.931240 0.662343 0.667271 -0.309621
C83   C     C_R   0.934719 0.662313 0.832452 -0.306963
C84   C     C_R   0.068759 0.337650 0.167267 -0.309566
C85   C     C_R   0.565272 0.162319 0.167542 -0.306897
C86   C     C_R   0.431234 0.837660 0.832727 -0.309635
C87   C     C_R   0.434725 0.837687 0.667549 -0.306936
C88   C     C_R   0.568760 0.162347 0.332732 -0.309611
C89   C     C_R   0.208000 0.342026 0.361894 -0.089100
C90   C     C_R   0.085160 0.660656 0.639854 -0.094649
C91   C     C_R   0.791945 0.657964 0.861881 -0.089151
C92   C     C_R   0.914866 0.339320 0.139845 -0.094665
C93   C     C_R   0.707983 0.157978 0.138098 -0.089056
C94   C     C_R   0.585155 0.839351 0.860143 -0.094644
C95   C     C_R   0.291980 0.842032 0.638114 -0.089132
C96   C     C_R   0.414842 0.160666 0.360150 -0.094654
C97   C     C_R   0.180040 0.372279 0.390942 -0.075092
C98   C     C_R   0.080639 0.629909 0.610783 -0.068403
C99   C     C_R   0.819843 0.627704 0.890924 -0.075149
C100  C     C_R   0.919339 0.370066 0.110774 -0.068415
C101  C     C_R   0.679989 0.127730 0.109047 -0.075038
C102  C     C_R   0.580620 0.870099 0.889213 -0.068403
C103  C     C_R   0.319907 0.872289 0.609069 -0.075129
C104  C     C_R   0.419343 0.129921 0.389222 -0.068402
H9    H     H_    0.288122 0.376287 0.413187 0.191752
H10   H     H_    0.197787 0.628080 0.590134 0.193750
H11   H     H_    0.711721 0.623696 0.913162 0.191735
H12   H     H_    0.802205 0.371881 0.090121 0.193727
H13   H     H_    0.788058 0.123720 0.086800 0.191769
H14   H     H_    0.697767 0.871932 0.909862 0.193752
H15   H     H_    0.211813 0.876296 0.586825 0.191732
H16   H     H_    0.302191 0.128096 0.409870 0.193750
C105  C     C_R   0.012007 0.396946 0.392929 0.155741
C106  C     C_R   0.924291 0.602182 0.606546 0.152367
C107  C     C_R   0.987878 0.603039 0.892919 0.155696
C108  C     C_R   0.075630 0.397809 0.106541 0.152418
C109  C     C_R   0.511950 0.103065 0.107063 0.155759
C110  C     C_R   0.424260 0.897824 0.893450 0.152363
C111  C     C_R   0.487931 0.896959 0.607081 0.155735
C112  C     C_R   0.575678 0.102190 0.393460 0.152371
C113  C     C_2   0.900949 0.435787 0.598667 0.522783
H17   H     H_    0.810570 0.451682 0.619567 0.112124
O37   O     O_2   0.969429 0.401398 0.606977 -0.486038
C114  C     C_2   0.913950 0.561979 0.399908 0.521808
H18   H     H_    0.840153 0.544325 0.377680 0.112345
O38   O     O_2   0.969811 0.597701 0.392605 -0.485707
C115  C     C_2   0.098352 0.564207 0.098670 0.522779
H19   H     H_    0.188751 0.548333 0.119578 0.112136
O39   O     O_2   0.029664 0.598578 0.106974 -0.486067
C116  C     C_2   0.086411 0.438021 0.899907 0.521824
H20   H     H_    0.160185 0.455693 0.877686 0.112340
O40   O     O_2   0.030748 0.402287 0.892597 -0.485689
C117  C     C_2   0.400859 0.064219 0.901326 0.522790
H21   H     H_    0.310485 0.048323 0.880427 0.112120
O41   O     O_2   0.469328 0.098609 0.893015 -0.486032
C118  C     C_2   0.413894 0.938032 0.100087 0.521803
H22   H     H_    0.340095 0.955686 0.122315 0.112347
O42   O     O_2   0.469759 0.902310 0.107391 -0.485711
C119  C     C_2   0.599011 0.935795 0.401343 0.522770
H23   H     H_    0.689396 0.951689 0.380444 0.112124
O43   O     O_2   0.530533 0.901406 0.393032 -0.486045
C120  C     C_2   0.585933 0.061994 0.600099 0.521817
H24   H     H_    0.659729 0.044341 0.622329 0.112345
O44   O     O_2   0.530059 0.097715 0.607401 -0.485700
O45   O     O_3   0.697423 0.415227 0.364703 -0.587272
H25   H     H_    0.677837 0.427705 0.390376 0.300713
O46   O     O_3   0.608315 0.578136 0.630279 -0.586080
H26   H     H_    0.604177 0.565041 0.604580 0.299640
O47   O     O_3   0.302518 0.584766 0.864711 -0.587236
H27   H     H_    0.322084 0.572293 0.890387 0.300693
O48   O     O_3   0.391541 0.421886 0.130282 -0.586072
H28   H     H_    0.395649 0.434988 0.104586 0.299656
O49   O     O_3   0.197376 0.084787 0.135295 -0.587311
H29   H     H_    0.177773 0.072312 0.109620 0.300712
O50   O     O_3   0.108277 0.921864 0.869716 -0.586080
H30   H     H_    0.104133 0.934960 0.895414 0.299640
O51   O     O_3   0.802517 0.915244 0.635305 -0.587248
H31   H     H_    0.822085 0.927727 0.609633 0.300712
O52   O     O_3   0.891652 0.078137 0.369730 -0.586080
H32   H     H_    0.895784 0.065045 0.395430 0.299637
O53   O     O_3   0.765605 0.366069 0.304049 -0.592271
H33   H     H_    0.834699 0.361641 0.279505 0.296161
O54   O     O_3   0.635672 0.628080 0.691696 -0.583886
H34   H     H_    0.696420 0.632197 0.717130 0.297144
O55   O     O_3   0.234427 0.633932 0.804058 -0.592236
H35   H     H_    0.165371 0.638364 0.779511 0.296144
O56   O     O_3   0.364263 0.371934 0.191695 -0.583862
H36   H     H_    0.303523 0.367807 0.217128 0.297146
O57   O     O_3   0.265617 0.133933 0.195953 -0.592311
H37   H     H_    0.334729 0.138357 0.220495 0.296171
O58   O     O_3   0.135656 0.871918 0.808301 -0.583886
H38   H     H_    0.196409 0.867802 0.782867 0.297146
O59   O     O_3   0.734391 0.866074 0.695953 -0.592247
H39   H     H_    0.665312 0.861639 0.720498 0.296145
O60   O     O_3   0.864323 0.128079 0.308312 -0.583876
H40   H     H_    0.803583 0.132196 0.282877 0.297149
C121  C     C_2   0.384573 0.314914 0.364406 0.518875
H41   H     H_    0.401906 0.286965 0.347174 0.023241
O61   O     O_2   0.515377 0.323348 0.386747 -0.513531
C122  C     C_2   0.249772 0.691117 0.639323 0.525093
H42   H     H_    0.239008 0.721707 0.652677 0.008060
O62   O     O_2   0.401324 0.682527 0.622915 -0.513903
C123  C     C_2   0.615398 0.685083 0.864388 0.519170
H43   H     H_    0.598289 0.713077 0.847209 0.023028
O63   O     O_2   0.484379 0.676601 0.886662 -0.513578
C124  C     C_2   0.750347 0.308838 0.139310 0.525247
H44   H     H_    0.761257 0.278237 0.152642 0.007901
O64   O     O_2   0.598723 0.317423 0.122926 -0.513884
C125  C     C_2   0.884575 0.185086 0.135583 0.518650
H45   H     H_    0.902108 0.212987 0.152860 0.023492
O65   O     O_2   0.015180 0.176702 0.113190 -0.513535
C126  C     C_2   0.749786 0.808895 0.860674 0.525061
H46   H     H_    0.739053 0.778306 0.847317 0.008091
O66   O     O_2   0.901322 0.817487 0.877085 -0.513907
C127  C     C_2   0.115428 0.814916 0.635603 0.519044
H47   H     H_    0.098227 0.786941 0.652801 0.023123
O67   O     O_2   0.984498 0.823378 0.613305 -0.513563
C128  C     C_2   0.250258 0.191134 0.360681 0.525165
H48   H     H_    0.261070 0.221728 0.347334 0.008001
O68   O     O_2   0.098683 0.182547 0.377081 -0.513900

loop_
_geom_bond_atom_site_label_1
_geom_bond_atom_site_label_2
_ccdc_geom_bond_type
O17   V3    S    
C65   C105  A    
O46   H26   S    
C56   C64   A    
O18   V4    S    
C119  O43   D    
O49   H29   S    
C89   C121  S    
O12   V1    S    
O19   V1    S    
C76   O56   S    
C28   C52   A    
O45   H25   S    
C7    C82   S    
C52   C116  S    
O56   H36   S    
C10   N2    A    
C86   C94   A    
O52   H32   S    
C69   C109  A    
C84   C92   A    
C59   H3    S    
C96   C104  A    
C85   C93   A    
C127  H47   S    
O51   H31   S    
C126  H46   S    
O16   V3    S    
C94   C126  S    
C101  C109  A    
C30   C54   A    
C83   C91   A    
C128  H48   S    
C13   O25   S    
C1    C88   S    
O8    V1    S    
C42   C57   A    
C81   C89   A    
C2    C87   S    
C54   C62   A    
C41   C58   A    
C70   O50   S    
C26   C50   A    
C127  O67   D    
C38   C46   A    
C46   C61   A    
C29   C37   A    
C34   C42   A    
C45   C62   A    
O1    V3    S    
C40   C48   A    
C17   C25   A    
C122  H42   S    
C30   C38   A    
O3    C2    A    
O2    V4    S    
C56   C120  S    
C117  O41   D    
O58   H38   S    
C16   N8    A    
C128  O68   D    
C20   C28   A    
C27   C35   A    
C21   C29   A    
C26   C34   A    
C76   C84   A    
C123  H43   S    
O11   V2    S    
C103  H15   S    
C100  H12   S    
C113  O37   D    
C23   C31   A    
C124  O64   D    
C16   C48   A    
C120  H24   S    
C91   C99   A    
C121  H41   S    
N7    C112  S    
C70   C110  A    
O9    V1    S    
N8    C111  S    
C49   C57   A    
N4    C20   A    
C32   C40   A    
C92   C124  S    
N5    C21   A    
O16   C8    A    
O7    V2    S    
C103  C111  A    
C125  H45   S    
C71   C111  A    
C104  C112  A    
O12   C4    A    
C74   O54   S    
C61   H5    S    
C19   O31   S    
C11   O23   S    
N1    C17   A    
C68   C76   A    
C126  O66   D    
O57   H37   S    
C19   C27   A    
O5    V1    S    
O17   V1    S    
O10   C2    A    
C80   O60   S    
C90   C122  S    
C72   C112  A    
O19   V3    S    
C35   C36   A    
C18   C26   A    
O20   V4    S    
O13   C5    A    
C75   C83   A    
C123  O63   D    
C73   O53   S    
C33   C41   A    
C101  H13   S    
O54   H34   S    
C13   N5    A    
C69   O49   S    
C71   O51   S    
C102  C110  A    
C95   C127  S    
C14   C46   A    
C67   O47   S    
C99   H11   S    
O53   H33   S    
O47   H27   S    
C13   C45   A    
C6    C83   S    
C100  C108  A    
C64   H8    S    
C31   C55   A    
C39   C47   A    
O48   H28   S    
C55   C63   A    
C22   O34   S    
C95   C103  A    
C66   O46   S    
C115  H19   S    
O55   H35   S    
C27   C51   A    
N2    C105  S    
C44   C59   A    
C78   C86   A    
C121  O61   D    
O10   V2    S    
O50   H30   S    
C68   C108  A    
C57   H1    S    
C78   O58   S    
O11   C3    A    
N6    C22   A    
C24   C32   A    
O8    C5    A    
N6    C109  S    
C73   C81   A    
C117  H21   S    
C75   O55   S    
C55   C119  S    
O9    C1    A    
C48   C63   A    
C52   C60   A    
C60   H4    S    
C28   C36   A    
C31   C39   A    
C29   C53   A    
C43   C60   A    
N2    C18   A    
C66   C106  A    
O4    C1    A    
C9    C41   A    
O6    V2    S    
C72   C80   A    
C10   C42   A    
O18   V2    S    
C3    C86   S    
C125  O65   D    
C68   O48   S    
C90   C98   A    
C25   C49   A    
C12   N4    A    
C23   O35   S    
C35   C43   A    
C116  O40   D    
C74   C82   A    
C11   N3    A    
C114  H18   S    
C102  H14   S    
C15   N7    A    
C58   H2    S    
C69   C77   A    
C89   C97   A    
N8    C24   A    
C51   C115  S    
O1    C4    A    
C93   C125  S    
C87   C95   A    
C94   C102  A    
C67   C75   A    
O2    C3    A    
C54   C118  S    
C4    C85   S    
C98   H10   S    
C11   C43   A    
C65   C73   A    
C120  O44   D    
O15   V4    S    
C17   O29   S    
N3    C108  S    
C12   O24   S    
C15   O27   S    
C91   C123  S    
C8    C81   S    
C36   C44   A    
O7    C6    A    
C51   C59   A    
N1    C106  S    
C77   C85   A    
C50   C58   A    
C37   C45   A    
C9    N1    A    
C118  H22   S    
O14   C6    A    
C115  O39   D    
C16   O28   S    
N4    C107  S    
C49   C113  S    
O20   V2    S    
C80   C88   A    
C24   O36   S    
N5    C110  S    
C77   O57   S    
C114  O38   D    
C96   C128  S    
O13   V3    S    
C62   H6    S    
C98   C106  A    
N3    C19   A    
O5    C8    A    
C93   C101  A    
C32   C56   A    
C82   C90   A    
C97   H9    S    
O6    C7    A    
C124  H44   S    
O15   C7    A    
C79   C87   A    
C10   O22   S    
C122  O62   D    
C9    O21   S    
C104  H16   S    
C97   C105  A    
O3    V4    S    
C71   C79   A    
C37   C38   A    
C14   N6    A    
O4    V3    S    
C63   H7    S    
C113  H17   S    
C72   O52   S    
C65   O45   S    
C119  H23   S    
C99   C107  A    
N7    C23   A    
C47   C64   A    
C53   C61   A    
O14   V4    S    
C70   C78   A    
C14   O26   S    
C33   C34   A    
C79   O59   S    
C50   C114  S    
O60   H40   S    
C18   O30   S    
O59   H39   S    
C22   C30   A    
C20   O32   S    
C21   O33   S    
C92   C100  A    
C5    C84   S    
C39   C40   A    
C116  H20   S    
C53   C117  S    
C12   C44   A    
C66   C74   A    
C67   C107  A    
C88   C96   A    
C15   C47   A    
C25   C33   A    
C118  O42   D    
