data_mof_unit_1408.cif
_audit_creation_date              2012-12-10T19:07:36-0500
_audit_creation_method            fapswitch 2.2
_symmetry_space_group_name_H-M    P1
_symmetry_Int_Tables_number       1
_space_group_crystal_system       triclinic
_cell_length_a                    10.796097
_cell_length_b                    10.896085
_cell_length_c                    9.561236
_cell_angle_alpha                 90.761288
_cell_angle_beta                  89.549307
_cell_angle_gamma                 92.152971
_cell_volume                      1123.8140982

loop_
_atom_site_label
_atom_site_type_symbol
_atom_type_description
_atom_site_fract_x
_atom_site_fract_y
_atom_site_fract_z
_atom_type_partial_charge
C1    C     C_R   0.499697 0.262548 0.498602 0.846263
C2    C     C_R   0.932168 0.400219 0.559776 0.006584
C3    C     C_3   0.917695 0.338575 0.697315 -0.565248
C4    C     C_3   0.059728 0.348140 0.708292 0.372278
C5    C     C_R   0.503246 0.066645 0.619664 -0.019973
C6    C     C_R   0.492268 0.129287 0.495133 -0.253887
C7    C     C_R   0.473656 0.061434 0.369219 0.374582
C8    C     C_R   0.461982 0.932508 0.372428 0.372296
C9    C     C_R   0.487192 0.870469 0.497926 -0.262069
C10   C     C_R   0.504269 0.939932 0.620116 -0.056151
C11   C     C_3   0.605696 0.943515 0.727149 0.384192
C12   C     C_R   0.262481 0.498781 0.500423 0.778149
C13   C     C_3   0.603865 0.082492 0.725749 -0.453563
C14   C     C_R   0.549687 0.597234 0.075135 0.228567
C15   C     C_R   0.434759 0.412498 0.074632 -0.204368
C16   C     C_R   0.434016 0.411023 0.923626 0.593003
C17   C     C_R   0.549946 0.597678 0.928944 0.076633
C18   C     C_3   0.677930 0.656862 0.927401 0.310310
C19   C     C_3   0.676786 0.652702 0.086591 -0.540403
C20   C     C_R   0.497060 0.737497 0.500086 0.852105
C21   C     C_R   0.737242 0.497627 0.499077 0.788321
C22   C     C_R   0.059030 0.404644 0.566350 0.024551
C23   C     C_R   0.129144 0.496518 0.498652 -0.044783
C24   C     C_R   0.068064 0.576065 0.409932 -0.228508
C25   C     C_R   0.938535 0.575294 0.408684 -0.229514
C26   C     C_R   0.870052 0.492897 0.493735 -0.018167
Cu1   Cu    Cu3+1 0.499990 0.499980 0.640670 1.030301
Cu2   Cu    Cu3+1 0.500010 0.500020 0.359330 0.960675
H1    H     H_    0.120064 0.642288 0.347178 0.139203
H2    H     H_    0.571114 0.122250 0.825724 0.161693
H3    H     H_    0.688987 0.129660 0.684245 0.185411
H4    H     H_    0.383149 0.344073 0.134070 0.182243
H5    H     H_    0.676985 0.751181 0.887164 0.119207
H6    H     H_    0.677431 0.745321 0.136795 0.169812
H7    H     H_    0.743527 0.588440 0.130482 0.221125
H8    H     H_    0.892385 0.642317 0.346873 0.135126
H9    H     H_    0.866140 0.392706 0.775342 0.265926
H10   H     H_    0.882414 0.242070 0.684860 0.150164
H11   H     H_    0.106460 0.258781 0.708338 0.084337
H12   H     H_    0.570123 0.907692 0.828472 0.070472
N1    N     N_R   0.500790 0.500930 0.147930 -0.196698
N2    N     N_R   0.500790 0.500890 0.852020 -0.211465
O1    O     O_R   0.500000 0.319640 0.618810 -0.536977
O2    O     O_R   0.500010 0.319680 0.381230 -0.551465
O3    O     O_R   0.319650 0.499970 0.618810 -0.519480
O4    O     O_R   0.319660 0.500010 0.381230 -0.598903
O5    O     O_R   0.499990 0.680320 0.618770 -0.586971
O6    O     O_R   0.500000 0.680360 0.381190 -0.536266
O7    O     O_R   0.680340 0.499990 0.618770 -0.525516
O8    O     O_R   0.680350 0.500030 0.381190 -0.603922
O9    O     O_3   0.722148 0.893769 0.689823 -0.592422
C27   C     C_3   0.764791 0.916965 0.551769 -0.317225
H13   H     H_    0.729862 0.001273 0.504561 0.147912
H14   H     H_    0.741242 0.836543 0.483433 0.164370
H15   H     H_    0.867340 0.927516 0.553640 0.167388
O10   O     O_3   0.362167 0.326915 0.844962 -0.526037
C28   C     C_3   0.334119 0.215418 0.914033 -0.353953
H16   H     H_    0.300376 0.146439 0.835497 0.184900
H17   H     H_    0.259292 0.226317 0.992546 0.152546
H18   H     H_    0.416290 0.178266 0.964602 0.174373
O11   O     O_3   0.768176 0.581999 0.867209 -0.550679
C29   C     C_3   0.879191 0.653200 0.849852 -0.313604
H19   H     H_    0.918111 0.683043 0.952731 0.151341
H20   H     H_    0.866028 0.733627 0.782207 0.206220
H21   H     H_    0.948359 0.597514 0.795371 0.231576
O12   O     O_3   0.103980 0.433671 0.810493 -0.534407
C30   C     C_3   0.071850 0.392954 0.946290 -0.282523
H22   H     H_    0.061668 0.291193 0.954746 0.131841
H23   H     H_    0.984058 0.434016 0.980916 0.177128
H24   H     H_    0.145205 0.425802 0.019842 0.183321
O13   O     O_3   0.472157 0.119582 0.241557 -0.570150
C31   C     C_3   0.592845 0.118054 0.183154 -0.286195
H25   H     H_    0.598672 0.181856 0.093858 0.164777
H26   H     H_    0.613385 0.024762 0.142856 0.175089
H27   H     H_    0.665352 0.150391 0.258943 0.139183
O14   O     O_3   0.441213 0.868355 0.248511 -0.557054
C32   C     C_3   0.312681 0.862307 0.223425 -0.280965
H28   H     H_    0.260393 0.820374 0.312713 0.129020
H29   H     H_    0.294900 0.803083 0.129908 0.174933
H30   H     H_    0.277767 0.954743 0.201060 0.170065

loop_
_geom_bond_atom_site_label_1
_geom_bond_atom_site_label_2
_ccdc_geom_bond_type
C21   C26   S    
C21   O7    A    
C7    C8    A    
C32   H28   S    
C12   C23   S    
Cu2   O4    S    
C7    O13   S    
C5    C6    A    
C28   H17   S    
C15   C16   A    
Cu2   N1    S    
C8    O14   S    
O9    C27   S    
O10   C28   S    
C18   C19   S    
C17   N2    A    
C29   H20   S    
C9    C20   S    
C24   H1    S    
Cu2   O8    S    
C1    O1    A    
C3    H10   S    
C8    C9    A    
C2    C22   A    
C23   C24   A    
C9    C10   A    
C5    C13   S    
C27   H15   S    
Cu1   O3    S    
O12   C30   S    
C14   C17   A    
C11   H12   S    
C31   H27   S    
C21   O8    A    
C27   H14   S    
C32   H29   S    
C30   H22   S    
C13   H2    S    
C15   H4    S    
C24   C25   A    
C15   N1    A    
C31   H26   S    
C12   O3    A    
C28   H18   S    
C25   C26   A    
Cu2   O2    S    
C1    C6    S    
C30   H23   S    
C16   O10   S    
C29   H19   S    
C4    C22   S    
C1    O2    A    
C4    H11   S    
C17   C18   S    
C2    C26   A    
O14   C32   S    
C20   O6    A    
C14   N1    A    
C12   O4    A    
C3    C4    S    
C16   N2    A    
C27   H13   S    
C32   H30   S    
Cu1   O5    S    
Cu2   O6    S    
C29   H21   S    
C14   C19   S    
C13   H3    S    
C31   H25   S    
C19   H6    S    
C18   O11   S    
C6    C7    A    
C30   H24   S    
C2    C3    S    
C5    C10   A    
C19   H7    S    
C4    O12   S    
C11   C13   S    
Cu1   N2    S    
C28   H16   S    
O11   C29   S    
C18   H5    S    
C20   O5    A    
C11   O9    S    
C10   C11   S    
C25   H8    S    
Cu1   O1    S    
O13   C31   S    
C3    H9    S    
Cu1   Cu2   S    
C22   C23   A    
Cu1   O7    S    
