data_mof_unit_4466.cif
_audit_creation_date              2012-12-10T17:41:00-0500
_audit_creation_method            fapswitch 2.2
_symmetry_space_group_name_H-M    P1
_symmetry_Int_Tables_number       1
_space_group_crystal_system       triclinic
_cell_length_a                    15.031904
_cell_length_b                    15.530737
_cell_length_c                    10.026707
_cell_angle_alpha                 86.893545
_cell_angle_beta                  85.047168
_cell_angle_gamma                 90.976641
_cell_volume                      2328.0780423

loop_
_atom_site_label
_atom_site_type_symbol
_atom_type_description
_atom_site_fract_x
_atom_site_fract_y
_atom_site_fract_z
_atom_type_partial_charge
C1    C     C_R   0.379233 0.879266 0.508037 0.923755
C2    C     C_R   0.664408 0.272313 0.444577 -0.189418
C3    C     C_R   0.240593 0.298403 0.378799 -0.069691
C4    C     C_R   0.169171 0.768258 0.439606 -0.167604
C5    C     C_R   0.692983 0.813222 0.493414 -0.160533
C6    C     C_R   0.689693 0.186408 0.477089 -0.137011
C7    C     C_R   0.184796 0.311825 0.497746 -0.150123
C8    C     C_R   0.191843 0.683139 0.476164 -0.091802
C9    C     C_R   0.336250 0.998030 0.157072 -0.109715
C10   C     C_R   0.835631 0.507034 0.153948 -0.118075
C11   C     C_R   0.256622 0.985840 0.098021 0.288691
C12   C     C_R   0.382371 0.121498 0.500544 0.925557
C13   C     C_R   0.756613 0.517230 0.090267 0.355603
C14   C     C_R   0.259741 0.957340 0.969348 -0.168518
C15   C     C_R   0.757914 0.513760 0.951062 -0.150826
C16   C     C_R   0.339626 0.970729 0.887439 -0.090803
C17   C     C_R   0.839584 0.504195 0.877034 -0.104017
C18   C     C_R   0.420585 0.989972 0.939861 0.071787
C19   C     C_R   0.920317 0.501453 0.936861 0.095568
C20   C     C_R   0.420015 0.994006 0.082579 0.106579
C21   C     C_R   0.919523 0.500856 0.080541 0.117181
C22   C     C_R   0.576384 0.012045 0.058945 -0.099241
C23   C     C_R   0.876969 0.381466 0.508269 0.951280
C24   C     C_R   0.076653 0.508252 0.059219 -0.071110
C25   C     C_R   0.621680 0.118866 0.493043 0.908504
C26   C     C_R   0.619839 0.877890 0.498409 0.973744
C27   C     C_R   0.122268 0.617816 0.493009 0.904261
C28   C     C_R   0.119125 0.379486 0.498741 0.971273
C29   C     C_R   0.576200 0.006525 0.917636 0.387172
C30   C     C_R   0.076576 0.500301 0.918318 0.430575
C31   C     C_R   0.259758 0.143877 0.731050 0.284880
C32   C     C_R   0.360575 0.712476 0.702269 0.466990
C33   C     C_R   0.851442 0.739069 0.736096 0.412894
C34   C     C_R   0.891581 0.628475 0.498621 0.912872
C35   C     C_R   0.833725 0.224168 0.724742 0.460192
C36   C     C_R   0.230277 0.171705 0.856344 -0.242356
C37   C     C_R   0.384694 0.627169 0.731166 -0.209279
C38   C     C_R   0.799065 0.741387 0.857530 -0.241842
C39   C     C_R   0.858632 0.140605 0.764222 -0.221559
C40   C     C_R   0.706855 0.747439 0.857058 0.340653
C41   C     C_R   0.854416 0.074859 0.675234 0.416345
C42   C     C_R   0.161350 0.229545 0.860514 0.450785
C43   C     C_R   0.365596 0.563299 0.645601 0.419072
C44   C     C_R   0.669351 0.765518 0.736059 0.414197
C45   C     C_R   0.310225 0.241160 0.383577 0.383605
C46   C     C_R   0.804479 0.088102 0.563906 0.358329
C47   C     C_R   0.136624 0.264808 0.738266 0.367437
C48   C     C_R   0.306974 0.581689 0.547306 0.348171
C49   C     C_R   0.723652 0.777920 0.615053 -0.041788
C50   C     C_R   0.769569 0.170742 0.537135 -0.092280
C51   C     C_R   0.196226 0.263515 0.619355 -0.030921
C52   C     C_R   0.272328 0.665327 0.532520 -0.089016
C53   C     C_R   0.263503 0.203003 0.620078 -0.007800
C54   C     C_R   0.315899 0.733131 0.586717 -0.124577
C55   C     C_R   0.809974 0.745389 0.614267 -0.055527
C56   C     C_R   0.228385 0.834918 0.463274 0.409077
C57   C     C_R   0.807410 0.240158 0.594510 -0.117763
C58   C     C_R   0.318415 0.190113 0.501811 -0.154532
C59   C     C_R   0.304947 0.816776 0.528592 -0.094024
C60   C     C_R   0.845844 0.711887 0.494732 -0.178394
C61   C     C_R   0.799943 0.321952 0.530721 -0.119914
C62   C     C_2   0.179962 0.914145 0.922530 0.712957
C63   C     C_2   0.674591 0.520003 0.881556 0.571740
C64   C     C_2   0.716781 0.830196 0.238342 0.673521
C65   C     C_2   0.575689 0.290311 0.396182 0.631291
C66   C     C_2   0.231447 0.346751 0.249164 0.637709
C67   C     C_R   0.820852 0.747857 0.371787 0.411853
C68   C     C_2   0.083349 0.786514 0.381084 0.694227
C69   C     C_2   0.660774 0.040998 0.108907 0.580420
C70   C     C_2   0.159012 0.543700 0.106095 0.544364
C71   C     C_R   0.723125 0.340344 0.467603 0.389020
C72   C     C_R   0.744680 0.798990 0.370303 -0.095996
Cl1   Cl    Cl    0.391007 0.240245 0.241760 -0.517253
Cl2   Cl    Cl    0.822715 0.301354 0.846551 -0.541063
Cl3   Cl    Cl    0.638262 0.726062 0.005911 -0.530928
Cl4   Cl    Cl    0.902129 0.974803 0.713752 -0.376101
Cl5   Cl    Cl    0.089698 0.232979 0.008928 -0.412556
Cl6   Cl    Cl    0.408593 0.459556 0.671673 -0.437976
Cl7   Cl    Cl    0.557339 0.740843 0.729465 -0.547484
Cl8   Cl    Cl    0.795343 0.006036 0.452213 -0.461135
Cl9   Cl    Cl    0.022996 0.261075 0.724285 -0.549684
Cl10  Cl    Cl    0.290883 0.506307 0.428608 -0.599047
Cl11  Cl    Cl    0.155013 0.022964 0.172748 -0.404674
Cl12  Cl    Cl    0.197740 0.942626 0.443752 -0.423250
Cl13  Cl    Cl    0.656906 0.539000 0.186529 -0.429982
Cl14  Cl    Cl    0.886279 0.730906 0.219017 -0.517778
Cl15  Cl    Cl    0.690407 0.448663 0.462380 -0.445797
Cl16  Cl    Cl    0.677737 0.996345 0.821597 -0.590291
Cl17  Cl    Cl    0.178910 0.494864 0.820601 -0.582991
Cl18  Cl    Cl    0.203776 0.050648 0.692794 -0.512993
Cl19  Cl    Cl    0.362546 0.781424 0.834133 -0.486330
Cl20  Cl    Cl    0.968549 0.739477 0.739852 -0.494898
H1    H     H_    0.337088 0.965295 0.783782 0.261967
H2    H     H_    0.609793 0.520154 0.938033 0.160708
H3    H     H_    0.647810 0.823067 0.217125 0.111509
H4    H     H_    0.519735 0.246816 0.425910 0.022406
H5    H     H_    0.224023 0.415085 0.246101 0.067860
H6    H     H_    0.025367 0.745540 0.409186 0.030390
H7    H     H_    0.704627 0.086628 0.047857 0.090097
H8    H     H_    0.221927 0.512161 0.084891 0.097138
H9    H     H_    0.838756 0.497330 0.772045 0.250713
H10   H     H_    0.240192 0.132596 0.945546 0.212349
H11   H     H_    0.419015 0.610800 0.819468 0.246262
H12   H     H_    0.829237 0.732700 0.951208 0.254809
H13   H     H_    0.884010 0.127881 0.861056 0.248821
H14   H     H_    0.329848 0.012577 0.259304 0.246507
H15   H     H_    0.829114 0.506853 0.260424 0.239504
H16   H     H_    0.115959 0.914246 0.981368 0.143723
N1    N     N_R   0.498810 0.000000 0.142780 -0.131726
N2    N     N_R   0.998810 0.500000 0.142780 -0.128672
N3    N     N_R   0.498740 0.000000 0.857170 -0.127291
N4    N     N_R   0.998740 0.500000 0.857170 -0.122626
O1    O     O_R   0.408390 0.908380 0.614690 -0.586564
O2    O     O_R   0.591620 0.908390 0.614640 -0.521899
O3    O     O_R   0.091620 0.591610 0.614640 -0.542976
O4    O     O_R   0.091620 0.408390 0.614640 -0.536194
O5    O     O_R   0.591610 0.091610 0.385310 -0.580498
O6    O     O_R   0.591610 0.908390 0.385310 -0.617072
O7    O     O_R   0.091610 0.591610 0.385310 -0.588322
O8    O     O_R   0.091610 0.408390 0.385310 -0.654408
O9    O     O_2   0.185314 0.874804 0.820054 -0.465123
O10   O     O_2   0.677180 0.525651 0.759339 -0.513402
O11   O     O_2   0.770234 0.864300 0.151963 -0.444589
O12   O     O_R   0.408390 0.091620 0.614690 -0.641488
O13   O     O_2   0.564373 0.352994 0.321250 -0.409164
O14   O     O_2   0.233896 0.310396 0.144209 -0.488205
O15   O     O_2   0.077159 0.845691 0.297573 -0.436182
O16   O     O_2   0.685008 0.012471 0.214267 -0.474695
O17   O     O_2   0.160229 0.616061 0.147273 -0.497463
O18   O     O_R   0.908390 0.408380 0.614690 -0.574366
O19   O     O_R   0.908390 0.591620 0.614690 -0.632868
O20   O     O_R   0.408370 0.908380 0.385360 -0.631235
O21   O     O_R   0.408370 0.091620 0.385360 -0.606917
O22   O     O_R   0.908370 0.408380 0.385360 -0.625200
O23   O     O_R   0.908370 0.591620 0.385360 -0.603597
O24   O     O_R   0.591620 0.091610 0.614640 -0.583877
Zn1   Zn    Zn3+2 0.500010 0.000000 0.653130 1.068463
Zn2   Zn    Zn3+2 0.000010 0.500000 0.653130 1.085804
Zn3   Zn    Zn3+2 0.499980 0.000000 0.346870 1.042487
Zn4   Zn    Zn3+2 0.999980 0.500000 0.346870 1.039244

loop_
_geom_bond_atom_site_label_1
_geom_bond_atom_site_label_2
_ccdc_geom_bond_type
C44   C49   A    
C33   C55   A    
C38   C40   A    
C35   Cl2   S    
C22   C29   A    
C5    C26   S    
C36   C42   A    
C4    C8    A    
C2    C65   S    
C21   N2    A    
C24   C70   S    
C39   C41   A    
O5    Zn3   S    
C19   N4    A    
C43   Cl6   S    
C63   H2    S    
C16   H1    S    
O7    Zn4   S    
C66   H5    S    
C45   Cl1   S    
C19   C21   A    
C5    C72   A    
C3    C7    A    
C1    C59   S    
O22   Zn4   S    
C11   C14   A    
C6    C25   S    
C62   H16   S    
C24   C30   A    
C14   C62   S    
C36   H10   S    
C67   C72   A    
O2    Zn1   S    
C25   O24   A    
C17   H9    S    
C29   Cl16  S    
C38   H12   S    
C28   O4    A    
C65   H4    S    
C69   O16   D    
C52   C54   A    
C41   C46   A    
O8    Zn4   S    
C14   C16   A    
C43   C48   A    
C8    C52   A    
C22   C69   S    
C12   C58   S    
C22   N1    A    
C64   C72   S    
C55   C60   A    
C4    C56   A    
C34   C60   S    
C5    C49   A    
C10   H15   S    
C2    C6    A    
C1    O1    A    
C30   Cl17  S    
C32   C54   A    
C70   H8    S    
C56   Cl12  S    
O4    Zn2   S    
C54   C59   A    
C10   C21   A    
O23   Zn4   S    
C45   C58   A    
N4    Zn2   S    
O12   Zn1   S    
C24   N2    A    
C18   N3    A    
C60   C67   A    
C28   O8    A    
C33   Cl20  S    
C4    C68   S    
C47   C51   A    
C11   Cl11  S    
C9    H14   S    
C49   C55   A    
C3    C45   A    
C70   O17   D    
C6    C50   A    
C7    C28   S    
C66   O14   D    
C23   O18   A    
C30   N4    A    
O20   Zn3   S    
C65   O13   D    
C37   C43   A    
C35   C39   A    
C26   O2    A    
C9    C20   A    
C12   O12   A    
O3    Zn2   S    
C23   C61   S    
C31   Cl18  S    
C32   C37   A    
C31   C53   A    
C57   C61   A    
C9    C11   A    
C68   O15   D    
C71   Cl15  S    
C69   H7    S    
C40   C44   A    
C34   O19   A    
O21   Zn3   S    
C12   O21   A    
C13   C15   A    
O1    Zn1   S    
C3    C66   S    
O6    Zn3   S    
O18   Zn2   S    
C63   O10   D    
N3    Zn1   S    
C37   H11   S    
C39   H13   S    
C67   Cl14  S    
C23   O22   A    
C50   C57   A    
C29   N3    A    
C44   Cl7   S    
C26   O6    A    
C64   H3    S    
O24   Zn1   S    
C10   C13   A    
C25   O5    A    
C53   C58   A    
C56   C59   A    
C15   C17   A    
C27   O7    A    
C64   O11   D    
C46   C50   A    
C1    O20   A    
C40   Cl3   S    
N1    Zn3   S    
C35   C57   A    
N2    Zn4   S    
C7    C51   A    
O19   Zn2   S    
C41   Cl4   S    
C46   Cl8   S    
C61   C71   A    
C34   O23   A    
C17   C19   A    
C48   Cl10  S    
C18   C20   A    
C42   C47   A    
C47   Cl9   S    
C68   H6    S    
C20   N1    A    
C32   Cl19  S    
C48   C52   A    
C42   Cl5   S    
C16   C18   A    
C13   Cl13  S    
C8    C27   S    
C15   C63   S    
C31   C36   A    
C33   C38   A    
C51   C53   A    
C62   O9    D    
C2    C71   A    
C27   O3    A    
