data_mof_unit_4594.cif
_audit_creation_date              2012-12-10T18:12:30-0500
_audit_creation_method            fapswitch 2.2
_symmetry_space_group_name_H-M    P1
_symmetry_Int_Tables_number       1
_space_group_crystal_system       triclinic
_cell_length_a                    9.55673
_cell_length_b                    10.834393
_cell_length_c                    17.249
_cell_angle_alpha                 94.311742
_cell_angle_beta                  87.592912
_cell_angle_gamma                 89.614513
_cell_volume                      1779.27126423

loop_
_atom_site_label
_atom_site_type_symbol
_atom_type_description
_atom_site_fract_x
_atom_site_fract_y
_atom_site_fract_z
_atom_type_partial_charge
C1    C     C_R   0.500351 0.738992 0.496116 0.759882
C2    C     C_R   0.349987 0.480215 0.775087 -0.228091
C3    C     C_R   0.405651 0.549940 0.148863 0.156441
C4    C     C_R   0.400033 0.495969 0.220636 0.094012
C5    C     C_R   0.652491 0.516045 0.226037 -0.284467
C6    C     C_R   0.661216 0.532289 0.146484 0.095228
C7    C     C_R   0.536870 0.553990 0.108045 0.070470
C8    C     C_2   0.471928 0.473803 0.979953 -0.257322
C9    C     C_2   0.541745 0.558568 0.023124 -0.231203
C10   C     C_R   0.522382 0.499218 0.264363 -0.137900
C11   C     C_3   0.349836 0.929182 0.502278 -0.460359
C12   C     C_R   0.483512 0.496278 0.649553 0.782807
C13   C     C_3   0.346706 0.069356 0.490736 0.002599
C14   C     C_3   0.581316 0.932861 0.564019 -0.377480
C15   C     C_3   0.568174 0.921954 0.415281 0.028393
C16   C     C_3   0.502170 0.876595 0.493639 0.069629
C17   C     C_3   0.500100 0.121352 0.497399 0.014351
C18   C     C_3   0.559350 0.075008 0.574857 -0.091691
C19   C     C_3   0.590024 0.064925 0.425809 -0.365966
C20   C     C_3   0.917981 0.372415 0.486625 -0.248466
C21   C     C_3   0.082890 0.370756 0.493516 -0.271246
C22   C     C_3   0.923549 0.571393 0.436580 -0.224319
C23   C     C_R   0.500081 0.260040 0.499275 0.749675
C24   C     C_3   0.909346 0.552851 0.575481 0.109686
C25   C     C_3   0.088453 0.556997 0.431188 -0.219526
C26   C     C_3   0.077517 0.564961 0.572057 0.156636
C27   C     C_R   0.516516 0.495222 0.349728 0.790387
C28   C     C_R   0.478755 0.487390 0.733862 -0.062062
C29   C     C_R   0.603561 0.484159 0.773534 -0.228929
C30   C     C_R   0.599645 0.478797 0.853601 -0.193620
C31   C     C_R   0.471013 0.475938 0.895392 0.151949
C32   C     C_R   0.344167 0.475839 0.855963 0.199190
Cu1   Cu    Cu3+1 0.357600 0.500140 0.499960 0.890867
Cu2   Cu    Cu3+1 0.642400 0.499860 0.500040 0.881983
H1    H     H_    0.704600 0.485737 0.742866 0.165512
H2    H     H_    0.304942 0.915339 0.561332 0.169653
H3    H     H_    0.284105 0.877532 0.459607 0.182584
H4    H     H_    0.280998 0.115261 0.539698 0.148557
H5    H     H_    0.544774 0.891188 0.618322 0.128990
H6    H     H_    0.476733 0.094511 0.621830 0.133169
H7    H     H_    0.484897 0.905687 0.372897 0.103754
H8    H     H_    0.561768 0.107551 0.371814 0.121220
H9    H     H_    0.700375 0.089072 0.435594 0.190976
H10   H     H_    0.693826 0.909719 0.554398 0.183953
H11   H     H_    0.890105 0.328954 0.428844 0.159282
H12   H     H_    0.871982 0.313669 0.530718 0.148941
H13   H     H_    0.111150 0.320649 0.544722 0.143004
H14   H     H_    0.128891 0.318914 0.441051 0.184053
H15   H     H_    0.882872 0.541472 0.378985 0.156125
H16   H     H_    0.117926 0.500589 0.376621 0.140930
H17   H     H_    0.748333 0.508704 0.256809 0.156845
H18   H     H_    0.884205 0.483951 0.618873 0.112473
H19   H     H_    0.111630 0.515865 0.622403 0.118223
H20   H     H_    0.895623 0.670110 0.448323 0.159565
H21   H     H_    0.138181 0.647428 0.423297 0.135042
H22   H     H_    0.605151 0.627748 0.996157 0.155477
H23   H     H_    0.253201 0.478516 0.744582 0.143142
H24   H     H_    0.411237 0.403804 0.007820 0.140267
H25   H     H_    0.697425 0.476717 0.883172 0.147024
N1    N     N_3   0.856560 0.499750 0.498270 -0.142690
N2    N     N_3   0.143860 0.496700 0.498910 -0.141558
O1    O     O_R   0.379740 0.682430 0.499960 -0.589609
O2    O     O_R   0.620260 0.682190 0.500020 -0.606310
O3    O     O_R   0.365800 0.500150 0.613560 -0.578920
O4    O     O_R   0.606310 0.499910 0.613620 -0.610723
O5    O     O_R   0.379740 0.317810 0.499980 -0.597305
O6    O     O_R   0.620260 0.317570 0.500040 -0.596249
O7    O     O_R   0.393690 0.500090 0.386380 -0.594162
O8    O     O_R   0.634200 0.499850 0.386440 -0.592082
C33   C     C_3   0.800880 0.510098 0.102911 -0.397711
C34   C     C_3   0.813283 0.373114 0.073103 -0.317836
C35   C     C_3   0.945222 0.347243 0.021921 -0.892885
H26   H     H_    0.939952 0.398233 0.968711 0.258833
H27   H     H_    0.039146 0.375542 0.054128 0.254932
H28   H     H_    0.953694 0.246685 0.004333 0.244854
H29   H     H_    0.815176 0.314832 0.123431 0.211508
H30   H     H_    0.721363 0.345687 0.038564 0.229537
H31   H     H_    0.812267 0.570641 0.053915 0.190111
H32   H     H_    0.888179 0.533658 0.141936 0.186744
C36   C     C_3   0.275104 0.093660 0.413404 -0.352884
C37   C     C_3   0.117605 0.070238 0.419411 -0.942213
H33   H     H_    0.098413 0.969482 0.415322 0.261252
H34   H     H_    0.069345 0.110930 0.475236 0.248721
H35   H     H_    0.065497 0.110881 0.370951 0.237904
H36   H     H_    0.293625 0.188589 0.396460 0.204155
H37   H     H_    0.318370 0.033941 0.363223 0.197137
C38   C     C_3   0.691535 0.848862 0.370730 -0.379220
C39   C     C_3   0.838682 0.887629 0.391948 -0.886277
H38   H     H_    0.862511 0.978586 0.369484 0.253945
H39   H     H_    0.852040 0.891257 0.455482 0.246883
H40   H     H_    0.915765 0.820911 0.362286 0.227158
H41   H     H_    0.680267 0.747918 0.373936 0.222399
H42   H     H_    0.684529 0.862715 0.307678 0.189767
C40   C     C_3   0.274809 0.415706 0.240252 -0.414483
C41   C     C_3   0.266231 0.303322 0.180609 -0.366043
C42   C     C_3   0.136636 0.226506 0.196904 -0.878937
H43   H     H_    0.142568 0.188237 0.254475 0.251837
H44   H     H_    0.040348 0.284292 0.196167 0.257377
H45   H     H_    0.130771 0.148463 0.151635 0.248951
H46   H     H_    0.262581 0.332489 0.120486 0.208502
H47   H     H_    0.361082 0.244049 0.183408 0.216553
H48   H     H_    0.282325 0.375959 0.297021 0.211179
H49   H     H_    0.176546 0.471141 0.242090 0.194551
C43   C     C_3   0.693538 0.139051 0.605418 -0.395213
C44   C     C_3   0.740081 0.091681 0.682259 -0.362816
C45   C     C_3   0.865658 0.164172 0.712510 -0.881525
H50   H     H_    0.955265 0.154468 0.669230 0.242253
H51   H     H_    0.837978 0.263798 0.724161 0.250138
H52   H     H_    0.898009 0.127710 0.767565 0.246183
H53   H     H_    0.652399 0.102051 0.726770 0.221610
H54   H     H_    0.770459 0.992382 0.673956 0.222891
H55   H     H_    0.780637 0.125345 0.560884 0.200045
H56   H     H_    0.672199 0.239313 0.618291 0.227365
C46   C     C_3   0.830126 0.673118 0.612228 -0.325026
C47   C     C_3   0.864088 0.707270 0.697956 -0.964311
H57   H     H_    0.938603 0.640526 0.719954 0.253288
H58   H     H_    0.908408 0.801656 0.704940 0.258149
H59   H     H_    0.767516 0.707916 0.736235 0.250388
H60   H     H_    0.844311 0.751410 0.575231 0.156164
H61   H     H_    0.717574 0.669982 0.614810 0.266744
C48   C     C_3   0.129017 0.703763 0.586512 -0.271546
C49   C     C_3   0.221096 0.731229 0.656758 -0.809445
H62   H     H_    0.190299 0.674392 0.705213 0.232237
H63   H     H_    0.333698 0.718488 0.641233 0.261252
H64   H     H_    0.208129 0.829696 0.679297 0.203217
H65   H     H_    0.167963 0.741766 0.533683 0.190092
H66   H     H_    0.048195 0.774410 0.596370 0.170431
C50   C     C_3   0.201475 0.476187 0.897528 -0.445543
C51   C     C_3   0.131162 0.603398 0.899053 -0.847302
H67   H     H_    0.199267 0.675303 0.926615 0.256727
H68   H     H_    0.109748 0.627033 0.839159 0.243970
H69   H     H_    0.030115 0.603164 0.933232 0.239004
H70   H     H_    0.134428 0.405990 0.867305 0.197817
H71   H     H_    0.207377 0.450664 0.958164 0.200771
C52   C     C_3   0.273007 0.602575 0.117100 -0.414459
C53   C     C_3   0.216766 0.713303 0.169624 -0.867324
H72   H     H_    0.189054 0.686305 0.229109 0.243235
H73   H     H_    0.296537 0.787396 0.173455 0.252998
H74   H     H_    0.121196 0.750674 0.144918 0.242055
H75   H     H_    0.292392 0.636182 0.058549 0.229580
H76   H     H_    0.190569 0.531620 0.111308 0.198910

loop_
_geom_bond_atom_site_label_1
_geom_bond_atom_site_label_2
_ccdc_geom_bond_type
C10   C27   S    
C24   H18   S    
C38   C39   S    
C24   C46   S    
C36   C37   S    
C33   H31   S    
C14   C18   S    
C41   C42   S    
C44   H53   S    
C1    O1    A    
C46   C47   S    
C2    H23   S    
C52   C53   S    
C22   H20   S    
C15   C19   S    
C36   H36   S    
C12   C28   S    
C23   O5    A    
C14   H10   S    
C28   C29   A    
C26   N2    S    
C24   C26   S    
C48   H66   S    
C3    C7    A    
C35   H28   S    
C22   N1    S    
C30   C31   A    
C12   O3    A    
C45   H50   S    
C15   C16   S    
C42   H45   S    
C2    C32   A    
C23   O6    A    
C11   H3    S    
C18   H6    S    
C25   H16   S    
C36   H37   S    
C27   O7    A    
C8    H24   S    
C14   H5    S    
C8    C9    D    
C47   H58   S    
C22   C25   S    
C42   H44   S    
C17   C18   S    
C33   C34   S    
C26   C48   S    
C20   N1    S    
C21   N2    S    
C20   H11   S    
C27   O8    A    
C19   H8    S    
C51   H69   S    
C44   H54   S    
C13   C36   S    
C1    C16   S    
C38   H41   S    
C50   C51   S    
Cu2   N1    S    
C53   H74   S    
C1    O2    A    
Cu2   O4    S    
C43   C44   S    
C37   H34   S    
C19   H9    S    
Cu1   O5    S    
C37   H33   S    
C52   H75   S    
C25   H21   S    
C15   H7    S    
C35   H27   S    
C43   H55   S    
C41   H46   S    
Cu1   O1    S    
C25   N2    S    
C42   H43   S    
C29   C30   A    
C50   H71   S    
C11   C16   S    
C31   C32   A    
C17   C23   S    
C39   H40   S    
C52   H76   S    
C24   N1    S    
C47   H59   S    
C30   H25   S    
Cu1   Cu2   S    
C48   C49   S    
C9    H22   S    
C18   C43   S    
C20   C21   S    
Cu2   O8    S    
C13   H4    S    
C22   H15   S    
C4    C40   S    
C53   H73   S    
C39   H39   S    
C40   H49   S    
C14   C16   S    
C49   H63   S    
C3    C4    A    
C26   H19   S    
C34   H29   S    
C34   H30   S    
C37   H35   S    
C15   C38   S    
C51   H67   S    
C12   O4    A    
C6    C33   S    
C11   H2    S    
C33   H32   S    
C8    C31   S    
C46   H60   S    
C35   H26   S    
Cu2   O6    S    
C6    C7    A    
C44   C45   S    
C29   H1    S    
C41   H47   S    
C13   C17   S    
C21   H14   S    
C49   H64   S    
C5    C10   A    
C50   H70   S    
C11   C13   S    
C32   C50   S    
C5    C6    A    
C45   H51   S    
Cu1   O3    S    
C38   H42   S    
Cu2   O2    S    
C17   C19   S    
C3    C52   S    
C40   C41   S    
C46   H61   S    
C43   H56   S    
C7    C9    S    
C48   H65   S    
C34   C35   S    
C39   H38   S    
C40   H48   S    
Cu1   N2    S    
C5    H17   S    
C2    C28   A    
C21   H13   S    
C49   H62   S    
C4    C10   A    
C20   H12   S    
C53   H72   S    
C47   H57   S    
Cu1   O7    S    
C51   H68   S    
C45   H52   S    
