data_mof_unit_2257.cif
_audit_creation_date              2012-10-26T19:03:32-0400
_audit_creation_method            fapswitch 2.2
_symmetry_space_group_name_H-M    P1
_symmetry_Int_Tables_number       1
_space_group_crystal_system       triclinic
_cell_length_a                    10.824841
_cell_length_b                    13.056281
_cell_length_c                    11.63358
_cell_angle_alpha                 99.376953
_cell_angle_beta                  94.389171
_cell_angle_gamma                 89.945382
_cell_volume                      1617.36046322

loop_
_atom_site_label
_atom_site_type_symbol
_atom_type_description
_atom_site_fract_x
_atom_site_fract_y
_atom_site_fract_z
_atom_type_partial_charge
C1    C     C_R   0.498728 0.298967 0.479395 0.602853
C2    C     C_R   0.480254 0.124195 0.358550 -0.159359
C3    C     C_R   0.519664 0.138260 0.569920 0.268491
C4    C     C_R   0.262364 0.512999 0.500935 0.565015
C5    C     C_R   0.512719 0.029650 0.558725 0.042977
C6    C     C_R   0.495307 0.969034 0.446036 0.018508
C7    C     C_R   0.491841 0.861247 0.434100 -0.082426
C8    C     C_R   0.515309 0.873188 0.644973 -0.121726
C9    C     C_R   0.519304 0.980372 0.657751 -0.102263
C10   C     C_R   0.401442 0.388108 0.021218 0.187351
C11   C     C_R   0.411965 0.400092 0.143874 0.101404
C12   C     C_R   0.069491 0.528445 0.607309 -0.053314
C13   C     C_R   0.535212 0.551690 0.158285 0.099053
C14   C     C_R   0.531678 0.543079 0.034861 -0.028994
C15   C     C_R   0.463968 0.459436 0.965149 -0.039999
C16   C     C_R   0.501478 0.700642 0.520950 0.550814
C17   C     C_R   0.460724 0.450615 0.841770 0.115637
C18   C     C_R   0.587971 0.600036 0.856057 0.056587
C19   C     C_R   0.592876 0.615204 0.978786 0.186446
C20   C     C_R   0.737988 0.488706 0.499057 0.584946
C21   C     C_R   0.128128 0.572556 0.716997 -0.077075
C22   C     C_R   0.078776 0.557818 0.820197 -0.138528
C23   C     C_R   0.126470 0.526183 0.501344 -0.062441
C24   C     C_R   0.975518 0.493696 0.815433 -0.048653
C25   C     C_R   0.913619 0.452773 0.707633 0.296176
C26   C     C_R   0.949974 0.485112 0.603948 -0.032042
C27   C     C_R   0.051270 0.514170 0.394557 0.280248
C28   C     C_R   0.928739 0.480607 0.392228 0.238805
C29   C     C_R   0.873900 0.476189 0.497857 -0.040777
C30   C     C_R   0.503073 0.813219 0.533344 0.005962
C31   C     C_R   0.498936 0.185581 0.469370 0.057740
C32   C     C_R   0.480180 0.016742 0.346857 -0.106746
Cu1   Cu    Cu3+1 0.509250 0.507730 0.615930 1.043600
Cu2   Cu    Cu3+1 0.490750 0.492270 0.384070 1.052607
H1    H     H_    0.525594 0.023380 0.745737 0.171038
H2    H     H_    0.479878 0.814961 0.347626 0.174786
H3    H     H_    0.521824 0.837398 0.722927 0.162170
H4    H     H_    0.466082 0.970960 0.260329 0.177870
H5    H     H_    0.016997 0.599273 0.108884 0.354058
H6    H     H_    0.612734 0.165798 0.720604 0.341599
H7    H     H_    0.304086 0.173657 0.062160 0.335245
H8    H     H_    0.810455 0.754564 0.942839 0.340641
H9    H     H_    0.856483 0.194571 0.769738 0.367283
H10   H     H_    0.813424 0.388971 0.289897 0.340449
H11   H     H_    0.465794 0.159248 0.280426 0.141001
H12   H     H_    0.408764 0.389065 0.785560 0.220347
H13   H     H_    0.634197 0.654165 0.812231 0.151669
H14   H     H_    0.366716 0.345391 0.187638 0.169863
H15   H     H_    0.585671 0.614019 0.214546 0.207076
H16   H     H_    0.210693 0.620457 0.723787 0.153715
H17   H     H_    0.125561 0.590322 0.903751 0.142111
H18   H     H_    0.947195 0.471898 0.895526 0.185697
N1    N     N_R   0.523180 0.519350 0.790130 -0.263043
N2    N     N_R   0.476820 0.480650 0.209890 -0.271012
O1    O     O_R   0.506570 0.354460 0.582000 -0.404390
O2    O     O_2   0.151538 0.451315 0.191969 -0.251954
O3    O     O_3   0.983439 0.591043 0.183763 -0.408646
O4    O     O_3   0.545730 0.199164 0.677614 -0.600938
O5    O     O_2   0.209792 0.326748 0.865808 -0.215512
O6    O     O_2   0.387192 0.210869 0.867561 -0.271490
O7    O     O_3   0.239186 0.219342 0.034310 -0.459252
O8    O     O_2   0.576123 0.796190 0.120811 -0.282160
O9    O     O_2   0.766698 0.699250 0.144954 -0.235444
O10   O     O_3   0.736579 0.795250 0.966350 -0.501208
O11   O     O_2   0.714427 0.365557 0.774716 -0.264345
O12   O     O_R   0.490940 0.341410 0.386200 -0.552439
O13   O     O_2   0.782531 0.289359 0.582295 -0.301598
O14   O     O_3   0.912190 0.254423 0.768320 -0.448908
O15   O     O_3   0.864893 0.450620 0.284670 -0.581832
O16   O     O_R   0.327470 0.506530 0.597920 -0.529559
O17   O     O_R   0.311840 0.493480 0.402120 -0.433352
O18   O     O_R   0.509060 0.658590 0.613800 -0.538933
O19   O     O_R   0.493430 0.645540 0.418000 -0.498553
O20   O     O_R   0.688160 0.506520 0.597880 -0.476523
O21   O     O_R   0.672530 0.493470 0.402080 -0.488480
O22   O     O_2   0.201291 0.630181 0.288496 -0.282992
S1    S     S_3+6 0.102376 0.547029 0.262779 0.086385
S2    S     S_3+6 0.308272 0.284417 0.942809 0.038930
S3    S     S_3+6 0.669446 0.728150 0.057126 -0.000993
S4    S     S_3+6 0.824252 0.339021 0.704850 0.040748

loop_
_geom_bond_atom_site_label_1
_geom_bond_atom_site_label_2
_ccdc_geom_bond_type
Cu1   O1    S    
C6    C32   A    
C24   C25   A    
C24   H18   S    
C17   N1    A    
C25   S4    S    
C7    H2    S    
C28   O15   S    
C16   O18   A    
H7    O7    S    
C18   H13   S    
Cu2   O12   S    
C4    O16   A    
C10   S2    S    
O9    S3    D    
C12   C23   A    
O6    S2    D    
C28   C29   A    
C10   C15   A    
C5    C6    A    
C16   C30   S    
H5    O3    S    
C1    C31   S    
C2    C32   A    
C18   C19   A    
C18   N1    A    
H9    O14   S    
C32   H4    S    
Cu1   O18   S    
Cu2   O21   S    
C7    C30   A    
C13   C14   A    
C11   H14   S    
O5    S2    D    
C21   H16   S    
C1    O12   A    
C20   C29   S    
C2    H11   S    
Cu1   N1    S    
H6    O4    S    
C16   O19   A    
O3    S1    S    
O8    S3    D    
C17   H12   S    
C4    C23   S    
C8    C9    A    
C27   S1    S    
C25   C26   A    
C12   C21   A    
O2    S1    D    
C20   O21   A    
C12   C26   A    
C2    C31   A    
C19   S3    S    
C5    C9    A    
O7    S2    S    
Cu1   Cu2   S    
C20   O20   A    
H10   O15   S    
O22   S1    D    
C3    C31   A    
C11   N2    A    
Cu1   O16   S    
C13   H15   S    
Cu2   N2    S    
C23   C27   A    
O10   S3    S    
C22   C24   A    
C8    H3    S    
O14   S4    S    
H8    O10   S    
C9    H1    S    
C13   N2    A    
C15   C17   A    
C14   C19   A    
O13   S4    D    
C3    C5    A    
C6    C7    A    
C8    C30   A    
C1    O1    A    
C10   C11   A    
Cu2   O19   S    
C3    O4    S    
Cu1   O20   S    
C26   C29   A    
C27   C28   A    
O11   S4    D    
C14   C15   A    
C21   C22   A    
Cu2   O17   S    
C4    O17   A    
C22   H17   S    
