data_mof_unit_3255.cif
_audit_creation_date              2012-10-26T21:06:32-0400
_audit_creation_method            fapswitch 2.2
_symmetry_space_group_name_H-M    P1
_symmetry_Int_Tables_number       1
_space_group_crystal_system       triclinic
_cell_length_a                    15.854617
_cell_length_b                    10.751225
_cell_length_c                    9.526961
_cell_angle_alpha                 89.926062
_cell_angle_beta                  89.838275
_cell_angle_gamma                 90.064215
_cell_volume                      1623.92410054

loop_
_atom_site_label
_atom_site_type_symbol
_atom_type_description
_atom_site_fract_x
_atom_site_fract_y
_atom_site_fract_z
_atom_type_partial_charge
C1    C     C_R   0.501912 0.262344 0.500090 0.565932
C2    C     C_R   0.553457 0.575625 0.074055 0.033742
C3    C     C_R   0.339808 0.500290 0.500123 0.558574
C4    C     C_R   0.660192 0.499711 0.499878 0.558575
C5    C     C_3   0.973279 0.383400 0.515468 0.024407
C6    C     C_3   0.026723 0.616628 0.484543 0.024391
C7    C     C_3   0.029069 0.429981 0.393079 -0.116615
C8    C     C_3   0.970930 0.570050 0.606931 -0.116613
C9    C     C_1   0.250148 0.501116 0.500350 -0.013170
C10   C     C_1   0.749851 0.498894 0.499653 -0.013197
C11   C     C_3   0.028378 0.453819 0.623011 -0.119349
C12   C     C_R   0.498088 0.737656 0.499910 0.565943
C13   C     C_3   0.971623 0.546211 0.377000 -0.119380
C14   C     C_3   0.082958 0.501641 0.500349 0.036460
C15   C     C_3   0.917041 0.498386 0.499662 0.036454
C16   C     C_1   0.174616 0.501622 0.500312 -0.052193
C17   C     C_1   0.825383 0.498398 0.499695 -0.052253
C18   C     C_R   0.443438 0.066724 0.416750 -0.134843
C19   C     C_R   0.556563 0.933276 0.583247 -0.134842
C20   C     C_R   0.941381 0.251751 0.526524 0.037278
C21   C     C_R   0.960856 0.177151 0.643190 -0.086264
C22   C     C_R   0.931206 0.054718 0.650969 -0.086189
C23   C     C_R   0.440190 0.937950 0.416448 0.071977
C24   C     C_R   0.882015 0.005954 0.542664 -0.074210
C25   C     C_R   0.862377 0.079579 0.426327 -0.096702
C26   C     C_R   0.891990 0.201968 0.418065 -0.088900
C27   C     C_R   0.058660 0.748256 0.473463 0.037247
C28   C     C_R   0.039448 0.822727 0.356570 -0.086192
C29   C     C_R   0.069181 0.945111 0.348703 -0.086140
C30   C     C_R   0.118194 0.993953 0.457143 -0.074163
C31   C     C_R   0.137561 0.920464 0.573723 -0.096767
C32   C     C_R   0.107869 0.798125 0.582073 -0.089033
C33   C     C_R   0.559813 0.062050 0.583545 0.071960
C34   C     C_R   0.497569 0.871397 0.499745 0.010094
C35   C     C_R   0.502432 0.128603 0.500253 0.010089
C36   C     C_R   0.446514 0.424351 0.074710 0.032148
C37   C     C_R   0.553486 0.575649 0.925290 0.032151
C38   C     C_R   0.446543 0.424375 0.925945 0.033740
Cu1   Cu    Cu3+1 0.500000 0.500020 0.640660 0.978937
Cu2   Cu    Cu3+1 0.500000 0.499980 0.359340 0.978925
H1    H     H_    0.054086 0.371945 0.306133 0.102711
H2    H     H_    0.596231 0.636347 0.129798 0.113677
H3    H     H_    0.999075 0.212856 0.727938 0.093205
H4    H     H_    0.946731 0.997401 0.740702 0.104996
H5    H     H_    0.859438 0.911026 0.548630 0.110695
H6    H     H_    0.824382 0.041708 0.342351 0.114621
H7    H     H_    0.876511 0.257963 0.327152 0.110332
H8    H     H_    0.001392 0.786946 0.271695 0.093255
H9    H     H_    0.053876 0.002320 0.258775 0.105010
H10   H     H_    0.140843 0.088837 0.451097 0.110701
H11   H     H_    0.175405 0.958402 0.657817 0.114561
H12   H     H_    0.945913 0.628086 0.693876 0.102681
H13   H     H_    0.123142 0.742234 0.673168 0.110250
H14   H     H_    0.946470 0.581878 0.276128 0.097396
H15   H     H_    0.053525 0.418163 0.723892 0.097396
H16   H     H_    0.398660 0.118821 0.354201 0.135204
H17   H     H_    0.601342 0.881179 0.645795 0.135220
H18   H     H_    0.403720 0.363600 0.130973 0.110496
H19   H     H_    0.596279 0.636400 0.869027 0.110504
H20   H     H_    0.403769 0.363653 0.870202 0.113671
I1    I     I_    0.343205 0.851887 0.297102 -0.377912
I2    I     I_    0.656811 0.148113 0.702865 -0.377880
N1    N     N_R   0.500020 0.500030 0.852070 -0.221497
N2    N     N_R   0.499980 0.499970 0.147930 -0.221496
O1    O     O_R   0.500000 0.319660 0.618740 -0.476194
O2    O     O_R   0.500000 0.680340 0.381260 -0.476190
O3    O     O_R   0.499990 0.319630 0.381170 -0.507901
O4    O     O_R   0.500010 0.680370 0.618830 -0.507895
O5    O     O_R   0.379080 0.500000 0.618760 -0.504609
O6    O     O_R   0.620920 0.500000 0.381240 -0.504618
O7    O     O_R   0.379080 0.499970 0.381190 -0.486204
O8    O     O_R   0.620920 0.500030 0.618810 -0.486197

loop_
_geom_bond_atom_site_label_1
_geom_bond_atom_site_label_2
_ccdc_geom_bond_type
Cu2   O7    S    
Cu1   O4    S    
C4    O6    A    
C5    C20   S    
C29   H9    S    
C19   H17   S    
C12   O4    A    
Cu2   O6    S    
C24   H5    S    
C28   C29   A    
C3    O5    A    
C9    C16   T    
C5    C11   S    
C36   H18   S    
C30   C31   A    
C11   C14   S    
C10   C17   T    
C33   C35   A    
C38   N1    A    
C7    C14   S    
C22   H4    S    
C6    C27   S    
C33   I2    S    
Cu2   O3    S    
C1    O1    A    
Cu1   O8    S    
C18   C35   A    
C8    H12   S    
C18   H16   S    
C30   H10   S    
Cu2   O2    S    
C21   C22   A    
Cu1   O1    S    
C37   N1    A    
C2    N2    A    
C18   C23   A    
C24   C25   A    
C19   C33   A    
Cu1   Cu2   S    
C5    C7    S    
C6    C8    S    
C25   C26   A    
C12   O2    A    
C3    O7    A    
C29   C30   A    
C3    C9    S    
C6    C14   S    
C31   C32   A    
C23   I1    S    
C23   C34   A    
Cu1   O5    S    
C37   H19   S    
C26   H7    S    
C38   H20   S    
C8    C15   S    
C13   C15   S    
C22   C24   A    
C4    C10   S    
C32   H13   S    
C4    O8    A    
C11   H15   S    
C1    C35   S    
C13   H14   S    
C15   C17   S    
C28   H8    S    
C27   C32   A    
C31   H11   S    
C19   C34   A    
Cu1   N1    S    
Cu2   N2    S    
C36   C38   A    
C6    C13   S    
C2    C37   A    
C20   C26   A    
C2    H2    S    
C8    C11   S    
C1    O3    A    
C14   C16   S    
C7    H1    S    
C5    C15   S    
C7    C13   S    
C20   C21   A    
C27   C28   A    
C36   N2    A    
C12   C34   S    
C25   H6    S    
C21   H3    S    
