data_mof_unit_3166.cif
_audit_creation_date              2012-12-10T17:43:31-0500
_audit_creation_method            fapswitch 2.2
_symmetry_space_group_name_H-M    P1
_symmetry_Int_Tables_number       1
_space_group_crystal_system       triclinic
_cell_length_a                    15.008371
_cell_length_b                    10.659133
_cell_length_c                    9.914515
_cell_angle_alpha                 89.891155
_cell_angle_beta                  90.052134
_cell_angle_gamma                 89.545369
_cell_volume                      1586.03318751

loop_
_atom_site_label
_atom_site_type_symbol
_atom_type_description
_atom_site_fract_x
_atom_site_fract_y
_atom_site_fract_z
_atom_type_partial_charge
C1    C     C_R   0.508363 0.260527 0.500338 0.876484
C2    C     C_R   0.187118 0.404870 0.519636 -0.293233
C3    C     C_R   0.230292 0.518590 0.501003 -0.071825
C4    C     C_R   0.326873 0.509957 0.500080 0.901941
C5    C     C_R   0.180596 0.632389 0.482962 0.137939
C6    C     C_R   0.624193 0.128591 0.701132 -0.105163
C7    C     C_R   0.674062 0.062284 0.796599 -0.119610
C8    C     C_R   0.677308 0.932019 0.792924 -0.165911
C9    C     C_R   0.630550 0.867415 0.693883 -0.199122
C10   C     C_R   0.577303 0.932595 0.598731 0.106007
C11   C     C_R   0.574375 0.064817 0.601423 0.084299
C12   C     C_R   0.899971 0.612871 0.466665 0.120914
C13   C     C_R   0.525066 0.127891 0.499215 -0.109978
C14   C     C_R   0.492253 0.063225 0.388235 -0.245524
C15   C     C_R   0.492924 0.935631 0.387780 -0.222487
C16   C     C_R   0.514933 0.737217 0.499615 0.847019
C17   C     C_R   0.529290 0.870033 0.496729 -0.106634
C18   C     C_R   0.379955 0.344569 0.139360 -0.189206
C19   C     C_R   0.317125 0.273658 0.068771 0.187832
C20   C     C_R   0.319798 0.272396 0.928733 -0.234361
C21   C     C_R   0.382118 0.343397 0.859894 -0.184042
C22   C     C_R   0.441740 0.422817 0.927704 0.163354
C23   C     C_R   0.959320 0.278921 0.544057 -0.293872
C24   C     C_R   0.441364 0.422966 0.072184 0.127357
C25   C     C_R   0.556055 0.573101 0.071483 -0.110388
C26   C     C_R   0.556043 0.573006 0.928466 -0.108783
C27   C     C_R   0.672318 0.493265 0.499929 0.920542
C28   C     C_R   0.807791 0.606081 0.473668 -0.361339
C29   C     C_R   0.766978 0.492862 0.498439 -0.153653
C30   C     C_R   0.815314 0.381236 0.513726 0.496080
C31   C     C_R   0.908420 0.386527 0.515985 -0.051168
C32   C     C_R   0.951014 0.502404 0.490610 -0.042924
C33   C     C_3   0.244777 0.203058 0.142006 -0.408104
C34   C     C_R   0.052189 0.284109 0.544775 0.523577
C35   C     C_3   0.281673 0.092109 0.222443 -0.903713
C36   C     C_3   0.757362 0.215763 0.401609 -0.390863
C37   C     C_3   0.100784 0.095237 0.468604 -0.399042
C38   C     C_3   0.218298 0.765417 0.487766 -0.503028
C39   C     C_3   0.312891 0.782972 0.531151 -0.822224
C40   C     C_3   0.891640 0.849249 0.413201 -0.450897
C41   C     C_3   0.864078 0.908287 0.547344 -0.844561
C42   C     C_R   0.094743 0.398699 0.519457 0.019042
C43   C     C_R   0.044386 0.508100 0.491872 -0.016984
C44   C     C_R   0.087011 0.623750 0.468636 0.061293
C45   C     C_R   0.034611 0.730117 0.435463 -0.274695
C46   C     C_R   0.942188 0.727154 0.437165 0.203915
H1    H     H_    0.765668 0.687928 0.459878 0.164047
H2    H     H_    0.380700 0.333636 0.753475 0.221752
H3    H     H_    0.602054 0.632506 0.874996 0.138313
H4    H     H_    0.927481 0.190669 0.567239 0.205428
H5    H     H_    0.226714 0.320393 0.535392 0.185108
H6    H     H_    0.064498 0.818689 0.409935 0.133044
H7    H     H_    0.462050 0.111310 0.303446 0.180884
H8    H     H_    0.333352 0.040744 0.163824 0.270490
H9    H     H_    0.309670 0.125520 0.319405 0.255477
H10   H     H_    0.227221 0.025661 0.245607 0.244057
H11   H     H_    0.208782 0.268238 0.210778 0.204752
H12   H     H_    0.629013 0.229433 0.703923 0.191170
H13   H     H_    0.194905 0.166909 0.069020 0.212284
H14   H     H_    0.719249 0.127801 0.413468 0.204953
H15   H     H_    0.821723 0.191483 0.352079 0.170832
H16   H     H_    0.717263 0.278900 0.335375 0.187237
H17   H     H_    0.110934 0.143354 0.370006 0.171222
H18   H     H_    0.037489 0.042666 0.467154 0.180926
H19   H     H_    0.156239 0.027256 0.481446 0.202928
H20   H     H_    0.326365 0.735394 0.628716 0.285963
H21   H     H_    0.353514 0.747571 0.447536 0.274815
H22   H     H_    0.326641 0.884629 0.543138 0.249044
H23   H     H_    0.712211 0.112389 0.871624 0.137966
H24   H     H_    0.211079 0.809369 0.386437 0.208530
H25   H     H_    0.178218 0.820088 0.561820 0.232697
H26   H     H_    0.821843 0.843582 0.606660 0.264231
H27   H     H_    0.924013 0.931330 0.607929 0.263572
H28   H     H_    0.825776 0.995777 0.528752 0.271374
H29   H     H_    0.933486 0.917324 0.357420 0.191578
H30   H     H_    0.832864 0.834872 0.347215 0.200764
H31   H     H_    0.718013 0.880923 0.864923 0.135863
H32   H     H_    0.639705 0.766941 0.689445 0.150087
H33   H     H_    0.460366 0.888701 0.304529 0.180305
H34   H     H_    0.601852 0.632987 0.125132 0.144215
H35   H     H_    0.378224 0.336042 0.246002 0.217147
H36   H     H_    0.273310 0.216026 0.871725 0.169134
N1    N     N_R   0.499150 0.498800 0.142780 -0.116644
N2    N     N_R   0.499120 0.498720 0.857170 -0.121148
O1    O     O_R   0.500000 0.316780 0.614690 -0.654717
O2    O     O_3   0.101846 0.178811 0.578379 -0.606117
O3    O     O_R   0.499990 0.316750 0.385360 -0.641672
O4    O     O_R   0.367850 0.499980 0.614680 -0.630827
O5    O     O_R   0.367840 0.499960 0.385350 -0.633938
O6    O     O_R   0.500010 0.683250 0.614640 -0.615999
O7    O     O_R   0.500000 0.683220 0.385310 -0.627793
O8    O     O_R   0.632160 0.500040 0.614650 -0.631448
O9    O     O_R   0.632150 0.500020 0.385320 -0.633195
O10   O     O_3   0.771315 0.268634 0.530298 -0.638994
Zn1   Zn    Zn3+2 0.500010 0.500020 0.653130 0.928435
Zn2   Zn    Zn3+2 0.499990 0.499980 0.346870 0.927609

loop_
_geom_bond_atom_site_label_1
_geom_bond_atom_site_label_2
_ccdc_geom_bond_type
C1    O3    A    
C38   H24   S    
C28   H1    S    
C16   O6    A    
C20   H36   S    
C27   C29   S    
C25   H34   S    
C11   C13   A    
C39   H22   S    
C6    H12   S    
C19   C20   A    
C34   C42   A    
C7    C8    A    
C45   C46   A    
C40   C46   S    
C12   C28   A    
C18   C24   A    
C28   C29   A    
C24   N1    A    
C38   C39   S    
C10   C17   A    
C18   H35   S    
C18   C19   A    
C34   O2    S    
O7    Zn2   S    
C15   H33   S    
C8    C9    A    
C37   H19   S    
C33   H11   S    
C9    C10   A    
C21   H2    S    
C41   H28   S    
O4    Zn1   S    
C33   H13   S    
C21   C22   A    
C12   C32   A    
C35   H8    S    
C36   H16   S    
C37   H17   S    
C1    O1    A    
C35   H9    S    
C37   O2    S    
O6    Zn1   S    
C5    C38   S    
C12   C46   A    
C19   C33   S    
C26   H3    S    
C6    C11   A    
C16   C17   S    
C23   H4    S    
C45   H6    S    
C36   H14   S    
C25   C26   A    
O8    Zn1   S    
C40   H30   S    
N2    Zn1   S    
C22   N2    A    
C43   C44   A    
C29   C30   A    
C31   C32   A    
C23   C34   A    
O3    Zn2   S    
C27   O8    A    
C41   H26   S    
C40   C41   S    
C5    C44   A    
O9    Zn2   S    
C8    H31   S    
C39   H20   S    
C22   C24   A    
C27   O9    A    
C1    C13   S    
C42   C43   A    
C36   H15   S    
C37   H18   S    
C44   C45   A    
C4    O5    A    
C15   C17   A    
C38   H25   S    
C26   N2    A    
C35   H10   S    
C39   H21   S    
C3    C5    A    
C7    H23   S    
C6    C7    A    
C4    O4    A    
C2    H5    S    
C40   H29   S    
O5    Zn2   S    
C2    C3    A    
C30   O10   S    
O1    Zn1   S    
C30   C31   A    
C2    C42   A    
N1    Zn2   S    
C33   C35   S    
C32   C43   A    
C9    H32   S    
C10   C11   A    
C41   H27   S    
C36   O10   S    
C14   H7    S    
C20   C21   A    
C16   O7    A    
C25   N1    A    
C14   C15   A    
C13   C14   A    
C3    C4    S    
C23   C31   A    
