data_mof_unit_2240.cif
_audit_creation_date              2012-12-10T20:57:58-0500
_audit_creation_method            fapswitch 2.2
_symmetry_space_group_name_H-M    P1
_symmetry_Int_Tables_number       1
_space_group_crystal_system       triclinic
_cell_length_a                    18.208428
_cell_length_b                    18.239195
_cell_length_c                    18.361298
_cell_angle_alpha                 120.040593
_cell_angle_beta                  89.922737
_cell_angle_gamma                 119.959395
_cell_volume                      4314.77542899

loop_
_atom_site_label
_atom_site_type_symbol
_atom_type_description
_atom_site_fract_x
_atom_site_fract_y
_atom_site_fract_z
_atom_type_partial_charge
C1    C     C_R   0.360769 0.220049 0.361029 0.810408
C2    C     C_3   0.340210 0.617094 0.337248 -0.512304
C3    C     C_3   0.305159 0.503897 0.300898 -0.169633
C4    C     C_3   0.201589 0.503671 0.200048 -0.063877
C5    C     C_3   0.144712 0.442781 0.237502 -0.589401
C6    C     C_3   0.276128 0.617386 0.281661 0.343849
C7    C     C_3   0.679263 0.939547 0.650818 -0.414970
C8    C     C_3   0.736382 0.060134 0.711906 0.282206
C9    C     C_3   0.679068 0.938343 0.787406 -0.327691
C10   C     C_3   0.799931 0.941317 0.719594 -0.386710
C11   C     C_3   0.698636 0.897483 0.698179 0.070123
C12   C     C_R   0.640960 0.780998 0.639900 0.787605
C13   C     C_3   0.799427 0.102570 0.801375 0.033990
C14   C     C_3   0.738479 0.058401 0.848133 -0.468783
C15   C     C_3   0.858567 0.060506 0.781148 -0.356507
C16   C     C_3   0.677116 0.390447 0.239229 -0.380216
C17   C     C_3   0.736753 0.390379 0.179295 -0.363517
C18   C     C_3   0.681824 0.533704 0.244622 -0.326450
C19   C     C_3   0.799385 0.576878 0.360071 -0.386966
C20   C     C_3   0.698475 0.500325 0.302144 0.135431
C21   C     C_3   0.799876 0.500277 0.200668 0.140425
C22   C     C_3   0.741786 0.533908 0.184973 -0.355000
C23   C     C_R   0.359274 0.500558 0.640733 0.861858
C24   C     C_3   0.858715 0.576868 0.300754 -0.386908
C25   C     C_R   0.474913 0.182911 0.550822 -0.111604
C26   C     C_R   0.431662 0.140751 0.463285 -0.099089
C27   C     C_R   0.339821 0.098169 0.434844 0.147055
C28   C     C_R   0.291790 0.097813 0.494702 -0.125359
C29   C     C_R   0.335421 0.140636 0.582308 -0.128784
C30   C     C_R   0.426832 0.182947 0.610295 -0.107254
C31   C     C_R   0.235368 0.943683 0.286241 -0.242372
C32   C     C_R   0.191697 0.892334 0.196193 -0.060209
C33   C     C_R   0.204143 0.949381 0.160650 -0.013872
C34   C     C_R   0.640742 0.500114 0.359450 0.765308
C35   C     C_R   0.261324 0.056397 0.216145 -0.194487
C36   C     C_R   0.305477 0.107689 0.306064 -0.058766
C37   C     C_R   0.292984 0.050626 0.341593 -0.014117
C38   C     C_R   0.206364 0.902045 0.007715 -0.094507
C39   C     C_R   0.163167 0.858719 0.919798 -0.097141
C40   C     C_R   0.071680 0.815849 0.891101 -0.149106
C41   C     C_R   0.023099 0.815832 0.950168 -0.111075
C42   C     C_R   0.065915 0.858486 0.038014 -0.076589
C43   C     C_R   0.157830 0.901666 0.067180 0.116723
C44   C     C_R   0.920117 0.656831 0.588690 -0.146223
C45   C     C_R   0.641857 0.500670 0.640655 0.805068
C46   C     C_R   0.871376 0.592564 0.615858 -0.150475
C47   C     C_R   0.843517 0.628494 0.689787 0.147314
C48   C     C_R   0.865806 0.729661 0.736876 -0.114900
C49   C     C_R   0.914410 0.793583 0.709360 -0.133380
C50   C     C_R   0.941333 0.757100 0.635190 -0.104449
C51   C     C_R   0.841781 0.556173 0.771490 -0.272922
C52   C     C_R   0.799354 0.497053 0.804548 -0.023366
C53   C     C_R   0.704921 0.438784 0.783177 0.084491
C54   C     C_R   0.655732 0.442733 0.730033 -0.183555
C55   C     C_R   0.698279 0.502581 0.697525 -0.060167
C56   C     C_R   0.361094 0.502924 0.359352 0.951934
C57   C     C_R   0.792735 0.561042 0.719199 -0.016796
C58   C     C_R   0.631857 0.268871 0.760989 -0.301194
C59   C     C_R   0.587687 0.203000 0.787514 -0.202735
C60   C     C_R   0.565106 0.237240 0.865139 0.405468
C61   C     C_R   0.586399 0.337809 0.915923 -0.330480
C62   C     C_R   0.631315 0.405165 0.890333 0.456632
C63   C     C_R   0.654577 0.370290 0.812074 -0.006197
C64   C     C_R   0.386725 0.799757 0.713085 -0.165275
C65   C     C_R   0.368389 0.739276 0.745533 0.487574
C66   C     C_R   0.291701 0.635191 0.694882 -0.015761
C67   C     C_3   0.307932 0.451257 0.202910 0.292356
C68   C     C_R   0.234440 0.594938 0.614153 -0.181605
C69   C     C_R   0.253404 0.656333 0.583126 -0.126441
C70   C     C_R   0.329572 0.758403 0.632335 -0.173047
C71   C     C_R   0.216869 0.561649 0.775518 -0.154034
C72   C     C_R   0.194928 0.498286 0.805122 -0.065933
C73   C     C_R   0.227665 0.436068 0.780445 -0.010495
C74   C     C_R   0.281143 0.438892 0.726883 -0.225968
C75   C     C_R   0.303236 0.502351 0.697460 -0.034327
C76   C     C_R   0.271442 0.565601 0.722961 0.069238
C77   C     C_R   0.268197 0.403470 0.885833 -0.091435
C78   C     C_3   0.244443 0.448381 0.144150 -0.421888
C79   C     C_R   0.250385 0.337993 0.912141 -0.114772
C80   C     C_R   0.173076 0.236354 0.861876 -0.131112
C81   C     C_R   0.113746 0.199694 0.784741 -0.137283
C82   C     C_R   0.131370 0.264797 0.758010 -0.088125
C83   C     C_R   0.208526 0.367230 0.808775 0.111451
C84   C     C_R   0.857145 0.500048 0.142904 0.757232
C85   C     C_R   0.138523 0.499531 0.861515 0.848660
C86   C     C_R   0.856892 0.219031 0.862147 0.834973
C87   C     C_R   0.136848 0.779961 0.141197 0.810258
C88   C     C_R   0.855887 0.499189 0.861469 0.845498
C89   C     C_3   0.205728 0.447987 0.301263 0.223457
C90   C     C_R   0.140920 0.501092 0.142736 0.887374
H1    H     H_    0.282591 0.370131 0.175269 0.170063
H2    H     H_    0.241436 0.646302 0.325964 0.103406
H3    H     H_    0.108437 0.475573 0.274372 0.173099
H4    H     H_    0.606742 0.908511 0.633606 0.160436
H5    H     H_    0.693124 0.910596 0.586717 0.217983
H6    H     H_    0.689222 0.083175 0.728701 0.080641
H7    H     H_    0.607052 0.909325 0.774005 0.218033
H8    H     H_    0.815828 0.911577 0.752814 0.174963
H9    H     H_    0.816548 0.915187 0.656847 0.197946
H10   H     H_    0.900231 0.086848 0.844557 0.166255
H11   H     H_    0.692001 0.908755 0.822533 0.197000
H12   H     H_    0.780491 0.086488 0.912197 0.189583
H13   H     H_    0.605157 0.333601 0.196467 0.218808
H14   H     H_    0.693163 0.333749 0.108046 0.230352
H15   H     H_    0.610009 0.479693 0.201794 0.240182
H16   H     H_    0.279002 0.482413 0.108547 0.261009
H17   H     H_    0.698668 0.480213 0.113822 0.211174
H18   H     H_    0.817081 0.656774 0.406059 0.186653
H19   H     H_    0.813207 0.554193 0.401657 0.180923
H20   H     H_    0.904624 0.656761 0.318300 0.185816
H21   H     H_    0.696719 0.612462 0.288465 0.186216
H22   H     H_    0.785791 0.612798 0.200087 0.188545
H23   H     H_    0.190479 0.365830 0.090712 0.149499
H24   H     H_    0.220803 0.064696 0.473514 0.133134
H25   H     H_    0.298309 0.140709 0.628419 0.136738
H26   H     H_    0.269620 0.099795 0.188875 0.195096
H27   H     H_    0.277387 0.935498 0.029422 0.161486
H28   H     H_    0.200673 0.858667 0.874000 0.161203
H29   H     H_    0.027787 0.858266 0.083322 0.136272
H30   H     H_    0.978927 0.806645 0.613955 0.123985
H31   H     H_    0.941526 0.628955 0.531640 0.126454
H32   H     H_    0.931495 0.871489 0.745667 0.118657
H33   H     H_    0.913997 0.599518 0.786482 0.177318
H34   H     H_    0.583461 0.398681 0.714466 0.186462
H35   H     H_    0.649522 0.241331 0.701058 0.179495
H36   H     H_    0.571382 0.125352 0.747724 0.176206
H37   H     H_    0.092174 0.361285 0.181155 0.214230
H38   H     H_    0.344415 0.805631 0.607861 0.163292
H39   H     H_    0.445577 0.878997 0.749932 0.210575
H40   H     H_    0.175701 0.515391 0.574666 0.166221
H41   H     H_    0.209234 0.624591 0.520623 0.133702
H42   H     H_    0.192082 0.609470 0.793824 0.176365
H43   H     H_    0.305653 0.390762 0.708258 0.178195
H44   H     H_    0.328203 0.482155 0.925326 0.168423
H45   H     H_    0.296614 0.365905 0.971320 0.189533
H46   H     H_    0.343914 0.659888 0.408180 0.159739
H47   H     H_    0.159377 0.185882 0.882467 0.138621
H48   H     H_    0.054339 0.120719 0.745506 0.127735
H49   H     H_    0.085001 0.235757 0.698189 0.160039
O1    O     O_3   0.500000 0.500000 0.500000 -0.500731
O2    O     O_R   0.383400 0.560740 0.616060 -0.631511
O3    O     O_R   0.555060 0.439270 0.322940 -0.617531
O4    O     O_R   0.383950 0.268380 0.445700 -0.641109
O5    O     O_R   0.677590 0.731610 0.615290 -0.643114
O6    O     O_3   0.997750 0.500010 0.002220 -0.493608
O7    O     O_R   0.942690 0.560750 0.179280 -0.656340
O8    O     O_R   0.114340 0.439270 0.886160 -0.622636
O9    O     O_R   0.820160 0.268410 0.886930 -0.647472
O10   O     O_R   0.113800 0.731630 0.056520 -0.636258
O11   O     O_R   0.819390 0.439310 0.886160 -0.640697
O12   O     O_R   0.383400 0.268380 0.323710 -0.629003
O13   O     O_R   0.115110 0.560720 0.179280 -0.620688
O14   O     O_R   0.941380 0.560750 0.885620 -0.648439
O15   O     O_R   0.115110 0.439270 0.057830 -0.652674
O16   O     O_R   0.942690 0.268390 0.886930 -0.630887
O17   O     O_R   0.114340 0.731630 0.178520 -0.620211
O18   O     O_R   0.820160 0.439310 0.057830 -0.636102
O19   O     O_R   0.113800 0.560730 0.885620 -0.641209
O20   O     O_R   0.555060 0.731630 0.615290 -0.641574
O21   O     O_R   0.383950 0.439280 0.616600 -0.643136
O22   O     O_R   0.677590 0.560710 0.444390 -0.650979
O23   O     O_R   0.556370 0.439260 0.616600 -0.645469
O24   O     O_R   0.382640 0.439290 0.322940 -0.567872
O25   O     O_R   0.678360 0.560700 0.616060 -0.639525
O26   O     O_R   0.382640 0.560750 0.444390 -0.658038
Zn1   Zn    Zn3+2 0.456040 0.586770 0.543190 1.026585
Zn2   Zn    Zn3+2 0.456820 0.413240 0.543960 1.005580
Zn3   Zn    Zn3+2 0.631110 0.586750 0.543190 0.976466
Zn4   Zn    Zn3+2 0.456040 0.413240 0.369660 1.077167
Zn5   Zn    Zn3+2 0.041710 0.413240 0.959030 1.020758
Zn6   Zn    Zn3+2 0.866640 0.413270 0.959030 1.001791
Zn7   Zn    Zn3+2 0.040930 0.586780 0.958260 1.018212
Zn8   Zn    Zn3+2 0.041710 0.586770 0.132560 1.004869
H50   H     H_    0.206701 0.496585 0.369884 0.114989
S1    S     S_3+6 0.792885 0.112938 0.651900 0.009571
O27   O     O_2   0.852915 0.078879 0.617976 -0.288356
O28   O     O_2   0.723332 0.073678 0.573403 -0.275456
O29   O     O_3   0.854743 0.243186 0.717053 -0.558879
H51   H     H_    0.810382 0.260467 0.727066 0.342200
H52   H     H_    0.694643 0.086273 0.864495 0.232612
S2    S     S_3+6 0.419319 0.508204 0.192155 0.009332
O30   O     O_2   0.491533 0.554534 0.272265 -0.329630
O31   O     O_2   0.418863 0.424126 0.111459 -0.304608
O32   O     O_3   0.445145 0.601732 0.178403 -0.488302
H53   H     H_    0.500661 0.618716 0.162439 0.406895
H54   H     H_    0.906215 0.091908 0.750284 0.224818
H55   H     H_    0.688865 0.365019 0.279173 0.160268
H56   H     H_    0.777154 0.364657 0.190091 0.162797
H57   H     H_    0.901143 0.554529 0.314246 0.178120
H58   H     H_    0.460255 0.215694 0.678059 0.139550
H59   H     H_    0.545663 0.215491 0.572509 0.132830
H60   H     H_    0.469379 0.140820 0.417629 0.117914
H61   H     H_    0.226560 0.900391 0.313730 0.198113
H62   H     H_    0.038558 0.782703 0.823101 0.144859
H63   H     H_    0.952294 0.782816 0.927914 0.147751
S3    S     S_3+6 0.155941 0.321539 0.279159 0.011918
O33   O     O_2   0.207324 0.330708 0.350759 -0.293100
O34   O     O_2   0.061134 0.278904 0.280285 -0.282160
O35   O     O_3   0.154150 0.237878 0.179610 -0.549114
H64   H     H_    0.106219 0.219397 0.134892 0.345895
H65   H     H_    0.855194 0.514980 0.579384 0.132068
H66   H     H_    0.845371 0.758628 0.794516 0.125460
S4    S     S_3+6 0.510870 0.153714 0.898506 0.017040
O36   O     O_2   0.574301 0.134197 0.923907 -0.273158
O37   O     O_2   0.483081 0.200590 0.976997 -0.288682
O38   O     O_3   0.419814 0.040127 0.812978 -0.553640
H67   H     H_    0.382444 0.058350 0.797142 0.346127
H68   H     H_    0.568354 0.363710 0.975661 0.219428
S5    S     S_3+6 0.659147 0.532517 0.957709 0.008334
O39   O     O_2   0.629060 0.550540 0.037720 -0.292217
O40   O     O_2   0.759190 0.608906 0.988294 -0.335788
O41   O     O_3   0.608297 0.549688 0.897279 -0.559091
H69   H     H_    0.633742 0.624551 0.935243 0.394519
S6    S     S_3+6 0.442973 0.794216 0.847671 0.010154
O42   O     O_2   0.489185 0.740866 0.829638 -0.337455
O43   O     O_2   0.512297 0.908158 0.892468 -0.273788
O44   O     O_3   0.384787 0.777371 0.915594 -0.560405
H70   H     H_    0.428241 0.798339 0.966248 0.395845
H71   H     H_    0.409878 0.658894 0.336988 0.283731
S7    S     S_3+6 0.335430 0.710313 0.254785 0.046873
O45   O     O_2   0.431927 0.789591 0.314507 -0.246433
O46   O     O_2   0.331844 0.658270 0.159170 -0.294246
O47   O     O_3   0.285943 0.771768 0.271584 -0.566142
H72   H     H_    0.318750 0.818927 0.253422 0.371916

loop_
_geom_bond_atom_site_label_1
_geom_bond_atom_site_label_2
_ccdc_geom_bond_type
O1    Zn3   S    
C66   C68   A    
S4    O36   D    
O6    Zn6   S    
C88   O14   A    
O26   Zn1   S    
O10   Zn7   S    
C51   H33   S    
C41   C42   A    
C5    C89   S    
C35   C36   A    
C8    H6    S    
C72   C85   S    
C15   H10   S    
C86   O16   A    
C34   O22   A    
O9    Zn6   S    
S7    O46   D    
O29   H51   S    
C8    S1    S    
C65   C66   A    
C7    C8    S    
S1    O28   D    
C40   H62   S    
C53   C54   A    
C85   O19   A    
C59   H36   S    
C7    C11   S    
S4    O37   D    
C56   O24   A    
C28   C29   A    
O2    Zn1   S    
C29   C30   A    
O5    Zn3   S    
C50   H30   S    
C36   C37   A    
C45   O25   A    
C77   C79   A    
C10   C15   S    
C14   H52   S    
C71   C76   A    
S6    O43   D    
C42   H29   S    
C14   H12   S    
C77   C83   A    
C17   H56   S    
C44   C50   A    
C80   H47   S    
C74   H43   S    
C48   H66   S    
C44   H31   S    
C58   C63   A    
S5    O41   S    
O32   H53   S    
O15   Zn5   S    
C73   C74   A    
O21   Zn2   S    
C10   H8    S    
C53   C63   S    
C67   S2    S    
C33   C35   A    
C71   H42   S    
C46   C47   A    
C38   H27   S    
C46   H65   S    
O11   Zn6   S    
C16   C17   S    
C56   O26   A    
C1    O12   A    
C24   H57   S    
C51   C57   A    
C19   C24   S    
C64   C70   A    
C90   O15   A    
C42   C43   A    
O8    Zn5   S    
C69   H41   S    
C72   C73   A    
C20   C34   S    
C19   H18   S    
O1    Zn2   S    
C19   H19   S    
C29   H25   S    
O6    Zn7   S    
O35   H64   S    
C18   C22   S    
C21   C22   S    
C2    C6    S    
C67   C78   S    
C89   H50   S    
S3    O35   S    
S7    O45   D    
S4    O38   S    
C44   C46   A    
C81   C82   A    
S1    O29   S    
C4    C90   S    
S2    O31   D    
C1    C36   S    
O1    Zn1   S    
C81   H48   S    
C15   H54   S    
O17   Zn8   S    
C74   C75   A    
C51   C52   A    
C33   C43   S    
C47   C48   A    
C52   C88   S    
C24   H20   S    
C18   H21   S    
O47   H72   S    
C90   O13   A    
C25   H59   S    
C39   C40   A    
C31   H61   S    
C45   O23   A    
C26   H60   S    
O38   H67   S    
S3    O33   D    
C58   C59   A    
S2    O30   D    
C89   S3    S    
C16   H55   S    
C2    H46   S    
C12   O5    A    
C60   C61   A    
C13   C86   S    
C75   C76   A    
C59   C60   A    
C4    C78   S    
C82   H49   S    
C1    O4    A    
O7    Zn8   S    
C47   C57   S    
C3    C56   S    
C60   S4    S    
C31   C32   A    
C21   C84   S    
O25   Zn3   S    
C16   C20   S    
C66   C76   S    
C23   O21   A    
C5    H37   S    
C62   C63   A    
C67   H1    S    
S5    O39   D    
C26   C27   A    
C9    C14   S    
C35   H26   S    
C64   H39   S    
C68   H40   S    
C9    C11   S    
O4    Zn2   S    
C28   H24   S    
O3    Zn4   S    
C6    S7    S    
O13   Zn8   S    
S3    O34   D    
C40   C41   A    
O44   H70   S    
O6    Zn8   S    
O6    Zn5   S    
C22   H22   S    
C13   C15   S    
O1    Zn4   S    
C2    H71   S    
C16   H13   S    
C38   C43   A    
C79   C80   A    
C4    C6    S    
C77   H44   S    
C7    H5    S    
C52   C53   A    
S2    O32   S    
C70   H38   S    
C25   C30   A    
C7    H4    S    
C54   H34   S    
C54   C55   A    
C34   O3    A    
C9    H7    S    
S6    O42   D    
C88   O11   A    
C68   C69   A    
C3    C67   S    
C85   O8    A    
C23   C75   S    
C80   C81   A    
S6    O44   S    
C86   O9    A    
C5    H3    S    
C84   O18   A    
C84   O7    A    
C39   H28   S    
C79   H45   S    
O12   Zn4   S    
O20   Zn1   S    
C3    C89   S    
C78   H16   S    
C64   C65   A    
C19   C20   S    
C55   C57   A    
C2    C3    S    
C25   C26   A    
C18   H15   S    
C65   S6    S    
C41   H63   S    
S1    O27   D    
C32   C33   A    
C17   H14   S    
C32   C87   S    
O16   Zn5   S    
O19   Zn7   S    
C38   C39   A    
C27   C37   S    
C48   C49   A    
C49   H32   S    
O14   Zn7   S    
S5    O40   D    
C62   S5    S    
C10   H9    S    
C18   C20   S    
C6    H2    S    
C30   H58   S    
C12   O20   A    
C61   C62   A    
O24   Zn4   S    
C69   C70   A    
O22   Zn3   S    
C10   C11   S    
C61   H68   S    
O23   Zn2   S    
C78   H23   S    
C8    C13   S    
C31   C37   A    
C4    C5    S    
C71   C72   A    
O41   H69   S    
C45   C55   S    
C58   H35   S    
C9    H11   S    
C49   C50   A    
C87   O10   A    
C21   C24   S    
C27   C28   A    
C87   O17   A    
C23   O2    A    
C82   C83   A    
C13   C14   S    
C73   C83   S    
S7    O47   S    
O18   Zn6   S    
C22   H17   S    
C11   C12   S    
C17   C21   S    
