data_mof_unit_2923.cif
_audit_creation_date              2012-10-26T19:46:52-0400
_audit_creation_method            fapswitch 2.2
_symmetry_space_group_name_H-M    P1
_symmetry_Int_Tables_number       1
_space_group_crystal_system       triclinic
_cell_length_a                    10.821785
_cell_length_b                    9.531115
_cell_length_c                    15.991798
_cell_angle_alpha                 89.995382
_cell_angle_beta                  90.172072
_cell_angle_gamma                 90.019061
_cell_volume                      1649.44531801

loop_
_atom_site_label
_atom_site_type_symbol
_atom_type_description
_atom_site_fract_x
_atom_site_fract_y
_atom_site_fract_z
_atom_type_partial_charge
C1    C     C_R   0.871754 0.500016 0.500008 0.019136
C2    C     C_R   0.513485 0.372910 0.956449 0.237575
C3    C     C_R   0.500155 0.500108 0.912490 -0.067978
C4    C     C_R   0.500279 0.500178 0.087519 -0.067458
C5    C     C_1   0.500104 0.500034 0.822734 -0.015705
C6    C     C_1   0.500189 0.500115 0.177240 -0.012852
C7    C     C_1   0.500066 0.500046 0.252261 -0.026213
C8    C     C_1   0.500095 0.499996 0.747722 -0.028123
C9    C     C_R   0.421598 0.074344 0.449102 0.014561
C10   C     C_R   0.578353 0.925653 0.550937 0.010683
C11   C     C_R   0.578359 0.074389 0.550932 0.009887
C12   C     C_R   0.128245 0.499984 0.499853 0.019235
C13   C     C_R   0.421604 0.925608 0.449096 0.015426
C14   C     C_R   0.063844 0.372464 0.499864 -0.142921
C15   C     C_R   0.936155 0.627536 0.499961 -0.142709
C16   C     C_R   0.936073 0.372479 0.499961 -0.142752
C17   C     C_R   0.063926 0.627521 0.499856 -0.142680
C18   C     C_3   0.319107 0.743855 0.112051 0.018382
C19   C     C_3   0.226380 0.744761 0.038938 -0.264700
C20   C     C_3   0.095060 0.772884 0.069121 -0.499937
C21   C     C_3   0.407388 0.200688 0.885905 0.017974
C22   C     C_3   0.329304 0.137268 0.956442 -0.247918
C23   C     C_R   0.262100 0.499987 0.499908 0.547198
C24   C     C_3   0.202932 0.091116 0.923801 -0.502734
C25   C     C_3   0.592541 0.799539 0.885821 0.017412
C26   C     C_3   0.670813 0.863534 0.956371 -0.247171
C27   C     C_3   0.796938 0.909817 0.923885 -0.504261
C28   C     C_3   0.681720 0.256696 0.112612 0.019991
C29   C     C_3   0.774171 0.255756 0.039712 -0.265750
C30   C     C_3   0.905586 0.227487 0.070192 -0.499900
C31   C     C_R   0.737900 0.500013 0.500046 0.547225
C32   C     C_R   0.499942 0.500008 0.341302 0.544526
C33   C     C_R   0.500086 0.499996 0.658693 0.546023
C34   C     C_R   0.486903 0.627367 0.956347 0.238128
C35   C     C_R   0.527186 0.375840 0.043637 0.239458
C36   C     C_R   0.473364 0.624519 0.043504 0.240065
Cu1   Cu    Cu3+1 0.500000 0.640660 0.500000 0.937621
Cu2   Cu    Cu3+1 0.500000 0.359340 0.500000 0.936135
H1    H     H_    0.358751 0.130287 0.408298 0.109190
H2    H     H_    0.030586 0.770507 0.015018 0.147788
H3    H     H_    0.089253 0.877756 0.099146 0.142258
H4    H     H_    0.423113 0.118273 0.837973 0.155949
H5    H     H_    0.354740 0.285766 0.854096 0.122453
H6    H     H_    0.378570 0.045821 0.983897 0.219600
H7    H     H_    0.314538 0.216229 0.006496 0.170741
H8    H     H_    0.153301 0.181352 0.895301 0.143455
H9    H     H_    0.146372 0.050698 0.976328 0.144637
H10   H     H_    0.213512 0.006893 0.876333 0.161552
H11   H     H_    0.576498 0.881612 0.837661 0.152685
H12   H     H_    0.641147 0.869712 0.591783 0.104280
H13   H     H_    0.645203 0.714387 0.854330 0.119376
H14   H     H_    0.621512 0.955005 0.983527 0.219948
H15   H     H_    0.685916 0.784889 0.006606 0.171701
H16   H     H_    0.846518 0.819603 0.895563 0.142492
H17   H     H_    0.853743 0.950471 0.976447 0.145889
H18   H     H_    0.785986 0.993881 0.876320 0.157955
H19   H     H_    0.697306 0.161464 0.151288 0.160678
H20   H     H_    0.700302 0.348012 0.154041 0.122588
H21   H     H_    0.747119 0.174212 0.993869 0.206196
H22   H     H_    0.772763 0.359040 0.007462 0.149926
H23   H     H_    0.641166 0.130365 0.591767 0.108429
H24   H     H_    0.934516 0.309060 0.115843 0.149391
H25   H     H_    0.969857 0.229940 0.016241 0.147185
H26   H     H_    0.911442 0.122537 0.100156 0.143306
H27   H     H_    0.111882 0.272765 0.499821 0.126093
H28   H     H_    0.888118 0.727235 0.500008 0.126654
H29   H     H_    0.887972 0.272784 0.500005 0.126565
H30   H     H_    0.112027 0.727216 0.499804 0.126291
H31   H     H_    0.358771 0.869629 0.408278 0.106261
H32   H     H_    0.303716 0.839152 0.150639 0.155581
H33   H     H_    0.300614 0.652621 0.153490 0.119805
H34   H     H_    0.253202 0.826362 0.993173 0.206316
H35   H     H_    0.227734 0.641500 0.006677 0.150254
H36   H     H_    0.066346 0.691184 0.114637 0.149144
N1    N     N_R   0.500000 0.852070 0.500000 -0.222552
N2    N     N_R   0.500000 0.147930 0.500000 -0.224031
O1    O     O_R   0.319640 0.618740 0.499990 -0.509578
O2    O     O_3   0.524784 0.245749 0.915026 -0.557849
O3    O     O_3   0.475340 0.754457 0.914815 -0.555492
O4    O     O_3   0.557029 0.252538 0.084952 -0.545365
O5    O     O_R   0.680360 0.381260 0.500010 -0.509223
O6    O     O_R   0.680360 0.618740 0.500010 -0.509112
O7    O     O_R   0.319640 0.381260 0.499990 -0.510071
O8    O     O_R   0.499970 0.618750 0.380310 -0.493545
O9    O     O_R   0.500030 0.381250 0.619690 -0.496497
O10   O     O_R   0.500030 0.618750 0.619690 -0.495963
O11   O     O_R   0.499970 0.381250 0.380310 -0.493946
O12   O     O_3   0.443697 0.747889 0.084680 -0.544262

loop_
_geom_bond_atom_site_label_1
_geom_bond_atom_site_label_2
_ccdc_geom_bond_type
C2    C35   A    
C18   H32   S    
C4    C36   A    
C30   H26   S    
Cu2   O7    S    
C19   C20   S    
C1    C31   S    
C20   H3    S    
C27   H16   S    
Cu2   N2    S    
C28   H19   S    
C36   O12   S    
C12   C23   S    
C26   C27   S    
C29   C30   S    
C31   O6    A    
C23   O7    A    
C28   C29   S    
C11   N2    A    
C20   H2    S    
C27   H17   S    
C35   O4    S    
C9    H1    S    
C18   C19   S    
C9    C13   A    
C33   O9    A    
C21   H5    S    
C22   H6    S    
C13   N1    A    
C12   C17   A    
Cu1   O8    S    
C1    C15   A    
C9    N2    A    
Cu1   N1    S    
C4    C35   A    
C30   H25   S    
C19   H34   S    
C32   O8    A    
Cu2   O9    S    
C24   H10   S    
C29   H21   S    
Cu1   O10   S    
C19   H35   S    
C4    C6    S    
C16   H29   S    
C27   H18   S    
C3    C34   A    
C3    C5    S    
C25   C26   S    
C15   H28   S    
Cu1   O1    S    
C18   O12   S    
C21   O2    S    
C33   O10   A    
C25   H13   S    
Cu1   Cu2   S    
C2    O2    S    
C26   H14   S    
C34   O3    S    
C10   N1    A    
C29   H22   S    
C20   H36   S    
C1    C16   A    
C23   O1    A    
C12   C14   A    
C30   H24   S    
Cu2   O5    S    
C22   C24   S    
Cu1   O6    S    
C10   H12   S    
C26   H15   S    
C18   H33   S    
C15   C17   A    
C17   H30   S    
C7    C32   S    
C14   C16   A    
C25   O3    S    
C24   H9    S    
C11   H23   S    
C5    C8    T    
C6    C7    T    
C28   H20   S    
C31   O5    A    
Cu2   O11   S    
C24   H8    S    
C2    C3    A    
C32   O11   A    
C13   H31   S    
C14   H27   S    
C34   C36   A    
C8    C33   S    
C28   O4    S    
C25   H11   S    
C10   C11   A    
C21   H4    S    
C22   H7    S    
C21   C22   S    
