data_mof_unit_2098.cif
_audit_creation_date              2012-12-10T18:06:40-0500
_audit_creation_method            fapswitch 2.2
_symmetry_space_group_name_H-M    P1
_symmetry_Int_Tables_number       1
_space_group_crystal_system       triclinic
_cell_length_a                    12.754051
_cell_length_b                    13.054601
_cell_length_c                    15.353653
_cell_angle_alpha                 84.860678
_cell_angle_beta                  100.33923
_cell_angle_gamma                 97.604282
_cell_volume                      2487.05610855

loop_
_atom_site_label
_atom_site_type_symbol
_atom_type_description
_atom_site_fract_x
_atom_site_fract_y
_atom_site_fract_z
_atom_type_partial_charge
C1    C     C_R   0.442562 0.308394 0.508274 0.862160
C2    C     C_R   0.410723 0.468949 0.094368 -0.025851
C3    C     C_R   0.319610 0.519562 0.055224 -0.070899
C4    C     C_R   0.471387 0.426655 0.040394 0.063976
C5    C     C_R   0.457175 0.459685 0.949664 -0.064614
C6    C     C_R   0.363098 0.503638 0.910865 -0.363771
C7    C     C_R   0.290714 0.526968 0.962012 0.538751
C8    C     C_R   0.546601 0.354775 0.073373 0.438619
C9    C     C_R   0.617750 0.332333 0.019438 -0.354406
C10   C     C_R   0.614366 0.378463 0.933719 0.121285
C11   C     C_R   0.535184 0.444262 0.899331 0.111875
C12   C     C_R   0.434534 0.512835 0.335669 0.908177
C13   C     C_R   0.686208 0.356719 0.880179 -0.181245
C14   C     C_R   0.676191 0.396629 0.791917 -0.201774
C15   C     C_R   0.535964 0.493270 0.814992 -0.227887
C16   C     C_R   0.624774 0.938887 0.359217 -0.302826
C17   C     C_R   0.583318 0.801557 0.468840 -0.305461
C18   C     C_R   0.335913 0.156304 0.574387 0.437256
C19   C     C_R   0.311485 0.048930 0.587345 0.369838
C20   C     C_R   0.368029 0.983781 0.550362 -0.302520
C21   C     C_R   0.444561 0.025159 0.496647 0.083647
C22   C     C_R   0.449323 0.130439 0.467656 -0.005329
C23   C     C_R   0.555682 0.691422 0.488420 0.916261
C24   C     C_R   0.513373 0.964310 0.467546 0.091599
C25   C     C_R   0.563845 0.001693 0.393762 0.020408
C26   C     C_R   0.552590 0.101314 0.355409 -0.175338
C27   C     C_R   0.497650 0.165913 0.392920 -0.129025
C28   C     C_R   0.537106 0.869474 0.511930 0.323595
C29   C     C_R   0.632947 0.837702 0.395123 0.431572
C30   C     C_R   0.405651 0.197419 0.514352 -0.304956
C31   C     C_R   0.149359 0.647642 0.623022 -0.284746
C32   C     C_R   0.754089 0.377356 0.395456 0.019625
C33   C     C_R   0.846794 0.346365 0.376817 -0.252812
C34   C     C_R   0.564714 0.486021 0.663944 0.846293
C35   C     C_R   0.945709 0.389564 0.419958 -0.164663
C36   C     C_R   0.952576 0.465623 0.481673 -0.055918
C37   C     C_R   0.855989 0.494257 0.500132 0.163977
C38   C     C_R   0.051486 0.515756 0.523959 -0.024921
C39   C     C_R   0.053585 0.593461 0.583427 0.131607
C40   C     C_R   0.960482 0.618204 0.602907 -0.393189
C41   C     C_R   0.862436 0.570221 0.563451 0.435121
C42   C     C_R   0.149940 0.494649 0.508126 -0.002447
C43   C     C_R   0.243083 0.625871 0.601466 0.000305
C44   C     C_R   0.391045 0.515626 0.239985 -0.218554
C45   C     C_R   0.598199 0.462950 0.758799 -0.069717
C46   C     C_R   0.262910 0.565539 0.109667 0.363454
C47   C     C_R   0.295402 0.558064 0.202999 0.335872
C48   C     C_R   0.447475 0.473487 0.185273 -0.233893
H1    H     H_    0.746318 0.305110 0.905159 0.141359
H2    H     H_    0.589205 0.130375 0.298239 0.147234
H3    H     H_    0.661896 0.966396 0.301897 0.165172
H4    H     H_    0.348317 0.901010 0.560957 0.207736
H5    H     H_    0.491191 0.243009 0.361667 0.163008
H6    H     H_    0.319237 0.666781 0.629800 0.155832
H7    H     H_    0.485002 0.552917 0.790012 0.157533
H8    H     H_    0.963903 0.677315 0.649124 0.152719
H9    H     H_    0.151413 0.706822 0.668772 0.158454
H10   H     H_    0.159373 0.435276 0.466943 0.123326
H11   H     H_    0.676644 0.343766 0.362596 0.140632
H12   H     H_    0.015032 0.362758 0.402556 0.136165
H13   H     H_    0.842076 0.288937 0.329139 0.145428
H14   H     H_    0.725849 0.372450 0.749083 0.164355
H15   H     H_    0.675256 0.278009 0.044255 0.143963
H16   H     H_    0.524596 0.449461 0.213976 0.234196
H17   H     H_    0.342101 0.518036 0.840016 0.157660
N1    N     N_R   0.239390 0.551900 0.544730 -0.109049
N2    N     N_R   0.759950 0.448600 0.455730 -0.113368
O1    O     O_R   0.374950 0.371210 0.521360 -0.568894
O2    O     O_R   0.542050 0.338030 0.492790 -0.622012
O3    O     O_R   0.368720 0.526070 0.390200 -0.572221
O4    O     O_R   0.535820 0.492890 0.361630 -0.624605
O5    O     O_R   0.457950 0.661970 0.507210 -0.599454
O6    O     O_R   0.625050 0.628790 0.478640 -0.509726
O7    O     O_R   0.464180 0.507110 0.638370 -0.631580
O8    O     O_R   0.631280 0.473930 0.609800 -0.545392
Zn1   Zn    Zn3+2 0.388420 0.522150 0.519080 0.968775
Zn2   Zn    Zn3+2 0.611580 0.477850 0.480920 0.986371
O9    O     O_3   0.199013 0.569772 0.920851 -0.543157
C49   C     C_3   0.129141 0.496016 0.869511 0.103131
H18   H     H_    0.120352 0.418845 0.906760 0.125698
H19   H     H_    0.158472 0.487834 0.806821 0.138372
C50   C     C_3   0.018659 0.532786 0.845189 -0.752259
H20   H     H_    0.024557 0.610190 0.808854 0.252559
H21   H     H_    0.963897 0.477399 0.802177 0.198071
H22   H     H_    0.984885 0.538040 0.906226 0.265469
O10   O     O_3   0.680793 0.772101 0.352867 -0.581894
C51   C     C_3   0.792379 0.786697 0.384154 0.137358
H23   H     H_    0.810227 0.767761 0.457128 0.158577
H24   H     H_    0.826889 0.867952 0.368952 0.125724
C52   C     C_3   0.847168 0.715295 0.338778 -0.804674
H25   H     H_    0.838786 0.738027 0.266643 0.252848
H26   H     H_    0.933650 0.720948 0.368120 0.206852
H27   H     H_    0.810501 0.633997 0.348017 0.265732
O11   O     O_3   0.517768 0.845574 0.597804 -0.779907
H28   H     H_    0.559064 0.788443 0.625805 0.327601
O12   O     O_3   0.286103 0.220835 0.616352 -0.564424
C53   C     C_3   0.344578 0.233770 0.702683 0.180252
H29   H     H_    0.428855 0.268299 0.700440 0.108841
H30   H     H_    0.345148 0.158496 0.742993 0.166051
C54   C     C_3   0.291608 0.306486 0.748463 -0.808969
H31   H     H_    0.206626 0.275282 0.750211 0.256578
H32   H     H_    0.334502 0.313896 0.817556 0.207371
H33   H     H_    0.294345 0.384159 0.712368 0.261220
O13   O     O_3   0.235003 0.010213 0.638843 -0.741869
H34   H     H_    0.227862 0.933446 0.642071 0.328117
O14   O     O_3   0.774118 0.600087 0.587293 -0.723500
H35   H     H_    0.792465 0.652045 0.632741 0.306075
O15   O     O_3   0.179135 0.620675 0.070525 -0.711513
H36   H     H_    0.162519 0.665721 0.113512 0.361866
O16   O     O_3   0.240534 0.602851 0.256728 -0.589957
C55   C     C_3   0.142699 0.540190 0.263804 0.107648
H37   H     H_    0.157688 0.474614 0.313809 0.142692
H38   H     H_    0.101512 0.507541 0.200166 0.140203
C56   C     C_3   0.066778 0.605513 0.292933 -0.829073
H39   H     H_    0.050714 0.670930 0.242931 0.255169
H40   H     H_    0.989511 0.557707 0.299118 0.220481
H41   H     H_    0.102910 0.637185 0.357727 0.266995
O17   O     O_3   0.542868 0.299982 0.154322 -0.808483
H42   H     H_    0.600618 0.254149 0.166914 0.319997

loop_
_geom_bond_atom_site_label_1
_geom_bond_atom_site_label_2
_ccdc_geom_bond_type
C51   H23   S    
C17   C29   A    
O2    Zn2   S    
C35   C36   A    
N2    Zn2   S    
C16   H3    S    
O5    Zn1   S    
C42   H10   S    
C56   H39   S    
C8    O17   S    
C26   C27   A    
C17   C23   S    
C31   C43   A    
C36   C37   A    
C38   C42   A    
C3    C7    A    
C26   H2    S    
C5    C6    A    
C48   H16   S    
O14   H35   S    
C14   H14   S    
C1    O1    A    
C18   O12   S    
O15   H36   S    
C28   O11   S    
C18   C19   A    
O16   C55   S    
C54   H31   S    
O17   H42   S    
C11   C15   A    
C6    H17   S    
C19   C20   A    
C8    C9    A    
C40   H8    S    
C46   O15   S    
C18   C30   A    
C9    C10   A    
C44   C47   A    
C4    C8    A    
C34   O8    A    
C9    H15   S    
C21   C22   A    
C23   O6    A    
O13   H34   S    
C53   H30   S    
C53   H29   S    
C14   C45   A    
C41   O14   S    
C24   C25   A    
C39   C40   A    
C49   H19   S    
O9    C49   S    
C2    C48   A    
C16   C29   A    
C54   H33   S    
C1    O2    A    
C35   H12   S    
C15   H7    S    
C2    C4    A    
C19   O13   S    
C43   H6    S    
C52   H26   S    
N1    Zn1   S    
O12   C53   S    
C54   H32   S    
C55   H38   S    
C34   C45   S    
O8    Zn2   S    
C29   O10   S    
O7    Zn1   S    
C34   O7    A    
C32   N2    A    
C13   H1    S    
C33   H13   S    
C40   C41   A    
C12   O4    A    
C50   H21   S    
C22   C27   A    
C7    O9    S    
O3    Zn1   S    
C51   C52   S    
C15   C45   A    
C47   O16   S    
O4    Zn2   S    
C53   C54   S    
C52   H27   S    
C16   C25   A    
C12   O3    A    
C46   C47   A    
C22   C30   A    
C55   H37   S    
O10   C51   S    
C17   C28   A    
C23   O5    A    
C24   C28   A    
C4    C5    A    
C10   C13   A    
C49   C50   S    
C56   H40   S    
C27   H5    S    
C5    C11   A    
C6    C7    A    
O1    Zn1   S    
C50   H22   S    
C3    C46   A    
C32   C33   A    
C31   H9    S    
C51   H24   S    
C2    C3    A    
C25   C26   A    
C20   H4    S    
C52   H25   S    
C38   C39   A    
C43   N1    A    
C37   N2    A    
C36   C38   A    
C1    C30   S    
C33   C35   A    
C31   C39   A    
C55   C56   S    
C37   C41   A    
O11   H28   S    
C56   H41   S    
C10   C11   A    
C49   H18   S    
C20   C21   A    
C12   C44   S    
C50   H20   S    
C21   C24   A    
C42   N1    A    
O6    Zn2   S    
C32   H11   S    
C13   C14   A    
C44   C48   A    
