data_mof_unit_4655.cif
_audit_creation_date              2012-12-11T15:29:42-0500
_audit_creation_method            fapswitch 2.2
_symmetry_space_group_name_H-M    P1
_symmetry_Int_Tables_number       1
_space_group_crystal_system       triclinic
_cell_length_a                    21.403207
_cell_length_b                    7.249316
_cell_length_c                    14.82823
_cell_angle_alpha                 89.99986
_cell_angle_beta                  73.948761
_cell_angle_gamma                 90.000015
_cell_volume                      2211.03327303

loop_
_atom_site_label
_atom_site_type_symbol
_atom_type_description
_atom_site_fract_x
_atom_site_fract_y
_atom_site_fract_z
_atom_type_partial_charge
O1    O     O_R   0.464160 0.506670 0.130070 -0.540208
O2    O     O_R   0.535840 0.006670 0.869930 -0.540209
O3    O     O_R   0.589710 0.179080 0.006710 -0.547994
O4    O     O_R   0.410290 0.679080 0.993290 -0.547996
C1    C     C_R   0.616125 0.344575 0.002902 0.656028
C2    C     C_R   0.383873 0.844575 0.997109 0.656031
O5    O     O_R   0.467940 0.177220 0.138010 -0.530537
O6    O     O_R   0.532060 0.677220 0.861990 -0.530527
O7    O     O_R   0.413200 0.002810 0.002170 -0.536756
O8    O     O_R   0.586800 0.502810 0.997830 -0.536744
C3    C     C_R   0.456151 0.345136 0.174469 0.696257
C4    C     C_R   0.543849 0.845138 0.825531 0.696288
O9    O     O_3   0.482180 0.337850 0.955280 -0.378756
O10   O     O_3   0.517820 0.837850 0.044720 -0.378758
V1    V     V_3+5 0.503310 0.064600 0.008300 1.417143
V2    V     V_3+5 0.496690 0.564600 0.991700 1.417159
C5    C     C_R   0.570958 0.846631 0.723526 -0.041210
C6    C     C_R   0.429039 0.346617 0.276474 -0.041222
C7    C     C_R   0.928519 0.866497 0.276121 -0.030566
C8    C     C_R   0.071481 0.366505 0.723879 -0.030565
C9    C     C_R   0.561820 0.751208 0.571779 -0.168490
C10   C     C_R   0.438176 0.251129 0.428217 -0.168486
C11   C     C_R   0.533287 0.782512 0.666801 -0.176026
C12   C     C_R   0.466710 0.282481 0.333200 -0.176006
C13   C     C_R   0.637577 0.877051 0.684916 -0.157635
C14   C     C_R   0.362419 0.377012 0.315078 -0.157700
C15   C     C_R   0.669246 0.822056 0.591829 0.095375
C16   C     C_R   0.330748 0.321995 0.408164 0.095368
C17   C     C_R   0.629272 0.770157 0.533962 0.142642
C18   C     C_R   0.370722 0.270062 0.466030 0.142654
C19   C     C_R   0.738698 0.821943 0.553399 -0.011558
C20   C     C_R   0.261296 0.321898 0.446594 -0.011574
C21   C     C_R   0.765099 0.806889 0.453643 0.051105
C22   C     C_R   0.234896 0.306804 0.546352 0.051104
C23   C     C_R   0.722820 0.760368 0.398823 -0.179017
C24   C     C_R   0.277175 0.260233 0.601168 -0.179006
C25   C     C_R   0.656681 0.737452 0.438852 -0.203004
C26   C     C_R   0.343313 0.237314 0.561137 -0.202991
C27   C     C_R   0.783165 0.831889 0.609647 -0.008948
C28   C     C_R   0.216825 0.331919 0.390348 -0.008883
C29   C     C_R   0.848898 0.866774 0.567586 -0.246804
C30   C     C_R   0.151093 0.366853 0.432412 -0.246776
C31   C     C_R   0.873952 0.871496 0.470583 0.109284
C32   C     C_R   0.126043 0.371547 0.529416 0.109290
C33   C     C_R   0.833091 0.835378 0.412013 0.087644
C34   C     C_R   0.166906 0.335330 0.587985 0.087624
C35   C     C_R   0.940630 0.905260 0.431794 -0.150515
C36   C     C_R   0.059365 0.405393 0.568206 -0.150494
C37   C     C_R   0.967612 0.904266 0.335049 -0.167583
C38   C     C_R   0.032385 0.404387 0.664951 -0.167568
C39   C     C_R   0.862059 0.833073 0.313755 -0.208700
C40   C     C_R   0.137940 0.332984 0.686246 -0.208701
H1    H     H_    0.626416 0.697924 0.394252 0.118269
H2    H     H_    0.373579 0.197757 0.605735 0.118263
H3    H     H_    0.834431 0.811479 0.263997 0.087193
H4    H     H_    0.165571 0.311298 0.736004 0.087194
H5    H     H_    0.018992 0.932357 0.306080 0.109925
H6    H     H_    0.981005 0.432561 0.693920 0.109926
H7    H     H_    0.881952 0.880253 0.611090 0.153813
H8    H     H_    0.118038 0.380401 0.388908 0.153787
H9    H     H_    0.531399 0.706830 0.528307 0.118774
H10   H     H_    0.468596 0.206732 0.471688 0.118769
H11   H     H_    0.481861 0.755783 0.696357 0.102943
H12   H     H_    0.518138 0.255767 0.303647 0.102937
H13   H     H_    0.663640 0.940064 0.729581 0.111080
H14   H     H_    0.336359 0.440043 0.270410 0.111096
H15   H     H_    0.739400 0.735258 0.324489 0.114760
H16   H     H_    0.260594 0.235109 0.675500 0.114758
H17   H     H_    0.971980 0.932725 0.476487 0.120939
H18   H     H_    0.028014 0.432943 0.523512 0.120922
C41   C     C_3   0.228569 0.755874 0.912474 -0.315563
C42   C     C_3   0.771455 0.255458 0.087424 -0.315531
H19   H     H_    0.210019 0.612258 0.913448 0.139290
H20   H     H_    0.790034 0.111821 0.086270 0.139317
H21   H     H_    0.223628 0.822267 0.847133 0.129240
H22   H     H_    0.776385 0.321534 0.152857 0.129225
C43   C     C_3   0.301546 0.750360 0.910841 -0.330976
C44   C     C_3   0.698477 0.249962 0.089058 -0.330956
H23   H     H_    0.331497 0.815302 0.845047 0.123141
H24   H     H_    0.668516 0.314602 0.154928 0.123145
H25   H     H_    0.317418 0.604077 0.910336 0.141864
H26   H     H_    0.682637 0.103684 0.089389 0.141920
H27   H     H_    0.176415 0.624772 0.093683 0.159319
H28   H     H_    0.823646 0.125209 0.906021 0.159386
H29   H     H_    0.284087 0.613668 0.090403 0.144947
H30   H     H_    0.715961 0.114069 0.909345 0.145009
C45   C     C_3   0.196260 0.767385 0.088829 -0.305188
C46   C     C_3   0.803755 0.267808 0.911067 -0.305331
C47   C     C_3   0.217013 0.061064 0.995198 -0.313413
C48   C     C_3   0.782938 0.561062 0.005071 -0.313337
C49   C     C_3   0.187700 0.863533 0.999522 0.102565
C50   C     C_3   0.812296 0.363535 0.000496 0.102677
H31   H     H_    0.189230 0.142880 0.056591 0.145370
H32   H     H_    0.810700 0.643217 0.943782 0.145339
C51   C     C_3   0.312747 0.852488 0.997249 0.102860
C52   C     C_3   0.687249 0.352483 0.002769 0.102836
C53   C     C_3   0.269141 0.759910 0.087205 -0.294933
C54   C     C_3   0.730872 0.260302 0.912705 -0.295067
C55   C     C_3   0.289258 0.054713 0.994515 -0.314694
C56   C     C_3   0.710694 0.554696 0.005739 -0.314637
H33   H     H_    0.319161 0.125163 0.930327 0.132725
H34   H     H_    0.680772 0.624850 0.070007 0.132670
H35   H     H_    0.295731 0.132141 0.056043 0.162952
H36   H     H_    0.704209 0.632402 0.944300 0.162784
H37   H     H_    0.168231 0.843185 0.152438 0.143271
H38   H     H_    0.831758 0.343944 0.847542 0.143237
H39   H     H_    0.275840 0.830192 0.150559 0.179535
H40   H     H_    0.724145 0.330854 0.849437 0.179653
O11   O     O_R   0.913210 0.208550 0.002110 -0.538823
O12   O     O_R   0.086790 0.708550 0.997890 -0.538823
O13   O     O_R   0.032060 0.539960 0.861980 -0.538122
O14   O     O_R   0.967940 0.039960 0.138020 -0.538122
C57   C     C_R   0.044020 0.372805 0.825529 0.687505
C58   C     C_R   0.955981 0.872803 0.174471 0.687489
O15   O     O_R   0.910290 0.538020 0.993280 -0.544826
O16   O     O_R   0.089710 0.038020 0.006720 -0.544830
O17   O     O_R   0.964160 0.712340 0.130090 -0.535744
O18   O     O_R   0.035840 0.212340 0.869910 -0.535742
C59   C     C_R   0.883832 0.370169 0.998769 0.642885
C60   C     C_R   0.116167 0.870168 0.001241 0.642888
O19   O     O_3   0.017820 0.379210 0.044690 -0.375061
O20   O     O_3   0.982180 0.879210 0.955310 -0.375054
V3    V     V_3+5 0.996690 0.652500 0.991710 1.406103
V4    V     V_3+5 0.003310 0.152500 0.008290 1.406092
H41   H     H_    0.212698 0.133452 0.930966 0.132431
H42   H     H_    0.787234 0.633127 0.069409 0.132333
C61   C     C_2   0.766736 0.779777 0.710050 0.711478
O21   O     O_2   0.731595 0.647092 0.738915 -0.575712
O22   O     O_R   0.793661 0.879155 0.770885 -0.680546
H43   H     H_    0.778501 0.832812 0.837720 0.267274
C62   C     C_2   0.233247 0.279850 0.289944 0.711432
O23   O     O_2   0.268351 0.147090 0.261073 -0.575697
O24   O     O_R   0.206357 0.379364 0.229115 -0.680535
H44   H     H_    0.221498 0.332982 0.162288 0.267244

loop_
_geom_bond_atom_site_label_1
_geom_bond_atom_site_label_2
_ccdc_geom_bond_type
H27   C45   S    
C3    C6    S    
C45   C49   S    
C15   C17   A    
C21   C33   A    
C55   H35   S    
C6    C14   A    
C42   H22   S    
O2    C4    A    
C2    O7    A    
O14   C58   A    
C54   H40   S    
C27   C29   A    
C47   H41   S    
C24   H16   S    
O5    C3    A    
C5    C11   A    
C47   C55   S    
C6    C12   A    
C23   C25   A    
C50   C59   S    
O14   V4    S    
C8    C57   S    
C42   C50   S    
C44   H24   S    
C33   C39   A    
C51   C55   S    
C34   C40   A    
C56   H36   S    
C37   H5    S    
C18   C26   A    
C7    C37   A    
C35   H17   S    
O19   V4    S    
C8    C38   A    
C46   C50   S    
C44   C52   S    
C26   H2    S    
C4    C5    S    
C42   C44   S    
C19   C21   A    
C22   C34   A    
C23   H15   S    
C47   C49   S    
C10   C18   A    
C9    H9    S    
C25   H1    S    
C36   C38   A    
C12   H12   S    
C29   C31   A    
C30   C32   A    
C48   C56   S    
C32   C34   A    
C48   H32   S    
C43   H23   S    
O15   V3    S    
C15   C19   A    
C14   H14   S    
C16   C20   A    
C13   H13   S    
C29   H7    S    
C42   H20   S    
O12   C60   A    
C41   H19   S    
O5    V1    S    
C7    C58   S    
O3    C1    A    
C9    C17   A    
C43   C51   S    
O16   C60   A    
C52   C54   S    
C27   C61   S    
C38   H6    S    
O4    V2    S    
C61   O22   S    
O12   V3    S    
C10   H10   S    
C46   H38   S    
C44   H26   S    
C48   C50   S    
C45   H37   S    
C43   H25   S    
O6    C4    A    
C56   H34   S    
C48   H42   S    
O13   C57   A    
O1    V2    S    
O18   V4    S    
O2    V1    S    
C31   C33   A    
O4    C2    A    
C55   H33   S    
C28   C62   S    
O15   C59   A    
C9    C11   A    
O24   H44   S    
C10   C12   A    
C13   C15   A    
C30   H8    S    
C61   O21   D    
C41   C43   S    
C1    C52   S    
O3    V1    S    
O11   C59   A    
O22   H43   S    
O13   V3    S    
O16   V4    S    
O10   V1    S    
H28   C46   S    
C36   H18   S    
C28   C30   A    
C62   O24   S    
C51   C53   S    
O11   V4    S    
C35   C37   A    
C14   C16   A    
C5    C13   A    
C16   C18   A    
O17   V3    S    
C1    O8    A    
C8    C40   A    
C32   C36   A    
O8    V2    S    
C24   C26   A    
C41   H21   S    
C52   C56   S    
C11   H11   S    
C21   C23   A    
C22   C24   A    
C19   C27   A    
C39   H3    S    
C20   C28   A    
C47   H31   S    
C62   O23   D    
H30   C54   S    
C58   O17   A    
H29   C53   S    
C57   O18   A    
C53   H39   S    
C7    C39   A    
C41   C49   S    
O6    V2    S    
C2    C51   S    
O9    V2    S    
C17   C25   A    
C49   C60   S    
O1    C3    A    
O20   V3    S    
C31   C35   A    
C46   C54   S    
C40   H4    S    
O7    V1    S    
C20   C22   A    
C45   C53   S    
