data_mof_unit_2846.cif
_audit_creation_date              2012-12-10T17:43:31-0500
_audit_creation_method            fapswitch 2.2
_symmetry_space_group_name_H-M    P1
_symmetry_Int_Tables_number       1
_space_group_crystal_system       triclinic
_cell_length_a                    15.011067
_cell_length_b                    10.609215
_cell_length_c                    9.974717
_cell_angle_alpha                 91.426092
_cell_angle_beta                  88.828754
_cell_angle_gamma                 92.73132
_cell_volume                      1585.93890731

loop_
_atom_site_label
_atom_site_type_symbol
_atom_type_description
_atom_site_fract_x
_atom_site_fract_y
_atom_site_fract_z
_atom_type_partial_charge
C1    C     C_R   0.498164 0.260762 0.498789 0.875742
C2    C     C_R   0.182796 0.458134 0.612316 -0.281621
C3    C     C_R   0.231617 0.502970 0.501776 -0.060648
C4    C     C_R   0.327121 0.500983 0.500956 0.878700
C5    C     C_R   0.189236 0.546671 0.389780 -0.220491
C6    C     C_R   0.337543 0.122414 0.586867 -0.168045
C7    C     C_R   0.263560 0.053373 0.637634 -0.119410
C8    C     C_R   0.266064 0.922965 0.648091 -0.127128
C9    C     C_R   0.342070 0.861117 0.605940 -0.186744
C10   C     C_R   0.417695 0.930036 0.554603 0.085617
C11   C     C_R   0.416118 0.061663 0.548114 0.082306
C12   C     C_R   0.911381 0.542113 0.385159 -0.001373
C13   C     C_R   0.492349 0.128019 0.496511 -0.093534
C14   C     C_R   0.565400 0.067623 0.442880 -0.253266
C15   C     C_R   0.565983 0.939011 0.445899 -0.213582
C16   C     C_R   0.498852 0.739188 0.501431 0.840877
C17   C     C_R   0.494156 0.871482 0.504057 -0.076336
C18   C     C_R   0.358815 0.363686 0.133025 0.519434
C19   C     C_R   0.280761 0.333947 0.061147 0.109012
C20   C     C_R   0.286380 0.327106 0.923024 -0.348271
C21   C     C_R   0.364731 0.367461 0.858272 -0.197025
C22   C     C_R   0.432416 0.435537 0.927254 0.117622
C23   C     C_R   0.948925 0.398800 0.716849 -0.147530
C24   C     C_R   0.431417 0.434574 0.071172 -0.004015
C25   C     C_R   0.564870 0.562255 0.071055 -0.094922
C26   C     C_R   0.564836 0.562212 0.928417 -0.069353
C27   C     C_R   0.673146 0.498861 0.498743 0.937254
C28   C     C_R   0.818844 0.547852 0.388251 0.425842
C29   C     C_R   0.769386 0.494385 0.496045 -0.324055
C30   C     C_R   0.811995 0.437683 0.602256 0.406250
C31   C     C_R   0.904791 0.443202 0.605737 -0.002100
C32   C     C_R   0.954320 0.493721 0.496114 -0.089232
C33   C     C_3   0.770948 0.734476 0.318914 -0.332358
C34   C     C_R   0.041380 0.404588 0.719628 -0.243676
C35   C     C_3   0.395059 0.170634 0.200605 -0.242109
C36   C     C_3   0.743152 0.254759 0.670793 -0.263253
C37   C     C_R   0.090618 0.453161 0.610757 0.128683
C38   C     C_R   0.047274 0.496879 0.497952 0.133412
C39   C     C_R   0.097095 0.544357 0.387270 0.133357
C40   C     C_R   0.054248 0.587859 0.275669 -0.214326
C41   C     C_R   0.961864 0.587114 0.274655 -0.148433
H1    H     H_    0.331749 0.222480 0.574045 0.133793
H2    H     H_    0.912289 0.360508 0.802433 0.194602
H3    H     H_    0.074331 0.370619 0.806486 0.163965
H4    H     H_    0.216499 0.424915 0.698078 0.163874
H5    H     H_    0.227911 0.582489 0.304644 0.158419
H6    H     H_    0.092165 0.623319 0.189787 0.154268
H7    H     H_    0.930265 0.622390 0.187379 0.189086
H8    H     H_    0.622329 0.120357 0.400187 0.143094
H9    H     H_    0.838167 0.783320 0.319433 0.166533
H10   H     H_    0.736767 0.749032 0.417776 0.142551
H11   H     H_    0.731325 0.778830 0.241809 0.183082
H12   H     H_    0.203807 0.100986 0.667294 0.140642
H13   H     H_    0.466659 0.172547 0.169573 0.166240
H14   H     H_    0.354027 0.128808 0.117509 0.156669
H15   H     H_    0.384496 0.105156 0.284424 0.192537
H16   H     H_    0.702728 0.210792 0.753026 0.196385
H17   H     H_    0.805024 0.201612 0.657737 0.146418
H18   H     H_    0.703026 0.245706 0.578288 0.140567
H19   H     H_    0.208405 0.869276 0.686665 0.144052
H20   H     H_    0.340424 0.759522 0.612248 0.149602
H21   H     H_    0.622890 0.892017 0.403958 0.134738
H22   H     H_    0.617882 0.613564 0.123887 0.176206
H23   H     H_    0.232555 0.281421 0.866741 0.182473
H24   H     H_    0.371764 0.342253 0.755212 0.219647
H25   H     H_    0.617936 0.613482 0.875077 0.153237
I1    I     I_    0.164652 0.255127 0.157474 -0.400066
N1    N     N_R   0.499150 0.498800 0.142780 -0.109125
N2    N     N_R   0.499120 0.498720 0.857170 -0.105830
O1    O     O_R   0.500000 0.316780 0.614690 -0.640914
O2    O     O_3   0.370339 0.292973 0.244136 -0.559243
O3    O     O_3   0.762952 0.382400 0.706312 -0.583499
O4    O     O_R   0.499990 0.316750 0.385360 -0.563327
O5    O     O_R   0.367850 0.499980 0.614680 -0.662044
O6    O     O_R   0.367840 0.499960 0.385350 -0.581154
O7    O     O_R   0.500010 0.683250 0.614640 -0.624004
O8    O     O_R   0.500000 0.683220 0.385310 -0.619930
O9    O     O_R   0.632160 0.500040 0.614650 -0.574649
O10   O     O_R   0.632150 0.500020 0.385320 -0.579074
O11   O     O_3   0.776524 0.605076 0.285386 -0.588677
Zn1   Zn    Zn3+2 0.500010 0.500020 0.653130 0.953922
Zn2   Zn    Zn3+2 0.499990 0.499980 0.346870 0.993662

loop_
_geom_bond_atom_site_label_1
_geom_bond_atom_site_label_2
_ccdc_geom_bond_type
C40   H6    S    
C27   C29   S    
C34   C37   A    
C19   C20   A    
O9    Zn1   S    
C27   O9    A    
C7    C8    A    
C33   H11   S    
C37   C38   A    
C12   C28   A    
C9    H20   S    
C28   C29   A    
C16   O8    A    
C36   H17   S    
C38   C39   A    
C14   H8    S    
C10   C17   A    
C23   H2    S    
C18   C19   A    
C25   H22   S    
O1    Zn1   S    
C4    O6    A    
C15   H21   S    
C8    C9    A    
C19   I1    S    
C18   C24   A    
C32   C38   A    
C9    C10   A    
C22   N2    A    
C4    O5    A    
C36   H18   S    
C35   O2    S    
C13   C14   A    
C12   C32   A    
C35   H13   S    
C25   N1    A    
C2    H4    S    
C35   H14   S    
C26   H25   S    
C34   H3    S    
C36   H16   S    
C6    C11   A    
C16   C17   S    
C25   C26   A    
C23   C31   A    
C20   H23   S    
C29   C30   A    
C31   C32   A    
C23   C34   A    
C33   O11   S    
C40   C41   A    
C5    C39   A    
C22   C24   A    
C1    C13   S    
C7    H12   S    
O5    Zn1   S    
C3    C4    S    
O4    Zn2   S    
C39   C40   A    
C12   C41   A    
C18   O2    S    
C15   C17   A    
C21   H24   S    
C35   H15   S    
C16   O7    A    
C3    C5    A    
O7    Zn1   S    
O10   Zn2   S    
C30   O3    S    
O6    Zn2   S    
C6    C7    A    
C33   H10   S    
C5    H5    S    
C27   O10   A    
C1    O1    A    
C1    O4    A    
C2    C3    A    
C33   H9    S    
N1    Zn2   S    
C8    H19   S    
C11   C13   A    
C2    C37   A    
C30   C31   A    
O8    Zn2   S    
C41   H7    S    
C28   O11   S    
N2    Zn1   S    
C10   C11   A    
C24   N1    A    
C20   C21   A    
C6    H1    S    
C26   N2    A    
C14   C15   A    
C21   C22   A    
C36   O3    S    
