data_mof_unit_792.cif
_audit_creation_date              2012-12-10T16:51:28-0500
_audit_creation_method            fapswitch 2.2
_symmetry_space_group_name_H-M    P1
_symmetry_Int_Tables_number       1
_space_group_crystal_system       triclinic
_cell_length_a                    7.829744
_cell_length_b                    8.569086
_cell_length_c                    12.052568
_cell_angle_alpha                 92.267645
_cell_angle_beta                  101.276516
_cell_angle_gamma                 94.18803
_cell_volume                      789.723671917

loop_
_atom_site_label
_atom_site_type_symbol
_atom_type_description
_atom_site_fract_x
_atom_site_fract_y
_atom_site_fract_z
_atom_type_partial_charge
C1    C     C_R   0.044677 0.794743 0.497347 0.989874
C2    C     C_R   0.158879 0.500789 0.833016 -0.088140
C3    C     C_2   0.068020 0.958517 0.496112 -0.380870
C4    C     C_R   0.106085 0.503726 0.710628 0.860414
C5    C     C_2   0.932383 0.041577 0.504728 -0.334974
C6    C     C_R   0.955452 0.205281 0.502924 0.949228
C7    C     C_R   0.892515 0.488436 0.289498 0.940393
C8    C     C_R   0.799976 0.266591 0.010759 -0.095713
C9    C     C_R   0.831084 0.453931 0.169548 -0.139632
C10   C     C_R   0.072215 0.587454 0.902989 -0.178747
C11   C     C_R   0.141488 0.609392 0.018278 -0.127181
C12   C     C_R   0.396316 0.477116 0.990367 0.099987
C13   C     C_R   0.303454 0.556000 0.061985 -0.091468
C14   C     C_R   0.309642 0.428367 0.880210 0.030996
C15   C     C_R   0.569873 0.439721 0.025973 -0.079861
C16   C     C_R   0.635578 0.318400 0.966147 0.064685
C17   C     C_R   0.535689 0.250779 0.863890 0.444633
C18   C     C_R   0.375283 0.309308 0.820165 -0.312676
C19   C     C_R   0.682236 0.521376 0.117995 0.311320
C20   C     C_R   0.893221 0.329028 0.115125 -0.283174
Cl1   Cl    Cl    0.658889 0.718753 0.159793 -0.648838
H1    H     H_    0.010251 0.276885 0.154861 0.180780
H2    H     H_    0.195826 0.010137 0.488055 0.177104
H3    H     H_    0.513094 0.098770 0.736139 0.332400
H4    H     H_    0.804628 0.989979 0.512902 0.188321
H5    H     H_    0.469498 0.374977 0.416183 0.190799
H6    H     H_    0.530495 0.625015 0.583819 0.196365
H7    H     H_    0.852114 0.172338 0.968668 0.202954
H8    H     H_    0.953335 0.640606 0.868289 0.172071
H9    H     H_    0.352824 0.573329 0.152205 0.183455
H10   H     H_    0.072890 0.672672 0.073082 0.174650
H11   H     H_    0.299275 0.257225 0.740878 0.163173
N1    N     N_2   0.434800 0.456690 0.470850 -0.168007
N2    N     N_2   0.565200 0.543310 0.529150 -0.159919
O1    O     O_R   0.893060 0.738880 0.507150 -0.598570
O2    O     O_R   0.172250 0.711130 0.488470 -0.622136
O3    O     O_R   0.944700 0.520730 0.667600 -0.612443
O4    O     O_R   0.223890 0.492980 0.648920 -0.617671
O5    O     O_R   0.827750 0.288870 0.511530 -0.620689
O6    O     O_R   0.106940 0.261120 0.492850 -0.624151
O7    O     O_R   0.776110 0.507020 0.351080 -0.587707
O8    O     O_R   0.055300 0.479270 0.332400 -0.625945
O9    O     O_3   0.598812 0.131655 0.806723 -0.776390
Zn1   Zn    Zn3+2 0.813580 0.518530 0.512470 0.976533
Zn2   Zn    Zn3+2 0.186420 0.481470 0.487530 0.944767

loop_
_geom_bond_atom_site_label_1
_geom_bond_atom_site_label_2
_ccdc_geom_bond_type
C2    C4    S    
C17   O9    S    
O5    Zn1   S    
N1    Zn2   S    
C14   C18   A    
C9    C20   A    
C3    H2    S    
C12   C15   A    
O3    Zn1   S    
N1    N2    D    
C11   H10   S    
O2    Zn2   S    
C8    C16   A    
C12   C13   A    
C15   C19   A    
O1    Zn1   S    
C11   C13   A    
C10   H8    S    
C8    C20   A    
C5    H4    S    
C5    C6    S    
C19   Cl1   S    
C12   C14   A    
C17   C18   A    
C7    O7    A    
H6    N2    S    
O6    Zn2   S    
C2    C14   A    
O7    Zn1   S    
C6    O6    A    
C18   H11   S    
C10   C11   A    
C20   H1    S    
C15   C16   A    
C2    C10   A    
C13   H9    S    
N2    Zn1   S    
C4    O3    A    
C1    O1    A    
C8    H7    S    
C7    O8    A    
C7    C9    S    
H3    O9    S    
C6    O5    A    
O4    Zn2   S    
H5    N1    S    
C3    C5    D    
C9    C19   A    
C1    O2    A    
C4    O4    A    
C16   C17   A    
C1    C3    S    
O8    Zn2   S    
