data_mof_unit_2821.cif
_audit_creation_date              2012-12-11T14:33:02-0500
_audit_creation_method            fapswitch 2.2
_symmetry_space_group_name_H-M    P1
_symmetry_Int_Tables_number       1
_space_group_crystal_system       triclinic
_cell_length_a                    6.964253
_cell_length_b                    13.926629
_cell_length_c                    17.907732
_cell_angle_alpha                 112.857739
_cell_angle_beta                  95.078791
_cell_angle_gamma                 90.82217
_cell_volume                      1591.92215058

loop_
_atom_site_label
_atom_site_type_symbol
_atom_type_description
_atom_site_fract_x
_atom_site_fract_y
_atom_site_fract_z
_atom_type_partial_charge
O1    O     O_R   0.484560 0.544530 0.414330 -0.548563
O2    O     O_R   0.197040 0.638810 0.585080 -0.525984
O3    O     O_R   0.026800 0.455470 0.585670 -0.524372
C1    C     C_R   0.375694 0.681568 0.606543 0.711531
O4    O     O_R   0.155000 0.556150 0.414940 -0.537538
O5    O     O_R   0.984450 0.372220 0.414320 -0.537891
C2    C     C_R   0.319793 0.568842 0.389072 0.691984
O6    O     O_R   0.526900 0.627780 0.585680 -0.534674
O7    O     O_3   0.339170 0.439750 0.499990 -0.364131
V1    V     V_3+5 0.064350 0.511180 0.500000 1.408587
O8    O     O_R   0.654880 0.361190 0.414920 -0.544701
C3    C     C_R   0.816845 0.324571 0.386372 0.751740
O9    O     O_R   0.696930 0.443850 0.585060 -0.534560
C4    C     C_R   0.871093 0.428153 0.609326 0.708422
V2    V     V_3+5 0.564340 0.488820 0.500000 1.401122
O10   O     O_3   0.839390 0.560250 0.500010 -0.377929
C5    C     C_R   0.044825 0.861744 0.822409 -0.051752
C6    C     C_R   0.895902 0.388683 0.675452 -0.050994
C7    C     C_R   0.931539 0.819148 0.680657 -0.143823
C8    C     C_R   0.983106 0.788176 0.744556 -0.128346
C9    C     C_R   0.048976 0.968579 0.835997 -0.230471
C10   C     C_R   0.990375 0.002634 0.771986 0.103569
C11   C     C_R   0.935144 0.924999 0.693420 0.125808
C12   C     C_R   0.985677 0.110311 0.782708 0.040739
C13   C     C_R   0.939198 0.137950 0.713845 0.071085
C14   C     C_R   0.888032 0.056828 0.637229 -0.176142
C15   C     C_R   0.884001 0.952894 0.627671 -0.223812
C16   C     C_R   0.022773 0.191219 0.860255 -0.159452
C17   C     C_R   0.024252 0.295028 0.870399 -0.170794
C18   C     C_R   0.986705 0.323149 0.804138 0.100729
C19   C     C_R   0.941773 0.245922 0.724464 0.102716
C20   C     C_R   0.983876 0.429218 0.818428 -0.135212
C21   C     C_R   0.927646 0.461021 0.755589 -0.116738
C22   C     C_R   0.902239 0.281104 0.659606 -0.224280
H1    H     H_    0.841570 0.893307 0.567635 0.115534
H2    H     H_    0.877953 0.227600 0.596775 0.089645
H3    H     H_    0.915505 0.543438 0.769318 0.124607
H4    H     H_    0.052001 0.354524 0.931512 0.159318
H5    H     H_    0.884368 0.759923 0.621107 0.139129
H6    H     H_    0.967965 0.706300 0.733519 0.123291
H7    H     H_    0.097929 0.022622 0.896807 0.094842
H8    H     H_    0.846586 0.071352 0.583333 0.120232
H9    H     H_    0.049392 0.176930 0.915066 0.148217
H10   H     H_    0.018127 0.487926 0.879400 0.148335
H11   H     H_    0.113421 0.224511 0.308213 0.155608
H12   H     H_    0.834953 0.034170 0.193901 0.152308
C23   C     C_2   0.135545 0.037840 0.183671 -0.342755
C24   C     C_2   0.972889 0.077891 0.216897 -0.136749
H13   H     H_    0.674919 0.177344 0.294519 0.124839
C25   C     C_2   0.812692 0.221016 0.318219 -0.345844
C26   C     C_2   0.975397 0.180934 0.285042 -0.121892
H14   H     H_    0.273235 0.081668 0.207131 0.127307
C27   C     C_R   0.419527 0.787534 0.675237 -0.052673
C28   C     C_R   0.532157 0.469384 0.830641 -0.106941
C29   C     C_R   0.563924 0.886155 0.813414 -0.123758
C30   C     C_R   0.531152 0.793219 0.745769 -0.109807
C31   C     C_R   0.384196 0.883433 0.667875 -0.196762
C32   C     C_R   0.443886 0.982374 0.733795 0.075773
C33   C     C_R   0.511404 0.981442 0.810186 0.046284
C34   C     C_R   0.439688 0.081053 0.726458 0.032342
C35   C     C_R   0.485284 0.178158 0.796756 -0.007170
C36   C     C_R   0.507515 0.172829 0.875436 0.112820
C37   C     C_R   0.525102 0.074444 0.881682 0.070890
C38   C     C_R   0.394566 0.084392 0.649474 -0.148944
C39   C     C_R   0.379466 0.177613 0.640248 -0.205913
C40   C     C_R   0.422323 0.271833 0.706096 0.098277
C41   C     C_R   0.489949 0.275414 0.784284 0.126452
C42   C     C_R   0.392978 0.363136 0.693504 -0.147842
C43   C     C_R   0.432447 0.459439 0.756691 0.114281
C44   C     C_R   0.563268 0.376043 0.843514 -0.206003
H15   H     H_    0.652225 0.383671 0.897757 0.155787
H16   H     H_    0.334676 0.175806 0.580120 0.113776
H17   H     H_    0.640485 0.882692 0.867179 0.151442
H18   H     H_    0.596457 0.725227 0.749340 0.133848
H19   H     H_    0.311670 0.878295 0.610648 0.087667
H20   H     H_    0.367828 0.015395 0.594315 0.116308
H21   H     H_    0.327162 0.359592 0.635268 0.149059
H22   H     H_    0.371301 0.713753 0.220187 0.153923
H23   H     H_    0.550363 0.539447 0.272337 0.131631
C45   C     C_2   0.325308 0.626212 0.334330 -0.011973
C46   C     C_2   0.456531 0.603249 0.278451 -0.134508
H24   H     H_    0.732320 0.588566 0.176670 0.147164
C47   C     C_2   0.623196 0.642575 0.174914 -0.323576
C48   C     C_2   0.477956 0.659035 0.223101 -0.120108
O11   O     O_R   0.421600 0.630430 0.917010 -0.515383
O12   O     O_R   0.793840 0.702190 0.087630 -0.544003
O13   O     O_R   0.964010 0.886170 0.088190 -0.537677
C49   C     C_R   0.629338 0.691140 0.114564 0.752774
O14   O     O_R   0.751460 0.619510 0.917500 -0.547497
O15   O     O_R   0.921330 0.802900 0.916840 -0.546688
C50   C     C_R   0.573779 0.577226 0.896199 0.737605
O16   O     O_R   0.464290 0.713700 0.088350 -0.536549
O17   O     O_3   0.609200 0.818520 0.002630 -0.376426
V3    V     V_3+5 0.884140 0.747190 0.002530 1.391206
O18   O     O_R   0.251150 0.814630 0.917340 -0.531206
C51   C     C_R   0.075727 0.826335 0.890706 0.700330
O19   O     O_R   0.293530 0.897310 0.087470 -0.547820
C52   C     C_R   0.131502 0.934048 0.115848 0.747510
V4    V     V_3+5 0.384070 0.769710 0.002370 1.415938
O20   O     O_3   0.109180 0.698190 0.002460 -0.367616
C53   C     C_3   0.536338 0.067250 0.965101 -0.330407
C54   C     C_3   0.741093 0.090636 0.008004 -0.688521
H25   H     H_    0.802037 0.166168 0.010832 0.246831
H26   H     H_    0.739112 0.094729 0.071070 0.216499
H27   H     H_    0.835198 0.027550 0.975559 0.200256
H28   H     H_    0.435229 0.119218 0.004531 0.200834
H29   H     H_    0.482938 0.989883 0.960946 0.178235
I1    I     I_    0.310683 0.584490 0.739856 -0.447660
I2    I     I_    0.473075 0.305494 0.987662 -0.555175
C55   C     C_3   0.204120 0.720845 0.353226 -0.365304
C56   C     C_3   0.017996 0.695530 0.296823 -0.725971
H30   H     H_    0.049531 0.668374 0.232350 0.227740
H31   H     H_    0.930324 0.633836 0.305226 0.230470
H32   H     H_    0.933485 0.766496 0.311524 0.210578
H33   H     H_    0.166242 0.748029 0.416995 0.161713
H34   H     H_    0.286551 0.787578 0.349745 0.171795

loop_
_geom_bond_atom_site_label_1
_geom_bond_atom_site_label_2
_ccdc_geom_bond_type
C53   H29   S    
C40   C42   A    
C29   C30   A    
C13   C19   A    
O17   V3    S    
C29   C33   A    
C1    C27   S    
C4    C6    S    
O2    C1    A    
O18   C51   A    
C1    O6    A    
O19   C52   A    
O11   C50   A    
C28   C43   A    
C14   C15   A    
C36   C37   A    
C23   C52   S    
C47   C48   D    
C16   C17   A    
O5    C3    A    
C18   C19   A    
C8    H6    S    
O18   V4    S    
H11   C26   S    
C32   C34   A    
V2    O10   S    
O13   V3    S    
C53   H28   S    
C5    C8    A    
C54   H27   S    
O14   V3    S    
H13   C25   S    
C55   C56   S    
O12   V3    S    
O8    V2    S    
C24   C26   S    
V4    O20   S    
C42   C43   A    
C17   H4    S    
C44   H15   S    
O1    V2    S    
C11   C15   A    
O14   C50   A    
O7    V1    S    
O17   V4    S    
C22   H2    S    
C37   C53   S    
O13   C52   A    
C47   C49   S    
O9    C4    A    
C54   H25   S    
O19   V4    S    
C43   I1    S    
O15   V3    S    
C38   H20   S    
H12   C24   S    
C30   H18   S    
C53   C54   S    
C49   O16   A    
C12   C13   A    
H23   C46   S    
C27   C31   A    
C15   H1    S    
C13   C14   A    
C21   H3    S    
C34   C35   A    
C7    C11   A    
C17   C18   A    
O11   V4    S    
C35   C41   A    
C23   C24   D    
C28   C44   A    
V3    O20   S    
C25   C26   D    
C20   H10   S    
C19   C22   A    
C56   H31   S    
C5    C51   S    
C54   H26   S    
C6    C22   A    
O3    C4    A    
C7    H5    S    
C9    H7    S    
C39   C40   A    
O6    V2    S    
O9    V2    S    
C10   C12   A    
O2    V1    S    
C55   H34   S    
C46   C48   S    
C14   H8    S    
O4    C2    A    
C27   C30   A    
C42   H21   S    
C56   H30   S    
O1    C2    A    
C12   C16   A    
C45   C46   D    
O5    V1    S    
C3    C25   S    
O8    C3    A    
O15   C51   A    
C23   H14   S    
C39   H16   S    
C16   H9    S    
C33   C37   A    
C34   C38   A    
C41   C44   A    
C20   C21   A    
C31   H19   S    
C7    C8    A    
C32   C33   A    
O4    V1    S    
O3    V1    S    
V1    O10   S    
C38   C39   A    
C18   C20   A    
C31   C32   A    
C36   I2    S    
C40   C41   A    
C56   H32   S    
O12   C49   A    
O7    V2    S    
C35   C36   A    
C6    C21   A    
C5    C9    A    
C29   H17   S    
H22   C48   S    
C28   C50   S    
H24   C47   S    
C45   C55   S    
C10   C11   A    
C9    C10   A    
C55   H33   S    
O16   V4    S    
C2    C45   S    
