data_mof_unit_2720.cif
_audit_creation_date              2012-10-26T20:51:34-0400
_audit_creation_method            fapswitch 2.2
_symmetry_space_group_name_H-M    P1
_symmetry_Int_Tables_number       1
_space_group_crystal_system       triclinic
_cell_length_a                    9.603172
_cell_length_b                    10.875957
_cell_length_c                    13.937234
_cell_angle_alpha                 91.317675
_cell_angle_beta                  87.335904
_cell_angle_gamma                 90.186368
_cell_volume                      1453.69482236

loop_
_atom_site_label
_atom_site_type_symbol
_atom_type_description
_atom_site_fract_x
_atom_site_fract_y
_atom_site_fract_z
_atom_type_partial_charge
C1    C     C_R   0.500205 0.736992 0.499278 0.543577
C2    C     C_3   0.225095 0.934248 0.521054 0.165250
C3    C     C_R   0.929522 0.409402 0.452187 0.171483
C4    C     C_R   0.480337 0.498774 0.682205 0.530092
C5    C     C_R   0.924918 0.581121 0.557164 0.086897
C6    C     C_R   0.073109 0.579667 0.556290 0.011088
C7    C     C_R   0.076226 0.409668 0.452083 0.139205
C8    C     C_3   0.089351 0.378197 0.347458 -0.279716
C9    C     C_3   0.931116 0.377271 0.347527 -0.269875
C10   C     C_R   0.500675 0.262798 0.499107 0.562803
C11   C     C_R   0.519658 0.499719 0.317773 0.548876
C12   C     C_1   0.474022 0.493648 0.783928 -0.055552
C13   C     C_1   0.525914 0.498222 0.215881 -0.046996
C14   C     C_2   0.556331 0.493895 0.026483 0.288118
C15   C     C_2   0.443469 0.485503 0.973080 0.286383
C16   C     C_1   0.464193 0.489159 0.869721 -0.022717
C17   C     C_1   0.535410 0.496402 0.129942 -0.020327
C18   C     C_3   0.206961 0.435091 0.958627 0.001847
C19   C     C_3   0.142565 0.536412 0.899625 -0.273788
C20   C     C_3   0.055730 0.482298 0.819804 -0.474384
C21   C     C_3   0.799119 0.514320 0.043525 0.001574
C22   C     C_3   0.819615 0.651328 0.067959 -0.269316
C23   C     C_R   0.381171 0.938526 0.510355 0.009853
C24   C     C_3   0.929136 0.670645 0.142820 -0.482882
C25   C     C_3   0.844821 0.103398 0.556305 0.009897
C26   C     C_3   0.798993 0.180003 0.646173 -0.251676
C27   C     C_3   0.896075 0.159941 0.727968 -0.492299
C28   C     C_3   0.230427 0.923611 0.693619 0.010700
C29   C     C_3   0.299578 0.813144 0.737396 -0.254808
C30   C     C_3   0.358850 0.846803 0.834274 -0.493747
C31   C     C_3   0.855009 0.678841 0.620728 -0.344708
C32   C     C_R   0.502032 0.869470 0.498993 -0.052470
C33   C     C_R   0.628780 0.933776 0.486361 -0.157358
C34   C     C_R   0.632364 0.063367 0.490790 0.244503
C35   C     C_R   0.504587 0.129865 0.498127 0.009292
C36   C     C_R   0.382330 0.062505 0.506396 -0.086804
C37   C     C_3   0.228013 0.075952 0.516498 -0.240628
Cu1   Cu    Cu3+1 0.359330 0.500020 0.500000 0.931024
Cu2   Cu    Cu3+1 0.640670 0.499980 0.500000 0.934013
H1    H     H_    0.129076 0.644983 0.599630 0.165596
H2    H     H_    0.123299 0.394842 0.005815 0.135184
H3    H     H_    0.247011 0.357120 0.911922 0.123960
H4    H     H_    0.077193 0.597694 0.947420 0.155139
H5    H     H_    0.224559 0.595344 0.866656 0.169922
H6    H     H_    0.123718 0.430772 0.766316 0.162015
H7    H     H_    0.004063 0.557701 0.782808 0.147596
H8    H     H_    0.974429 0.419226 0.849471 0.157707
H9    H     H_    0.895014 0.479153 0.006158 0.144682
H10   H     H_    0.787940 0.457579 0.108873 0.124500
H11   H     H_    0.852584 0.700172 0.001478 0.160348
H12   H     H_    0.137263 0.453438 0.304381 0.164322
H13   H     H_    0.719933 0.692538 0.096370 0.168458
H14   H     H_    0.890791 0.633461 0.212670 0.154361
H15   H     H_    0.949428 0.770545 0.152983 0.149715
H16   H     H_    0.028403 0.624475 0.119561 0.166414
H17   H     H_    0.951232 0.133307 0.533446 0.149395
H18   H     H_    0.852727 0.004359 0.573636 0.131120
H19   H     H_    0.800226 0.279210 0.628968 0.202900
H20   H     H_    0.691330 0.153974 0.670586 0.149416
H21   H     H_    0.897369 0.061253 0.746758 0.149173
H22   H     H_    0.858785 0.214573 0.792319 0.152428
H23   H     H_    0.136194 0.285899 0.333242 0.124452
H24   H     H_    0.003601 0.190154 0.707009 0.137005
H25   H     H_    0.147151 0.958736 0.744968 0.135944
H26   H     H_    0.307981 0.999001 0.685248 0.126491
H27   H     H_    0.221368 0.738609 0.746943 0.159931
H28   H     H_    0.385393 0.778681 0.688060 0.177542
H29   H     H_    0.437063 0.921771 0.826048 0.145364
H30   H     H_    0.410756 0.765372 0.863121 0.155790
H31   H     H_    0.273970 0.876929 0.886339 0.146311
H32   H     H_    0.773291 0.641022 0.669473 0.169296
H33   H     H_    0.930010 0.724137 0.668640 0.092969
H34   H     H_    0.888781 0.451255 0.303891 0.141624
H35   H     H_    0.815622 0.753214 0.577192 0.146470
H36   H     H_    0.886922 0.284326 0.333650 0.162391
H37   H     H_    0.725223 0.884497 0.471477 0.133730
H38   H     H_    0.193511 0.125922 0.583757 0.130671
H39   H     H_    0.184489 0.111517 0.450090 0.104527
H40   H     H_    0.178645 0.890262 0.457194 0.132663
N1    N     N_R   0.852140 0.499070 0.499400 -0.226909
N2    N     N_R   0.148050 0.499110 0.499400 -0.248298
O1    O     O_R   0.381190 0.680360 0.500000 -0.487931
O2    O     O_3   0.689036 0.497280 0.980155 -0.600906
O3    O     O_3   0.758664 0.124575 0.478511 -0.563655
O4    O     O_3   0.166077 0.885601 0.608060 -0.590021
O5    O     O_R   0.618770 0.680320 0.499990 -0.518995
O6    O     O_R   0.364410 0.500000 0.637850 -0.513619
O7    O     O_R   0.602000 0.499960 0.637840 -0.513822
O8    O     O_R   0.381230 0.319680 0.500010 -0.508737
O9    O     O_R   0.618810 0.319640 0.500000 -0.456199
O10   O     O_R   0.398000 0.500040 0.362160 -0.492285
O11   O     O_R   0.635590 0.500000 0.362150 -0.503695
O12   O     O_3   0.310138 0.483993 0.018472 -0.598876

loop_
_geom_bond_atom_site_label_1
_geom_bond_atom_site_label_2
_ccdc_geom_bond_type
C35   C36   A    
C25   H17   S    
C21   H10   S    
C7    C8    S    
C4    O6    A    
C24   H16   S    
Cu1   O8    S    
C26   C27   S    
C25   H18   S    
C14   O2    S    
C36   C37   S    
C18   C19   S    
C3    C7    A    
C27   H21   S    
C18   H3    S    
Cu1   Cu2   S    
C24   H15   S    
C15   C16   S    
C2    O4    S    
C34   C35   A    
C2    H40   S    
C27   H22   S    
C29   H28   S    
C11   O11   A    
C19   C20   S    
C10   O8    A    
C8    C9    S    
C25   O3    S    
C10   C35   S    
C4    C12   S    
C26   H20   S    
Cu2   O9    S    
C20   H6    S    
C22   H11   S    
C21   H9    S    
C31   H32   S    
C6    N2    A    
C21   C22   S    
Cu1   O1    S    
C14   C17   S    
C34   O3    S    
Cu2   O7    S    
C12   C16   T    
C3    N1    A    
C30   H31   S    
C19   H4    S    
C21   O2    S    
C18   H2    S    
C31   H35   S    
C25   C26   S    
C37   H38   S    
Cu1   O10   S    
C1    C32   S    
C29   C30   S    
C3    C9    S    
C33   H37   S    
C33   C34   A    
C5    N1    A    
C26   H19   S    
C8    H12   S    
C27   H24   S    
C28   H25   S    
C31   H33   S    
C7    N2    A    
Cu1   N2    S    
C22   C24   S    
Cu2   O11   S    
C2    C23   S    
C30   H30   S    
C19   H5    S    
C22   H13   S    
C1    O5    A    
C28   C29   S    
C9    H34   S    
C23   C32   A    
C15   O12   S    
C4    O7    A    
C24   H14   S    
C37   H39   S    
C13   C17   T    
Cu1   O6    S    
Cu2   N1    S    
C28   H26   S    
C1    O1    A    
C32   C33   A    
C11   C13   S    
C2    C37   S    
C5    C6    A    
C6    H1    S    
C30   H29   S    
C20   H8    S    
C29   H27   S    
C11   O10   A    
C10   O9    A    
C23   C36   A    
C28   O4    S    
C18   O12   S    
C14   C15   D    
C9    H36   S    
Cu2   O5    S    
C20   H7    S    
C8    H23   S    
C5    C31   S    
