data_mof_unit_2417.cif
_audit_creation_date              2012-10-26T21:03:02-0400
_audit_creation_method            fapswitch 2.2
_symmetry_space_group_name_H-M    P1
_symmetry_Int_Tables_number       1
_space_group_crystal_system       triclinic
_cell_length_a                    12.338842
_cell_length_b                    13.261647
_cell_length_c                    23.492083
_cell_angle_alpha                 76.807875
_cell_angle_beta                  101.03099
_cell_angle_gamma                 116.493605
_cell_volume                      3331.87854993

loop_
_atom_site_label
_atom_site_type_symbol
_atom_type_description
_atom_site_fract_x
_atom_site_fract_y
_atom_site_fract_z
_atom_type_partial_charge
C1    C     C_R   0.855041 0.287029 0.508305 0.519637
C2    C     C_R   0.100695 0.609522 0.874917 0.390726
C3    C     C_R   0.976954 0.584989 0.747076 -0.062767
C4    C     C_R   0.001409 0.501992 0.608625 0.529303
C5    C     C_R   0.971768 0.581778 0.687652 -0.164981
C6    C     C_R   0.005671 0.505826 0.670806 -0.000615
C7    C     C_R   0.048165 0.435622 0.713890 -0.145910
C8    C     C_R   0.054031 0.439389 0.773147 -0.057523
C9    C     C_R   0.017677 0.513430 0.790013 0.245118
C10   C     C_R   0.909907 0.490714 0.226451 -0.033835
C11   C     C_R   0.897540 0.487226 0.285311 -0.012881
C12   C     C_R   0.872574 0.313192 0.038591 -0.127824
C13   C     C_R   0.000347 0.498802 0.327923 0.001233
C14   C     C_R   0.108649 0.510318 0.310175 -0.156471
C15   C     C_R   0.117274 0.511444 0.251928 -0.065226
C16   C     C_R   0.145123 0.713007 0.494483 0.536168
C17   C     C_R   0.018181 0.501902 0.209957 0.221011
C18   C     C_R   0.285711 0.017816 0.426449 -0.133985
C19   C     C_R   0.229256 0.834781 0.489418 -0.026014
C20   C     C_R   0.803010 0.113370 0.581070 -0.138545
C21   C     C_R   0.712405 0.026062 0.613001 -0.127185
C22   C     C_R   0.591295 0.989030 0.589421 -0.069971
C23   C     C_R   0.870536 0.316616 0.978902 -0.126882
C24   C     C_R   0.559094 0.029037 0.530398 0.048859
C25   C     C_R   0.650568 0.124097 0.499720 0.021040
C26   C     C_R   0.437769 0.983219 0.502069 0.033510
C27   C     C_R   0.406516 0.050488 0.451023 0.027531
C28   C     C_R   0.999229 0.498884 0.390943 0.544911
C29   C     C_R   0.497099 0.146382 0.422684 -0.134099
C30   C     C_R   0.618041 0.177289 0.444399 -0.113759
C31   C     C_R   0.348683 0.870769 0.519395 -0.010837
C32   C     C_R   0.197116 0.911748 0.446500 -0.144588
C33   C     C_R   0.771990 0.168217 0.526375 -0.001824
C34   C     C_R   0.947258 0.415425 0.944410 0.031323
C35   C     C_R   0.300027 0.281497 0.551724 -0.149103
C36   C     C_R   0.773088 0.662209 0.430568 0.039750
C37   C     C_R   0.684463 0.704139 0.418058 -0.154443
C38   C     C_R   0.574053 0.642250 0.442164 -0.114190
C39   C     C_R   0.549528 0.535484 0.477966 -0.016505
C40   C     C_R   0.103348 0.599604 0.117578 0.395989
C41   C     C_R   0.643117 0.494791 0.490600 0.186521
C42   C     C_R   0.435694 0.467152 0.502453 -0.018467
C43   C     C_R   0.406520 0.350749 0.524536 0.009581
C44   C     C_R   0.489677 0.307016 0.524408 -0.143353
C45   C     C_R   0.027925 0.512434 0.970251 -0.039318
C46   C     C_R   0.612470 0.383215 0.525799 0.064567
C47   C     C_R   0.349049 0.507804 0.506050 0.071184
C48   C     C_R   0.222656 0.328027 0.557329 0.051290
C49   C     C_R   0.951805 0.407446 0.124894 0.396099
C50   C     C_R   0.950763 0.408781 0.065011 0.032185
C51   C     C_R   0.028734 0.508544 0.030899 -0.033150
C52   C     C_R   0.106521 0.604146 0.057489 0.008622
C53   C     C_3   0.776552 0.469956 0.302715 -0.261700
C54   C     C_3   0.667619 0.438511 0.255686 -0.458663
C55   C     C_2   0.381348 0.784696 0.562322 0.223215
C56   C     C_R   0.106561 0.612476 0.935669 0.024849
C57   C     C_3   0.675994 0.361586 0.586759 -0.223860
C58   C     C_3   0.687878 0.445335 0.625325 -0.412671
C59   C     C_3   0.273766 0.820167 0.928570 -0.245155
C60   C     C_3   0.354004 0.918930 0.962447 -0.465961
C61   C     C_R   0.186894 0.709814 0.963249 0.000210
C62   C     C_R   0.184403 0.702809 0.023852 -0.101997
C63   C     C_R   0.944501 0.418964 0.884397 0.395706
Cu1   Cu    Cu3+1 0.098270 0.475410 0.513370 0.942165
Cu2   Cu    Cu3+1 0.901730 0.524590 0.486630 0.910563
H1    H     H_    0.811913 0.235669 0.063813 0.165104
H2    H     H_    0.808395 0.241351 0.959882 0.164366
H3    H     H_    0.685785 0.246034 0.418317 0.128171
H4    H     H_    0.139266 0.273707 0.577324 0.123159
H5    H     H_    0.465467 0.217552 0.542552 0.113289
H6    H     H_    0.278080 0.192537 0.569735 0.096007
H7    H     H_    0.360794 0.593230 0.486200 0.152655
H8    H     H_    0.858574 0.711874 0.411731 0.129654
H9    H     H_    0.507329 0.677283 0.430401 0.119691
H10   H     H_    0.701601 0.785219 0.389556 0.115164
H11   H     H_    0.243251 0.774657 0.045770 0.170811
H12   H     H_    0.187964 0.519227 0.341477 0.133018
H13   H     H_    0.949071 0.642688 0.759820 0.132292
H14   H     H_    0.941976 0.638800 0.654940 0.123430
H15   H     H_    0.075691 0.377071 0.701723 0.123117
H16   H     H_    0.086245 0.384367 0.806091 0.130773
H17   H     H_    0.836053 0.484621 0.192229 0.134136
H18   H     H_    0.680976 0.510570 0.218612 0.153052
H19   H     H_    0.653393 0.360646 0.239479 0.171003
H20   H     H_    0.584218 0.420455 0.275085 0.142760
H21   H     H_    0.751134 0.399398 0.340574 0.161804
H22   H     H_    0.788265 0.549452 0.316311 0.172909
H23   H     H_    0.201229 0.519760 0.239355 0.136065
H24   H     H_    0.324420 0.732466 0.597395 0.116881
H25   H     H_    0.741954 0.534820 0.605587 0.176366
H26   H     H_    0.596226 0.436476 0.630456 0.154500
H27   H     H_    0.731860 0.425802 0.669621 0.151761
H28   H     H_    0.622036 0.275316 0.610912 0.108611
H29   H     H_    0.759913 0.353075 0.586798 0.192130
H30   H     H_    0.297101 0.946458 0.980981 0.160319
H31   H     H_    0.415412 0.894006 0.997925 0.158774
H32   H     H_    0.411626 0.992927 0.931938 0.155294
H33   H     H_    0.336560 0.800405 0.909590 0.199194
H34   H     H_    0.106026 0.885448 0.423849 0.128212
H35   H     H_    0.219208 0.852919 0.892490 0.194401
H36   H     H_    0.474906 0.194374 0.381875 0.111819
H37   H     H_    0.260986 0.071644 0.389204 0.118396
H38   H     H_    0.895207 0.147186 0.602337 0.115985
H39   H     H_    0.523933 0.931864 0.618887 0.117535
H40   H     H_    0.735349 0.991521 0.657630 0.124852
N1    N     N_R   0.026118 0.502537 0.149739 -0.396386
N2    N     N_R   0.020596 0.514391 0.851237 -0.393125
N3    N     N_R   0.246280 0.438190 0.533650 -0.235368
N4    N     N_R   0.754320 0.561190 0.466710 -0.235123
O1    O     O_R   0.972510 0.318130 0.516820 -0.509636
O2    O     O_R   0.082990 0.479280 0.429170 -0.495938
O3    O     O_R   0.917010 0.520800 0.406580 -0.516496
O4    O     O_2   0.175218 0.692033 0.143437 -0.507319
O5    O     O_2   0.467741 0.767383 0.556706 -0.511731
O6    O     O_2   0.878908 0.311980 0.158113 -0.507126
O7    O     O_2   0.865672 0.327687 0.859019 -0.510997
O8    O     O_2   0.174410 0.699350 0.839364 -0.532536
O9    O     O_R   0.806530 0.359650 0.494230 -0.516175
O10   O     O_R   0.082990 0.479200 0.593420 -0.500011
O11   O     O_R   0.917010 0.520720 0.570830 -0.513253
O12   O     O_R   0.193470 0.640350 0.505770 -0.495300
O13   O     O_R   0.027490 0.681870 0.483180 -0.509551

loop_
_geom_bond_atom_site_label_1
_geom_bond_atom_site_label_2
_ccdc_geom_bond_type
C27   C29   A    
C48   H4    S    
C43   C44   A    
C19   C31   A    
C54   H19   S    
C1    C33   S    
C7    C8    A    
C39   C41   A    
C20   H38   S    
C48   N3    A    
C53   C54   S    
C28   O3    A    
C12   C23   A    
C26   C27   A    
C29   C30   A    
Cu1   O10   S    
C36   C37   A    
C24   C26   A    
C5    C6    A    
C19   C32   A    
C10   C17   A    
Cu1   O12   S    
C2    N2    A    
C22   H39   S    
C18   H37   S    
C14   H12   S    
C23   H2    S    
C16   O13   A    
C15   H23   S    
C45   C56   A    
C8    C9    A    
C41   C46   A    
C4    O10   A    
C44   H5    S    
C53   H21   S    
C5    H14   S    
C35   C43   A    
C58   H26   S    
C11   C53   S    
C1    O9    A    
C37   H10   S    
C35   H6    S    
C59   C60   S    
C57   H28   S    
C13   C14   A    
C59   H35   S    
C62   H11   S    
C35   C48   A    
C54   H18   S    
C2    O8    S    
C44   C46   A    
Cu1   N3    S    
C39   C42   A    
C28   O2    A    
C59   C61   S    
C8    H16   S    
C24   C25   A    
C4    C6    S    
C60   H32   S    
C36   H8    S    
Cu1   O2    S    
C40   C52   A    
C12   H1    S    
C10   H17   S    
C51   C52   A    
C16   O12   A    
Cu2   O3    S    
C37   C38   A    
C3    C9    A    
C1    O1    A    
Cu1   O1    S    
C40   O4    S    
Cu2   O9    S    
C23   C34   A    
C13   C28   S    
C50   C51   A    
C29   H36   S    
C53   H22   S    
C34   C45   A    
Cu2   O13   S    
C58   H25   S    
Cu2   N4    S    
C6    C7    A    
C20   C33   A    
C60   H31   S    
C49   O6    S    
C47   N3    A    
C57   H29   S    
C46   C57   S    
C22   C24   A    
C18   C32   A    
C42   C43   A    
C63   O7    S    
C63   N2    A    
C40   N1    A    
C38   H9    S    
C25   C30   A    
C15   C17   A    
C56   C61   A    
C18   C27   A    
C3    C5    A    
C54   H20   S    
C12   C50   A    
C49   N1    A    
C55   O5    D    
C9    N2    S    
C32   H34   S    
Cu1   Cu2   S    
C55   H24   S    
C2    C56   A    
C17   N1    S    
C11   C13   A    
C57   C58   S    
C38   C39   A    
C16   C19   S    
C34   C63   A    
Cu2   O11   S    
C42   C47   A    
C61   C62   A    
C21   H40   S    
C47   H7    S    
C10   C11   A    
C60   H30   S    
C26   C31   A    
C20   C21   A    
C49   C50   A    
C36   N4    A    
C59   H33   S    
C45   C51   A    
C14   C15   A    
C4    O11   A    
C52   C62   A    
C41   N4    A    
C31   C55   S    
C21   C22   A    
C3    H13   S    
C58   H27   S    
C30   H3    S    
C25   C33   A    
C7    H15   S    
