data_mof_unit_4752.cif
_audit_creation_date              2013-03-05T15:45:20-0500
_audit_creation_method            fapswitch 2.2
_symmetry_space_group_name_H-M    P1
_symmetry_Int_Tables_number       1
_space_group_crystal_system       triclinic
_cell_length_a                    10.787469
_cell_length_b                    10.903605
_cell_length_c                    9.97616
_cell_angle_alpha                 109.795914
_cell_angle_beta                  101.206679
_cell_angle_gamma                 91.204721
_cell_volume                      1078.21866793

loop_
_atom_site_label
_atom_site_type_symbol
_atom_site_description
_atom_site_fract_x
_atom_site_fract_y
_atom_site_fract_z
_atom_type_partial_charge
O1    O     O_R   0.511700 0.332340 0.577400 -0.531203
O2    O     O_R   0.488300 0.667660 0.422600 -0.545520
O3    O     O_R   0.474680 0.295500 0.332650 -0.504886
O4    O     O_R   0.525320 0.704500 0.667350 -0.513822
C1    C     C_R   0.500134 0.254210 0.444393 0.791519
C2    C     C_R   0.509527 0.746003 0.557429 0.807691
O5    O     O_R   0.338170 0.518410 0.622370 -0.556291
O6    O     O_R   0.661830 0.481590 0.377630 -0.547757
O7    O     O_R   0.301150 0.481570 0.377630 -0.533876
O8    O     O_R   0.698850 0.518430 0.622370 -0.536262
C3    C     C_R   0.261473 0.506239 0.496754 0.789234
C4    C     C_R   0.737929 0.490948 0.502440 0.792392
Cu1   Cu    Cu3+1 0.521920 0.521810 0.644910 1.177361
Cu2   Cu    Cu3+1 0.478080 0.478190 0.355090 1.176522
C5    C     C_R   0.161114 0.698694 0.720480 -0.201819
C6    C     C_R   0.834273 0.294456 0.276237 -0.217882
C7    C     C_R   0.128063 0.763053 0.853946 0.233312
C8    C     C_R   0.869625 0.224684 0.145621 0.250252
C9    C     C_R   0.026514 0.705994 0.889782 0.218478
C10   C     C_R   0.977577 0.273526 0.112812 0.222385
C11   C     C_R   0.948939 0.597683 0.781971 0.317157
C12   C     C_R   0.053250 0.384470 0.217490 0.313677
C13   C     C_R   0.966271 0.554779 0.635729 -0.041298
C14   C     C_R   0.032935 0.434247 0.362405 -0.041493
C15   C     C_R   0.084573 0.589816 0.614224 -0.016682
C16   C     C_R   0.912957 0.401956 0.382976 -0.011578
C17   C     C_R   0.874404 0.474813 0.511523 -0.033974
C18   C     C_R   0.123965 0.517530 0.486181 -0.036943
H1    H     H_    0.244186 0.737192 0.696518 0.212007
H2    H     H_    0.748336 0.259631 0.298345 0.189014
C19   C     C_2   0.519344 0.116119 0.426575 0.126854
C20   C     C_2   0.508549 0.885665 0.582546 0.175058
C21   C     C_2   0.577667 0.081826 0.541514 0.310935
C22   C     C_2   0.587653 0.945284 0.529431 0.308150
N1    N     N_2   0.445130 0.445420 0.137360 -0.031395
N2    N     N_2   0.554870 0.554580 0.862640 -0.022153
C23   C     C_2   0.511430 0.509339 0.080540 0.451936
C24   C     C_2   0.489378 0.487795 0.917377 0.472183
N3    N     N_R   0.006230 0.217272 0.970794 0.203821
O9    O     O_R   0.916884 0.184920 0.853693 -0.193405
O10   O     O_R   0.123087 0.204090 0.957397 -0.174917
N4    N     N_R   0.008399 0.750449 0.037225 0.204321
O11   O     O_R   0.105285 0.777033 0.146426 -0.224413
O12   O     O_R   0.894750 0.760468 0.063053 -0.173170
N5    N     N_R   0.199933 0.883324 0.952351 0.206729
O13   O     O_R   0.146847 0.971104 0.042544 -0.228451
O14   O     O_R   0.312528 0.913996 0.937663 -0.182102
N6    N     N_R   0.793863 0.106976 0.046824 0.198074
O15   O     O_R   0.847474 0.008316 0.972585 -0.234239
O16   O     O_R   0.673317 0.091611 0.044153 -0.206685
Cl1   Cl    Cl    0.871155 0.489231 0.843992 -0.389294
Cl2   Cl    Cl    0.128627 0.487560 0.146998 -0.404825
Cl3   Cl    Cl    0.726167 0.877114 0.480918 -0.407017
Cl4   Cl    Cl    0.648509 0.193190 0.717452 -0.392956
Cl5   Cl    Cl    0.387030 0.966779 0.662658 -0.402135
Cl6   Cl    Cl    0.464348 0.995656 0.253116 -0.357377
Cl7   Cl    Cl    0.367329 0.369552 0.794869 -0.408195
Cl8   Cl    Cl    0.639455 0.619922 0.198445 -0.391168
Cl9   Cl    Cl    0.597001 0.720490 0.959252 -0.240251
Cl10  Cl    Cl    0.403971 0.279377 0.042211 -0.213622

loop_
_geom_bond_atom_site_label_1
_geom_bond_atom_site_label_2
_geom_bond_distance
_ccdc_geom_bond_type
C2    C20   1.457776 S    
O7    Cu2   1.964420 S    
C19   C21   1.367608 D    
C23   C24   1.532788 S    
C13   C17   1.425586 A    
C19   Cl6   1.760772 S    
C24   Cl7   1.767828 S    
C20   Cl5   1.765383 S    
C23   Cl8   1.755742 S    
C9    N4    1.438574 S    
O5    Cu1   1.949116 S    
O6    C4    1.322032 A    
N2    Cl9   1.738453 S    
N6    O16   1.301583 A    
C21   C22   1.460446 S    
N3    O10   1.299118 A    
C6    C8    1.398581 A    
Cu1   Cu2   2.708697 S    
C15   C18   1.405926 A    
O5    C3    1.323742 A    
O7    C3    1.286030 A    
C14   C16   1.405070 A    
C16   C17   1.407042 A    
O2    C2    1.298134 A    
O3    Cu2   1.926429 S    
N4    O12   1.300280 A    
C3    C18   1.477266 S    
Cu1   N2    2.034928 S    
O1    C1    1.291307 A    
O8    C4    1.287444 A    
N2    C24   1.313497 D    
N6    O15   1.301237 A    
C9    C11   1.414228 A    
C10   C12   1.411282 A    
C5    H1    1.082506 S    
C8    C10   1.409618 A    
C13   C15   1.400728 A    
C11   C13   1.424672 A    
C6    C16   1.410565 A    
O2    Cu2   1.937224 S    
C12   C14   1.424540 A    
C5    C15   1.407462 A    
O4    C2    1.305022 A    
O1    Cu1   1.937225 S    
N4    O11   1.301533 A    
C4    C17   1.475262 S    
C6    H2    1.083346 S    
O3    C1    1.321726 A    
C11   Cl1   1.772265 S    
C22   Cl3   1.761685 S    
C12   Cl2   1.771566 S    
N5    O14   1.301499 A    
N3    O9    1.298864 A    
C5    C7    1.398057 A    
C10   N3    1.438268 S    
C7    C9    1.410371 A    
C21   Cl4   1.770637 S    
O6    Cu2   1.949116 S    
N1    C23   1.312551 D    
C20   C22   1.348059 D    
N5    O13   1.301393 A    
Cu2   N1    2.034929 S    
C14   C18   1.430152 A    
O4    Cu1   1.926429 S    
C7    N5    1.440127 S    
N1    Cl10  1.736172 S    
C1    C19   1.479114 S    
O8    Cu1   1.964419 S    
C8    N6    1.439642 S    
