data_mof_unit_38.cif
_audit_creation_date              2012-12-10T16:42:58-0500
_audit_creation_method            fapswitch 2.2
_symmetry_space_group_name_H-M    P1
_symmetry_Int_Tables_number       1
_space_group_crystal_system       triclinic
_cell_length_a                    7.623809
_cell_length_b                    8.722487
_cell_length_c                    12.997841
_cell_angle_alpha                 84.104628
_cell_angle_beta                  77.33905
_cell_angle_gamma                 103.255785
_cell_volume                      810.133030854

loop_
_atom_site_label
_atom_site_type_symbol
_atom_type_description
_atom_site_fract_x
_atom_site_fract_y
_atom_site_fract_z
_atom_type_partial_charge
C1    C     C_R   0.452438 0.199335 0.508070 0.828481
C2    C     C_R   0.547518 0.800603 0.492242 0.828635
C3    C     C_R   0.462021 0.493541 0.702233 0.807554
C4    C     C_R   0.537646 0.506298 0.297985 0.815046
C5    C     C_R   0.564250 0.512773 0.181991 -0.118544
C6    C     C_R   0.434788 0.482746 0.818866 -0.219364
C7    C     C_R   0.265827 0.364123 0.002169 0.382648
C8    C     C_R   0.733675 0.624851 0.997080 0.360364
C9    C     C_R   0.264800 0.398500 0.893307 0.215638
C10   C     C_R   0.725584 0.610371 0.107681 0.143095
C11   C     C_R   0.588600 0.552959 0.854879 -0.246332
C12   C     C_R   0.418684 0.424860 0.146219 -0.307385
C13   C     C_R   0.581258 0.540471 0.963341 0.038740
C14   C     C_R   0.421434 0.441350 0.037716 -0.041951
C15   C     C_2   0.434145 0.029748 0.529873 0.009248
C16   C     C_2   0.566018 0.970157 0.470854 0.015234
Cu1   Cu    Cu3+1 0.686350 0.517570 0.488220 0.952155
Cu2   Cu    Cu3+1 0.313650 0.482430 0.511780 0.946095
H1    H     H_    0.301579 0.346154 0.205326 0.179124
H2    H     H_    0.714487 0.621755 0.796890 0.224750
N1    N     N_2   0.033570 0.455950 0.529530 0.015066
N2    N     N_2   0.966430 0.544050 0.470470 0.016328
O1    O     O_R   0.621060 0.286250 0.492350 -0.606234
O2    O     O_R   0.378940 0.713750 0.507650 -0.606386
O3    O     O_R   0.306310 0.256580 0.512240 -0.588812
O4    O     O_R   0.693690 0.743420 0.487760 -0.588659
O5    O     O_R   0.631800 0.512400 0.642670 -0.603897
O6    O     O_R   0.368200 0.487600 0.357330 -0.613988
O7    O     O_R   0.317060 0.482730 0.662570 -0.576909
O8    O     O_R   0.682940 0.517270 0.337430 -0.553111
N3    N     N_2   0.876540 0.695445 0.144226 -0.438906
H3    H     H_    0.914670 0.817058 0.118743 0.251693
C17   C     C_3   0.031752 0.623734 0.133463 -0.650263
H4    H     H_    0.071970 0.593425 0.052271 0.222388
H5    H     H_    0.993651 0.514681 0.193940 0.251896
H6    H     H_    0.154760 0.707851 0.146651 0.229222
N4    N     N_2   0.095714 0.366396 0.858035 -0.423543
H7    H     H_    0.076098 0.467168 0.818186 0.288745
C18   C     C_3   0.921554 0.265030 0.924911 -0.569930
H8    H     H_    0.812491 0.254679 0.879952 0.205306
H9    H     H_    0.873209 0.318945 0.996149 0.241276
H10   H     H_    0.936004 0.143104 0.947524 0.261927
O9    O     O_3   0.118840 0.251713 0.071217 -0.761989
H11   H     H_    0.074661 0.299650 0.134244 0.306372
O10   O     O_3   0.885752 0.720548 0.919739 -0.782603
H12   H     H_    0.977154 0.784111 0.952234 0.337031
N5    N     N_2   0.909787 0.358250 0.619268 -0.312749
H13   H     H_    0.775644 0.326423 0.615502 0.298765
C19   C     C_3   0.957002 0.214440 0.654376 -0.574212
H14   H     H_    0.844107 0.141410 0.722734 0.171920
H15   H     H_    0.085742 0.239972 0.681928 0.286696
H16   H     H_    0.967606 0.142257 0.589518 0.206077
N6    N     N_2   0.090480 0.644345 0.381954 -0.317070
H17   H     H_    0.225220 0.673016 0.384463 0.299701
C20   C     C_3   0.045100 0.790727 0.351086 -0.578157
H18   H     H_    0.157795 0.865899 0.283349 0.170639
H19   H     H_    0.035594 0.858933 0.418090 0.208450
H20   H     H_    0.915804 0.767928 0.324105 0.293611
N7    N     N_2   0.322829 0.946335 0.632565 -0.455221
H21   H     H_    0.382120 0.875205 0.675265 0.246478
C21   C     C_3   0.126158 0.881711 0.643097 -0.575926
H22   H     H_    0.092211 0.749380 0.652758 0.252806
H23   H     H_    0.083058 0.926938 0.572537 0.201971
H24   H     H_    0.045777 0.915626 0.715195 0.238850
N8    N     N_2   0.680380 0.054486 0.369122 -0.449822
H25   H     H_    0.622976 0.126382 0.325676 0.246364
C22   C     C_3   0.876123 0.118802 0.361589 -0.617981
H26   H     H_    0.959372 0.083199 0.291321 0.225871
H27   H     H_    0.915234 0.074890 0.434057 0.214826
H28   H     H_    0.910684 0.251209 0.350626 0.242860

loop_
_geom_bond_atom_site_label_1
_geom_bond_atom_site_label_2
_ccdc_geom_bond_type
C21   H24   S    
C20   H18   S    
N3    C17   S    
C1    O1    A    
C8    C13   A    
C1    C15   S    
Cu1   N2    S    
C7    O9    S    
N5    C19   S    
Cu2   N1    S    
C2    C16   S    
N3    H3    S    
O9    H11   S    
C3    C6    S    
N1    N2    D    
C19   H16   S    
C6    C9    A    
C3    O5    A    
C17   H4    S    
C8    O10   S    
C4    O8    A    
N7    H21   S    
C2    O4    A    
Cu2   O7    S    
N6    H17   S    
C1    O3    A    
Cu1   O8    S    
C11   C13   A    
C6    C11   A    
Cu1   O1    S    
Cu2   O3    S    
Cu2   O2    S    
Cu1   O4    S    
C12   H1    S    
C8    C10   A    
C17   H5    S    
N4    H7    S    
C12   C14   A    
Cu1   Cu2   S    
N2    N6    S    
C7    C9    A    
N6    C20   S    
C2    O2    A    
C21   H22   S    
C13   C14   A    
N1    N5    S    
C11   H2    S    
N7    C21   S    
N8    H25   S    
C22   H26   S    
Cu1   O5    S    
N5    H13   S    
O10   H12   S    
C5    C10   A    
C17   H6    S    
Cu2   O6    S    
C18   H9    S    
C5    C12   A    
N4    C18   S    
C19   H14   S    
C20   H20   S    
C22   H27   S    
C18   H8    S    
C3    O7    A    
C19   H15   S    
C18   H10   S    
C16   N8    S    
C22   H28   S    
C4    O6    A    
C20   H19   S    
C15   N7    S    
C10   N3    S    
C21   H23   S    
C7    C14   A    
C15   C16   D    
C4    C5    S    
N8    C22   S    
C9    N4    S    
