data_mof_unit_553.cif
_audit_creation_date              2012-10-26T20:33:56-0400
_audit_creation_method            fapswitch 2.2
_symmetry_space_group_name_H-M    P1
_symmetry_Int_Tables_number       1
_space_group_crystal_system       triclinic
_cell_length_a                    15.90236
_cell_length_b                    9.081338
_cell_length_c                    7.784213
_cell_angle_alpha                 90.005737
_cell_angle_beta                  89.850841
_cell_angle_gamma                 89.979681
_cell_volume                      1124.1509473

loop_
_atom_site_label
_atom_site_type_symbol
_atom_type_description
_atom_site_fract_x
_atom_site_fract_y
_atom_site_fract_z
_atom_type_partial_charge
C1    C     C_R   0.500025 0.220032 0.499994 0.549185
C2    C     C_3   0.048566 0.457562 0.329766 -0.262582
C3    C     C_3   0.949964 0.430976 0.649097 -0.247677
C4    C     C_3   0.951480 0.456703 0.330283 -0.252532
C5    C     C_1   0.749680 0.506796 0.499054 -0.050258
C6    C     C_1   0.250243 0.505030 0.500906 -0.029016
C7    C     C_3   0.082812 0.521809 0.501954 0.073071
C8    C     C_3   0.917148 0.527123 0.498457 0.066156
C9    C     C_3   0.950209 0.693543 0.514857 0.364290
C10   C     C_3   0.052795 0.688196 0.528517 0.363050
C11   C     C_3   0.063795 0.706602 0.866617 -0.320010
C12   C     C_1   0.824986 0.515566 0.498125 -0.076781
C13   C     C_3   0.092540 0.938045 0.401351 -0.302914
C14   C     C_3   0.921578 0.921957 0.692779 -0.282799
C15   C     C_3   0.836146 0.810283 0.327853 -0.311076
C16   C     C_1   0.174891 0.511449 0.501575 -0.048185
C17   C     C_R   0.339751 0.500132 0.500234 0.543482
C18   C     C_R   0.660240 0.500163 0.499765 0.539412
C19   C     C_1   0.500059 0.934605 0.500004 -0.053747
C20   C     C_1   0.500052 0.065393 0.499990 -0.053606
C21   C     C_R   0.500041 0.779972 0.500004 0.548874
C22   C     C_3   0.046766 0.419359 0.643836 -0.240511
Cu1   Cu    Cu3+1 0.500000 0.500010 0.669080 1.017051
Cu2   Cu    Cu3+1 0.500000 0.500010 0.330920 1.017738
H1    H     H_    0.150512 0.772666 0.685612 0.258306
H2    H     H_    0.899404 0.951152 0.823811 0.116274
H3    H     H_    0.883005 0.983812 0.598932 0.142645
H4    H     H_    0.987566 0.958436 0.682178 0.177075
H5    H     H_    0.954925 0.752895 0.247921 0.231067
H6    H     H_    0.808025 0.723339 0.245784 0.143042
H7    H     H_    0.832068 0.916119 0.257082 0.133531
H8    H     H_    0.798717 0.820857 0.447434 0.159990
H9    H     H_    0.923395 0.317720 0.639398 0.111894
H10   H     H_    0.929231 0.340691 0.320279 0.120076
H11   H     H_    0.064249 0.303121 0.614718 0.106106
H12   H     H_    0.113391 0.636948 0.925396 0.116670
H13   H     H_    0.071177 0.342216 0.313654 0.117066
H14   H     H_    0.072418 0.515705 0.214651 0.097922
H15   H     H_    0.074366 0.439353 0.771652 0.123942
H16   H     H_    0.927060 0.513470 0.214302 0.113801
H17   H     H_    0.927574 0.474057 0.774298 0.112550
H18   H     H_    0.003110 0.649905 0.876538 0.166020
H19   H     H_    0.059448 0.808786 0.944333 0.138119
H20   H     H_    0.091755 0.739690 0.267261 0.223702
H21   H     H_    0.133190 0.982650 0.297475 0.128103
H22   H     H_    0.118896 0.977362 0.524745 0.149032
H23   H     H_    0.028606 0.983884 0.383432 0.160079
H24   H     H_    0.855536 0.725336 0.707631 0.233779
N1    N     N_1   0.500000 0.499970 0.076820 -0.080159
N2    N     N_1   0.500000 0.499970 0.923180 -0.080105
N3    N     N_2   0.087513 0.745640 0.692069 -0.485690
N4    N     N_2   0.091915 0.778066 0.391297 -0.511563
N5    N     N_2   0.913392 0.763814 0.668171 -0.492969
N6    N     N_2   0.924016 0.776980 0.360748 -0.505998
O1    O     O_R   0.500000 0.288400 0.642760 -0.495391
O2    O     O_R   0.500000 0.288400 0.357240 -0.495503
O3    O     O_R   0.379440 0.500020 0.642850 -0.498068
O4    O     O_R   0.379440 0.500020 0.357150 -0.495737
O5    O     O_R   0.620560 0.500020 0.642850 -0.499073
O6    O     O_R   0.620560 0.500020 0.357150 -0.499859
O7    O     O_R   0.500000 0.711620 0.642810 -0.495820
O8    O     O_R   0.500000 0.711620 0.357190 -0.495471

loop_
_geom_bond_atom_site_label_1
_geom_bond_atom_site_label_2
_ccdc_geom_bond_type
C7    C10   S    
C2    C4    S    
Cu1   Cu2   S    
H1    N3    S    
C15   H7    S    
C9    N6    S    
C14   H3    S    
Cu2   O2    S    
C13   N4    S    
C9    C10   S    
C2    H14   S    
C21   O7    A    
C19   C20   T    
C8    C12   S    
C17   O4    A    
C4    C8    S    
C10   N4    S    
H20   N4    S    
C1    O1    A    
C15   H8    S    
C14   H2    S    
Cu1   O1    S    
C22   H11   S    
C2    H13   S    
C21   O8    A    
C13   H22   S    
C5    C12   T    
C22   H15   S    
C1    C20   S    
C18   O6    A    
C7    C16   S    
C19   C21   S    
C1    O2    A    
C3    C8    S    
H24   N5    S    
C4    H10   S    
C11   H19   S    
C9    N5    S    
H5    N6    S    
C10   N3    S    
C6    C16   T    
Cu2   O6    S    
C7    C22   S    
C15   N6    S    
C4    H16   S    
C18   O5    A    
Cu1   O7    S    
C14   N5    S    
C11   N3    S    
C13   H21   S    
C15   H6    S    
Cu2   O4    S    
N1    N2    T    
Cu2   N1    S    
Cu1   O3    S    
C6    C17   S    
C3    H9    S    
C11   H12   S    
Cu1   N2    S    
Cu2   O8    S    
C5    C18   S    
Cu1   O5    S    
C14   H4    S    
C13   H23   S    
C3    H17   S    
C11   H18   S    
C2    C7    S    
C17   O3    A    
C8    C9    S    
C3    C22   S    
