data_mof_unit_1376.cif
_audit_creation_date              2012-12-10T18:12:36-0500
_audit_creation_method            fapswitch 2.2
_symmetry_space_group_name_H-M    P1
_symmetry_Int_Tables_number       1
_space_group_crystal_system       triclinic
_cell_length_a                    12.663705
_cell_length_b                    12.972711
_cell_length_c                    15.73609
_cell_angle_alpha                 91.127834
_cell_angle_beta                  103.111581
_cell_angle_gamma                 81.731562
_cell_volume                      2491.37422656

loop_
_atom_site_label
_atom_site_type_symbol
_atom_type_description
_atom_site_fract_x
_atom_site_fract_y
_atom_site_fract_z
_atom_type_partial_charge
C1    C     C_R   0.438424 0.691612 0.487514 1.071998
C2    C     C_R   0.598144 0.200049 0.538159 -0.419989
C3    C     C_R   0.324036 0.832524 0.389636 0.290730
C4    C     C_R   0.501480 0.500268 0.661825 0.940584
C5    C     C_R   0.298832 0.940222 0.367652 0.320159
C6    C     C_R   0.352572 0.011713 0.422486 0.611338
C7    C     C_R   0.440848 0.977365 0.492646 -0.139880
C8    C     C_R   0.449315 0.875961 0.525104 -0.213178
C9    C     C_R   0.520087 0.040429 0.532580 -0.041398
C10   C     C_R   0.587031 0.012198 0.616469 -0.240651
C11   C     C_R   0.578317 0.919260 0.656075 -0.152925
C12   C     C_3   0.504221 0.501201 0.917373 -0.248554
C13   C     C_R   0.511341 0.850876 0.610621 0.705831
C14   C     C_R   0.539656 0.127377 0.489630 0.497722
C15   C     C_R   0.664530 0.173537 0.621459 0.332690
C16   C     C_R   0.561406 0.308464 0.512470 0.987925
C17   C     C_R   0.398042 0.802022 0.470118 -0.279874
C18   C     C_R   0.091158 0.341578 0.378852 0.361058
C19   C     C_R   0.802389 0.623389 0.609857 0.519637
C20   C     C_R   0.910633 0.644523 0.636800 0.323860
C21   C     C_R   0.991221 0.588062 0.601133 -0.281251
C22   C     C_R   0.964090 0.522365 0.529366 0.003523
C23   C     C_3   0.469437 0.410444 0.019086 0.394682
C24   C     C_R   0.854773 0.502187 0.505373 0.047702
C25   C     C_R   0.041831 0.473520 0.482988 -0.198100
C26   C     C_R   0.012241 0.393709 0.421803 -0.218434
C27   C     C_R   0.904036 0.370135 0.403027 0.555102
C28   C     C_R   0.498671 0.499455 0.338194 0.873066
C29   C     C_R   0.827766 0.424643 0.445127 -0.278296
C30   C     C_R   0.147731 0.502793 0.492544 0.500035
C31   C     C_R   0.197176 0.366658 0.399874 0.594692
C32   C     C_3   0.430932 0.581311 0.015870 0.541775
C33   C     C_3   0.534077 0.590430 0.980783 -0.382200
C34   C     C_3   0.498382 0.498728 0.083137 -0.320288
C35   C     C_1   0.504639 0.500901 0.751289 -0.113934
C36   C     C_1   0.496073 0.498506 0.248821 -0.125879
C37   C     C_3   0.401750 0.493069 0.952106 0.352196
C38   C     C_3   0.581326 0.117020 0.356659 -0.309708
C39   C     C_3   0.183753 0.774540 0.282705 -0.152741
C40   C     C_3   0.277372 0.003015 0.229976 -0.167806
C41   C     C_3   0.785242 0.324071 0.278812 -0.236319
C42   C     C_3   0.052229 0.299684 0.235269 -0.114670
C43   C     C_3   0.130628 0.678168 0.478223 -0.257596
C44   C     C_3   0.744900 0.650278 0.738462 -0.121624
C45   C     C_3   0.571980 0.419008 0.984305 0.549100
C46   C     C_3   0.915731 0.816121 0.662780 -0.226972
C47   C     C_3   0.220425 0.479084 0.943591 -0.143386
C48   C     C_3   0.828299 0.232622 0.653419 -0.160878
C49   C     C_3   0.600922 0.506891 0.048571 0.508822
C50   C     C_1   0.505576 0.501217 0.826737 0.187898
C51   C     C_1   0.496192 0.498259 0.173564 0.172204
C52   C     C_R   0.660576 0.078035 0.659577 0.577459
F1    F     F_    0.312758 0.114387 0.409959 -0.548806
F2    F     F_    0.502616 0.762964 0.652326 -0.680347
F3    F     F_    0.275253 0.315550 0.361999 -0.560509
F4    F     F_    0.358734 0.664653 0.034270 -0.627362
F5    F     F_    0.703863 0.512923 0.100138 -0.643096
F6    F     F_    0.645391 0.336322 0.966598 -0.580465
F7    F     F_    0.438098 0.318315 0.040468 -0.614383
F8    F     F_    0.723201 0.053124 0.740710 -0.629601
H1    H     H_    0.561056 0.663560 0.963842 0.219483
H2    H     H_    0.153558 0.698981 0.265548 0.147515
H3    H     H_    0.215986 0.024002 0.168192 0.188874
H4    H     H_    0.336516 0.936007 0.216319 0.153875
H5    H     H_    0.319858 0.071890 0.249884 0.225420
H6    H     H_    0.790092 0.402392 0.253323 0.197368
H7    H     H_    0.706807 0.324379 0.299197 0.139603
H8    H     H_    0.785149 0.268855 0.224082 0.225222
H9    H     H_    0.022480 0.238712 0.189297 0.195577
H10   H     H_    0.130430 0.316470 0.221577 0.173654
H11   H     H_    0.989243 0.370306 0.221958 0.129915
H12   H     H_    0.074238 0.596446 0.632532 0.262637
H13   H     H_    0.167099 0.747747 0.505875 0.198939
H14   H     H_    0.040742 0.695616 0.472073 0.142194
H15   H     H_    0.147904 0.665084 0.412582 0.165155
H16   H     H_    0.790612 0.710021 0.775196 0.193749
H17   H     H_    0.790093 0.570487 0.755990 0.130778
H18   H     H_    0.667148 0.655332 0.760444 0.202526
H19   H     H_    0.826208 0.837747 0.635779 0.170415
H20   H     H_    0.961852 0.822487 0.611118 0.147121
H21   H     H_    0.941319 0.873340 0.713896 0.218041
H22   H     H_    0.209717 0.548589 0.984859 0.192319
H23   H     H_    0.748254 0.401890 0.432004 0.210333
H24   H     H_    0.240811 0.406742 0.984188 0.192242
H25   H     H_    0.140567 0.475362 0.897526 0.178713
H26   H     H_    0.825398 0.244042 0.582910 0.141696
H27   H     H_    0.874282 0.154791 0.676418 0.170431
H28   H     H_    0.874035 0.292540 0.689937 0.181039
H29   H     H_    0.625529 0.897776 0.721315 0.212300
H30   H     H_    0.616137 0.033309 0.368222 0.151734
H31   H     H_    0.647124 0.167063 0.375295 0.158539
H32   H     H_    0.546295 0.128305 0.285627 0.217583
H33   H     H_    0.179994 0.813923 0.219937 0.219009
H34   H     H_    0.127779 0.819414 0.319958 0.155169
N1    N     N_R   0.222180 0.444680 0.455580 -0.226993
N2    N     N_R   0.776980 0.554790 0.543960 -0.173177
O1    O     O_R   0.366730 0.627160 0.478790 -0.569039
O2    O     O_3   0.293183 0.754109 0.330978 -0.610421
O3    O     O_3   0.222165 0.976630 0.293177 -0.583112
O4    O     O_3   0.875265 0.288735 0.347912 -0.571848
O5    O     O_3   0.067787 0.261590 0.321267 -0.484856
O6    O     O_3   0.177631 0.592126 0.534410 -0.572843
O7    O     O_3   0.720018 0.672050 0.647708 -0.573982
O8    O     O_3   0.940037 0.715674 0.701168 -0.595588
O9    O     O_3   0.299569 0.486735 0.894857 -0.561123
O10   O     O_3   0.722455 0.245440 0.670130 -0.547408
O11   O     O_R   0.544830 0.662520 0.507160 -0.564880
O12   O     O_R   0.410960 0.482330 0.609040 -0.583041
O13   O     O_R   0.589060 0.517690 0.637410 -0.568432
O14   O     O_R   0.455170 0.337480 0.492840 -0.522701
O15   O     O_R   0.633270 0.372840 0.521210 -0.641065
O16   O     O_R   0.410940 0.482310 0.362590 -0.558841
O17   O     O_R   0.589040 0.517670 0.390960 -0.654618
O18   O     O_3   0.497001 0.145638 0.401248 -0.518532
Zn1   Zn    Zn3+2 0.381080 0.476390 0.481050 1.086522
Zn2   Zn    Zn3+2 0.618920 0.523610 0.518950 0.996119

loop_
_geom_bond_atom_site_label_1
_geom_bond_atom_site_label_2
_ccdc_geom_bond_type
C43   H13   S    
C4    O13   A    
C8    C13   A    
C23   C45   S    
C27   C29   A    
C19   C20   A    
C18   C26   A    
C10   C52   A    
C40   O3    S    
C16   O14   A    
C7    C8    A    
C41   H7    S    
C28   O16   A    
C23   F7    S    
C4    O12   A    
C26   C27   A    
C40   H3    S    
C47   H25   S    
C15   O10   S    
C44   H17   S    
C29   H23   S    
C24   N2    A    
C46   H19   S    
C38   O18   S    
C33   C49   S    
C38   H32   S    
C42   H10   S    
C49   F5    S    
C47   H24   S    
C47   H22   S    
C12   C37   S    
C44   H16   S    
C24   C29   A    
C39   H33   S    
C52   F8    S    
O13   Zn2   S    
C19   O7    S    
C48   O10   S    
C5    O3    S    
N1    Zn1   S    
C47   O9    S    
C22   C25   A    
C48   H28   S    
O15   Zn2   S    
O1    Zn1   S    
C2    C16   S    
C9    C10   A    
O17   Zn2   S    
C43   H14   S    
C4    C35   S    
C21   C22   A    
C44   O7    S    
C41   H8    S    
C43   H15   S    
C45   F6    S    
C27   O4    S    
C41   O4    S    
C32   C37   S    
C21   H12   S    
C28   O17   A    
C1    O1    A    
C39   O2    S    
C25   C26   A    
C14   O18   S    
C46   O8    S    
C38   H31   S    
C42   H9    S    
C18   O5    S    
C32   C34   S    
C9    C14   A    
C39   H34   S    
C37   O9    S    
C30   N1    A    
C46   H21   S    
C11   H29   S    
C45   C49   S    
C23   C34   S    
C30   O6    S    
C35   C50   T    
C34   C51   S    
C48   H27   S    
C15   C52   A    
C2    C15   A    
C6    C7    A    
C36   C51   T    
C1    O11   A    
C40   H5    S    
C48   H26   S    
C6    F1    S    
C42   O5    S    
O12   Zn1   S    
C13   F2    S    
C25   C30   A    
C7    C9    A    
C39   H2    S    
C34   C49   S    
C12   C45   S    
C3    C5    A    
C12   C50   S    
C41   H6    S    
C20   O8    S    
C38   H30   S    
C1    C17   S    
C8    C17   A    
C40   H4    S    
C32   C33   S    
C44   H18   S    
C43   O6    S    
C23   C37   S    
C46   H20   S    
C11   C13   A    
C3    O2    S    
C5    C6    A    
C31   N1    A    
C42   H11   S    
C3    C17   A    
C22   C24   A    
C2    C14   A    
O11   Zn2   S    
C10   C11   A    
C20   C21   A    
C28   C36   S    
C33   H1    S    
N2    Zn2   S    
C18   C31   A    
C31   F3    S    
C12   C33   S    
O14   Zn1   S    
C32   F4    S    
O16   Zn1   S    
C19   N2    A    
C16   O15   A    
