data_mof_unit_4790.cif
_audit_creation_date              2012-12-10T19:03:04-0500
_audit_creation_method            fapswitch 2.2
_symmetry_space_group_name_H-M    P1
_symmetry_Int_Tables_number       1
_space_group_crystal_system       triclinic
_cell_length_a                    10.736371
_cell_length_b                    10.855599
_cell_length_c                    9.579179
_cell_angle_alpha                 91.235554
_cell_angle_beta                  90.515196
_cell_angle_gamma                 91.098425
_cell_volume                      1115.93671373

loop_
_atom_site_label
_atom_site_type_symbol
_atom_type_description
_atom_site_fract_x
_atom_site_fract_y
_atom_site_fract_z
_atom_type_partial_charge
C1    C     C_R   0.496653 0.262615 0.498681 0.790385
C2    C     C_3   0.878095 0.501201 0.501873 0.149894
C3    C     C_3   0.929805 0.612095 0.419254 -0.378553
C4    C     C_3   0.924691 0.380082 0.433456 -0.371396
C5    C     C_R   0.485174 0.067845 0.622892 0.084268
C6    C     C_R   0.483621 0.129706 0.497214 -0.087722
C7    C     C_R   0.466498 0.061250 0.372313 -0.226274
C8    C     C_R   0.467801 0.932581 0.374219 -0.221938
C9    C     C_R   0.486687 0.871277 0.500925 -0.095862
C10   C     C_R   0.486832 0.940948 0.625434 0.101453
C11   C     C_3   0.575008 0.945719 0.748103 -0.051089
C12   C     C_R   0.259876 0.500122 0.499901 0.742286
C13   C     C_3   0.571787 0.085336 0.744310 -0.490610
C14   C     C_R   0.601947 0.540989 0.075733 0.249239
C15   C     C_R   0.407020 0.441217 0.069887 0.065592
C16   C     C_R   0.406373 0.445094 0.921421 -0.061951
C17   C     C_R   0.603015 0.538612 0.928760 0.236752
C18   C     C_3   0.664045 0.662262 0.926143 -0.486278
C19   C     C_3   0.661288 0.665803 0.084457 -0.500316
C20   C     C_R   0.498304 0.737841 0.500932 0.818700
C21   C     C_R   0.740079 0.500965 0.500682 0.763660
C22   C     C_3   0.072782 0.509638 0.653070 -0.354362
C23   C     C_3   0.930158 0.511537 0.653468 -0.371192
C24   C     C_3   0.073545 0.612507 0.419894 -0.371299
C25   C     C_3   0.068402 0.380339 0.431653 -0.386520
C26   C     C_3   0.121778 0.500649 0.500843 0.148533
Cu1   Cu    Cu3+1 0.499990 0.499980 0.640670 0.936789
Cu2   Cu    Cu3+1 0.500010 0.500020 0.359330 0.923614
H1    H     H_    0.110251 0.594861 0.706397 0.171031
H2    H     H_    0.888222 0.369760 0.324590 0.180285
H3    H     H_    0.107280 0.609157 0.310352 0.186002
H4    H     H_    0.895668 0.606317 0.309434 0.169475
H5    H     H_    0.458060 0.106506 0.273097 0.155319
H6    H     H_    0.459445 0.881939 0.275859 0.160985
H7    H     H_    0.532953 0.909568 0.844687 0.148664
H8    H     H_    0.524699 0.127288 0.836127 0.184806
H9    H     H_    0.661483 0.130974 0.716036 0.193874
H10   H     H_    0.104647 0.429574 0.713801 0.182936
H11   H     H_    0.331568 0.400944 0.861371 0.178769
H12   H     H_    0.759645 0.659488 0.883237 0.194550
H13   H     H_    0.601556 0.728439 0.878219 0.232586
H14   H     H_    0.755629 0.664866 0.132555 0.188573
H15   H     H_    0.598406 0.736892 0.127803 0.209452
H16   H     H_    0.894091 0.433884 0.716624 0.174906
H17   H     H_    0.899608 0.598965 0.703924 0.165455
H18   H     H_    0.110068 0.699814 0.469305 0.149423
H19   H     H_    0.896440 0.700096 0.466037 0.153886
H20   H     H_    0.100017 0.372099 0.321936 0.208868
H21   H     H_    0.102956 0.298874 0.487852 0.148134
H22   H     H_    0.889558 0.299497 0.492444 0.148153
N1    N     N_R   0.500800 0.500930 0.147930 -0.231403
N2    N     N_R   0.500800 0.500890 0.852020 -0.209784
O1    O     O_R   0.500000 0.319640 0.618810 -0.575267
O2    O     O_R   0.500010 0.319680 0.381230 -0.613590
O3    O     O_R   0.317690 0.499960 0.618790 -0.594760
O4    O     O_R   0.317700 0.500000 0.381210 -0.602124
O5    O     O_R   0.499990 0.680320 0.618770 -0.563787
O6    O     O_R   0.500000 0.680360 0.381190 -0.587467
O7    O     O_R   0.682300 0.500000 0.618790 -0.581523
O8    O     O_R   0.682310 0.500040 0.381210 -0.583439
N3    N     N_3   0.697499 0.895739 0.715226 -0.594518
H23   H     H_    0.758005 0.919483 0.798023 0.225256
H24   H     H_    0.733303 0.936669 0.625724 0.228127
C27   C     C_2   0.308020 0.365752 0.134463 0.324373
H25   H     H_    0.322959 0.321452 0.232519 0.125085
O9    O     O_2   0.207849 0.348181 0.075135 -0.607105

loop_
_geom_bond_atom_site_label_1
_geom_bond_atom_site_label_2
_ccdc_geom_bond_type
C2    C4    S    
C1    O2    A    
Cu1   O1    S    
C6    C7    A    
C23   H17   S    
C22   H1    S    
C15   N1    A    
C11   C13   S    
C9    C10   A    
C1    C6    S    
C9    C20   S    
C13   H9    S    
C14   N1    A    
C14   C17   A    
C19   H14   S    
C15   C27   S    
C24   H18   S    
C27   H25   S    
N3    H23   S    
C2    C21   S    
C11   H7    S    
C17   C18   S    
Cu2   O4    S    
C24   H3    S    
C5    C10   A    
C8    H6    S    
C7    H5    S    
C25   H20   S    
C3    C24   S    
C12   O4    A    
C21   O8    A    
C5    C6    A    
C5    C13   S    
C17   N2    A    
C3    H19   S    
C19   H15   S    
C21   O7    A    
Cu2   O6    S    
Cu2   O8    S    
Cu1   O5    S    
C3    H4    S    
C24   C26   S    
Cu2   N1    S    
C25   H21   S    
C12   O3    A    
C10   C11   S    
Cu1   O3    S    
C16   H11   S    
C20   O6    A    
C15   C16   A    
C22   H10   S    
C4    C25   S    
C7    C8    A    
C18   H12   S    
Cu1   N2    S    
C13   H8    S    
C18   C19   S    
C22   C26   S    
C18   H13   S    
C12   C26   S    
C2    C23   S    
N3    H24   S    
C1    O1    A    
C22   C23   S    
C2    C3    S    
Cu1   O7    S    
C11   N3    S    
C25   C26   S    
Cu2   O2    S    
C20   O5    A    
C14   C19   S    
C4    H2    S    
C23   H16   S    
C16   N2    A    
C4    H22   S    
C8    C9    A    
Cu1   Cu2   S    
C27   O9    D    
