data_mof_unit_4780.cif
_audit_creation_date              2012-12-10T17:30:20-0500
_audit_creation_method            fapswitch 2.2
_symmetry_space_group_name_H-M    P1
_symmetry_Int_Tables_number       1
_space_group_crystal_system       triclinic
_cell_length_a                    12.172632
_cell_length_b                    12.912273
_cell_length_c                    14.880246
_cell_angle_alpha                 93.220199
_cell_angle_beta                  86.926744
_cell_angle_gamma                 95.84944
_cell_volume                      2320.2694553

loop_
_atom_site_label
_atom_site_type_symbol
_atom_type_description
_atom_site_fract_x
_atom_site_fract_y
_atom_site_fract_z
_atom_type_partial_charge
C1    C     C_R   0.523754 0.700228 0.496024 0.930672
C2    C     C_R   0.367015 0.130413 0.469021 0.077345
C3    C     C_R   0.454282 0.864371 0.460705 0.007851
C4    C     C_R   0.544254 0.135498 0.539411 0.012352
C5    C     C_R   0.454469 0.971836 0.478154 0.096464
C6    C     C_R   0.544813 0.028258 0.520893 0.090025
C7    C     C_R   0.948673 0.416783 0.400692 -0.133848
C8    C     C_R   0.051446 0.583671 0.599124 -0.133908
C9    C     C_R   0.833770 0.418466 0.415862 0.038113
C10   C     C_R   0.166350 0.581666 0.584102 0.037432
C11   C     C_R   0.861416 0.539435 0.541043 0.186801
C12   C     C_R   0.476196 0.299806 0.503617 0.933408
C13   C     C_R   0.138594 0.460827 0.458834 0.186553
C14   C     C_R   0.977761 0.530877 0.535993 -0.016215
C15   C     C_R   0.022298 0.469496 0.463870 -0.016199
C16   C     C_R   0.500467 0.500633 0.672432 0.924056
C17   C     C_R   0.499032 0.498685 0.327570 0.921203
C18   C     C_R   0.458869 0.405561 0.184327 -0.093532
C19   C     C_R   0.509719 0.597077 0.817522 -0.091507
C20   C     C_R   0.494624 0.498108 0.231617 -0.100032
C21   C     C_R   0.498554 0.501521 0.768757 -0.102453
C22   C     C_R   0.510099 0.593756 0.191966 0.031837
C23   C     C_R   0.489858 0.695164 0.963776 0.048889
C24   C     C_R   0.465061 0.407979 0.808810 0.032397
C25   C     C_R   0.487762 0.598991 0.100335 0.023190
C26   C     C_R   0.441815 0.408272 0.902877 0.022773
C27   C     C_R   0.461817 0.503801 0.049090 -0.017844
C28   C     C_R   0.462734 0.504127 0.954465 -0.018389
C29   C     C_R   0.439270 0.407714 0.092094 0.075947
C30   C     C_R   0.488564 0.599961 0.911489 0.073970
C31   C     C_R   0.489645 0.694756 0.057832 -0.037822
C32   C     C_R   0.397934 0.317761 0.947574 -0.038396
C33   C     C_1   0.452834 0.308891 0.230863 0.217151
C34   C     C_R   0.396240 0.317791 0.041762 0.050058
C35   C     C_1   0.548676 0.689664 0.769279 0.223694
C36   C     C_1   0.987306 0.366007 0.316919 0.191714
C37   C     C_1   0.012891 0.634937 0.682673 0.191073
C38   C     C_1   0.483890 0.793890 0.108024 0.118498
C39   C     C_1   0.347907 0.224891 0.900334 0.121227
C40   C     C_1   0.241456 0.645502 0.641220 0.265417
C41   C     C_1   0.758849 0.354440 0.358809 0.264090
C42   C     C_R   0.459376 0.187204 0.506961 -0.050564
C43   C     C_R   0.540271 0.812899 0.491870 -0.051602
C44   C     C_R   0.635258 0.977103 0.542095 -0.255941
C45   C     C_R   0.364918 0.023352 0.455453 -0.248400
C46   C     C_R   0.633967 0.870172 0.527365 0.082381
H1    H     H_    0.707496 0.018656 0.571424 0.141715
H2    H     H_    0.263689 0.213388 0.070327 0.205353
H3    H     H_    0.630847 0.159328 0.653466 0.184551
H4    H     H_    0.705103 0.191123 0.556369 0.193710
H5    H     H_    0.363689 0.838646 0.348824 0.187705
H6    H     H_    0.292412 0.809880 0.447865 0.195822
H7    H     H_    0.204870 0.150918 0.477658 0.182411
H8    H     H_    0.265321 0.161622 0.373297 0.200079
H9    H     H_    0.795927 0.850249 0.511095 0.183235
H10   H     H_    0.743306 0.840766 0.617846 0.197985
H11   H     H_    0.265227 0.382548 0.402975 0.265314
H12   H     H_    0.293179 0.982159 0.425094 0.142545
H13   H     H_    0.144777 0.312977 0.413395 0.169297
H14   H     H_    0.734702 0.617688 0.596949 0.265098
H15   H     H_    0.855002 0.687418 0.586184 0.170031
H16   H     H_    0.495449 0.730874 0.264933 0.208122
H17   H     H_    0.623745 0.720622 0.210744 0.205051
H18   H     H_    0.507252 0.259729 0.778868 0.201864
H19   H     H_    0.380645 0.285197 0.740928 0.208957
H20   H     H_    0.415117 0.825739 0.944429 0.205329
H21   H     H_    0.555917 0.842787 0.939486 0.200301
H22   H     H_    0.388090 0.163014 0.064198 0.204046
N1    N     N_R   0.207800 0.519350 0.516680 -0.145233
N2    N     N_1   0.307522 0.150247 0.863706 -0.204937
N3    N     N_3   0.486904 0.792355 0.921563 -0.437505
N4    N     N_3   0.346596 0.227423 0.086555 -0.442260
N5    N     N_3   0.628566 0.193211 0.591488 -0.427091
N6    N     N_3   0.367781 0.806217 0.411236 -0.438747
N7    N     N_3   0.276094 0.180914 0.441665 -0.459863
N8    N     N_3   0.727467 0.820396 0.550445 -0.455855
N9    N     N_3   0.182130 0.385896 0.395760 -0.433335
N10   N     N_3   0.817855 0.614493 0.604005 -0.433550
N11   N     N_1   0.300542 0.697484 0.687254 -0.198146
N12   N     N_R   0.792200 0.480650 0.483320 -0.145142
N13   N     N_1   0.700009 0.302248 0.312757 -0.199025
N14   N     N_1   0.448732 0.232126 0.268021 -0.201750
N15   N     N_1   0.579388 0.763219 0.730645 -0.214691
N16   N     N_1   0.017422 0.325614 0.249965 -0.188141
N17   N     N_1   0.982873 0.675742 0.749465 -0.185319
N18   N     N_3   0.556481 0.681845 0.245774 -0.457256
N19   N     N_3   0.462384 0.314245 0.751608 -0.458336
N20   N     N_1   0.479006 0.873551 0.147084 -0.211470
O1    O     O_R   0.421700 0.658830 0.504450 -0.603273
O2    O     O_R   0.578300 0.341170 0.495550 -0.602245
O3    O     O_R   0.609310 0.646410 0.493750 -0.630220
O4    O     O_R   0.390690 0.353590 0.506250 -0.635977
O5    O     O_R   0.406180 0.506230 0.637500 -0.620707
O6    O     O_R   0.593820 0.493770 0.362500 -0.612315
O7    O     O_R   0.593800 0.493820 0.626800 -0.628452
O8    O     O_R   0.406200 0.506180 0.373200 -0.634296
Zn1   Zn    Zn3+2 0.374730 0.508290 0.507150 0.955100
Zn2   Zn    Zn3+2 0.625270 0.491710 0.492850 0.961589

loop_
_geom_bond_atom_site_label_1
_geom_bond_atom_site_label_2
_ccdc_geom_bond_type
C25   C31   A    
C26   C32   A    
C16   C21   S    
H10   N8    S    
O5    Zn1   S    
C27   C29   A    
C7    C36   S    
H5    N6    S    
H13   N9    S    
C46   N8    S    
O7    Zn2   S    
H16   N18   S    
H14   N10   S    
C16   O5    A    
C4    C42   A    
C12   O2    A    
C19   C21   A    
C24   C26   A    
H6    N6    S    
C5    C6    A    
C11   C14   A    
O6    Zn2   S    
C17   C20   S    
C10   C40   S    
C32   C39   S    
C3    N6    S    
C12   C42   S    
C1    C43   S    
C22   C25   A    
C1    O1    A    
C18   C33   S    
C33   N14   T    
H18   N19   S    
H21   N3    S    
C44   H1    S    
C7    C15   A    
C1    O3    A    
C6    C44   A    
H7    N7    S    
H2    N4    S    
C3    C43   A    
C43   C46   A    
C44   C46   A    
O4    Zn1   S    
H19   N19   S    
C2    C45   A    
C13   N9    S    
C45   H12   S    
C23   C30   A    
C23   N3    S    
C4    C6    A    
H4    N5    S    
C17   O8    A    
C35   N15   T    
C5    C45   A    
C29   C34   A    
O1    Zn1   S    
C9    N12   A    
C32   C34   A    
C11   N10   S    
H11   N9    S    
C2    C42   A    
H20   N3    S    
H15   N10   S    
H22   N4    S    
C41   N13   T    
O8    Zn1   S    
C40   N11   T    
C18   C29   A    
C4    N5    S    
H9    N8    S    
C20   C22   A    
C13   C15   A    
H17   N18   S    
H3    N5    S    
C8    C37   S    
C34   N4    S    
C37   N17   T    
C7    C9    A    
C16   O7    A    
C8    C14   A    
N12   Zn2   S    
C9    C41   S    
C12   O4    A    
C3    C5    A    
C25   C27   A    
C26   C28   A    
C31   C38   S    
C28   C30   A    
C19   C35   S    
C13   N1    A    
C36   N16   T    
C39   N2    T    
C18   C20   A    
C22   N18   S    
O3    Zn2   S    
C24   N19   S    
C11   N12   A    
H8    N7    S    
C10   N1    A    
C8    C10   A    
C21   C24   A    
C38   N20   T    
C27   C28   A    
C14   C15   A    
C17   O6    A    
C19   C30   A    
O2    Zn2   S    
C2    N7    S    
C23   C31   A    
N1    Zn1   S    
