data_mof_unit_3840.cif
_audit_creation_date              2012-12-10T17:12:36-0500
_audit_creation_method            fapswitch 2.2
_symmetry_space_group_name_H-M    P1
_symmetry_Int_Tables_number       1
_space_group_crystal_system       triclinic
_cell_length_a                    23.400991
_cell_length_b                    10.802523
_cell_length_c                    10.066857
_cell_angle_alpha                 89.88055
_cell_angle_beta                  89.592353
_cell_angle_gamma                 90.007953
_cell_volume                      2544.72822994

loop_
_atom_site_label
_atom_site_type_symbol
_atom_type_description
_atom_site_fract_x
_atom_site_fract_y
_atom_site_fract_z
_atom_type_partial_charge
C1    C     C_R   0.500774 0.263297 0.499768 0.968528
C2    C     C_R   0.123619 0.535185 0.586571 0.574388
C3    C     C_R   0.232523 0.514223 0.425628 -0.118346
C4    C     C_R   0.389575 0.494955 0.500745 0.915567
C5    C     C_R   0.290841 0.537838 0.418852 -0.065208
C6    C     C_R   0.327822 0.472224 0.504186 -0.157084
C7    C     C_R   0.305503 0.381267 0.592726 -0.125858
C8    C     C_R   0.246039 0.364209 0.604009 -0.022842
C9    C     C_R   0.209952 0.433233 0.520646 0.195880
C10   C     C_R   0.767701 0.469844 0.395720 -0.026882
C11   C     C_R   0.707705 0.476613 0.387476 -0.122393
C12   C     C_R   0.965236 0.226095 0.503252 -0.115729
C13   C     C_R   0.674634 0.508198 0.501780 -0.171533
C14   C     C_R   0.703008 0.538379 0.622313 -0.097026
C15   C     C_R   0.762039 0.520055 0.632289 -0.062413
C16   C     C_R   0.500615 0.736994 0.499392 0.944363
C17   C     C_R   0.794131 0.487586 0.519508 0.182953
C18   C     C_2   0.492305 0.937707 0.397259 -0.134970
C19   C     C_2   0.513701 0.865536 0.494714 -0.287741
C20   C     C_2   0.509765 0.065071 0.392128 -0.097592
C21   C     C_2   0.494965 0.132924 0.498005 -0.368339
C22   C     C_2   0.493105 0.596204 0.927581 -0.078022
C23   C     C_R   0.025510 0.217521 0.503544 -0.082555
C24   C     C_2   0.514785 0.591578 0.067422 -0.102743
C25   C     C_R   0.611069 0.503501 0.499759 0.914869
C26   C     C_R   0.887071 0.575391 0.555213 0.593177
C27   C     C_R   0.878019 0.357532 0.522414 0.530598
C28   C     C_R   0.937950 0.341868 0.526806 -0.050967
C29   C     C_R   0.971521 0.447060 0.557355 -0.007019
C30   C     C_R   0.945280 0.563189 0.583287 -0.090289
C31   C     C_1   0.932358 0.114516 0.478380 0.398571
C32   C     C_1   0.681114 0.454325 0.260066 0.366685
C33   C     C_2   0.672443 0.595688 0.736815 0.970350
C34   C     C_R   0.058861 0.325693 0.523453 -0.086277
C35   C     C_1   0.790711 0.536251 0.758539 0.302007
C36   C     C_2   0.442962 0.904089 0.312782 1.063699
C37   C     C_1   0.557254 0.908486 0.586400 0.300802
C38   C     C_2   0.546832 0.106182 0.279585 0.987885
C39   C     C_2   0.457965 0.702196 0.882570 1.014640
C40   C     C_2   0.558686 0.684686 0.105140 1.019033
C41   C     C_2   0.052620 0.093255 0.492428 1.045585
C42   C     C_1   0.458819 0.417921 0.106507 0.331205
C43   C     C_2   0.953530 0.777470 0.689526 1.014581
C44   C     C_2   0.310478 0.638314 0.328943 0.955526
C45   C     C_R   0.031506 0.437775 0.558767 -0.002093
C46   C     C_1   0.343469 0.307061 0.674062 0.296721
C47   C     C_2   0.221400 0.278344 0.705272 0.973857
C48   C     C_2   0.803455 0.443930 0.275666 0.946883
C49   C     C_R   0.064334 0.542418 0.592452 -0.034135
C50   C     C_R   0.037760 0.652397 0.631600 -0.182408
C51   C     C_R   0.978537 0.663713 0.630182 -0.045134
C52   C     C_R   0.118836 0.328304 0.504835 0.566029
H1    H     H_    0.472529 0.091296 0.582143 0.179258
H2    H     H_    0.061748 0.935594 0.387483 0.363906
H3    H     H_    0.893419 0.852478 0.809424 0.364338
H4    H     H_    0.300310 0.728421 0.154963 0.358436
H5    H     H_    0.223630 0.110012 0.792311 0.375058
H6    H     H_    0.815499 0.341915 0.110121 0.362803
H7    H     H_    0.525428 0.431260 0.890861 0.183178
H8    H     H_    0.063209 0.730206 0.664715 0.228692
H9    H     H_    0.203402 0.566107 0.363377 0.185662
H10   H     H_    0.652444 0.588666 0.931595 0.348538
H11   H     H_    0.412369 0.804966 0.159718 0.354160
H12   H     H_    0.613936 0.208198 0.217145 0.354091
H13   H     H_    0.391317 0.761116 0.773311 0.346050
H14   H     H_    0.605535 0.833750 0.050861 0.367893
N1    N     N_R   0.854754 0.473041 0.531629 -0.343907
N2    N     N_1   0.373725 0.247924 0.738872 -0.134687
N3    N     N_R   0.149359 0.431068 0.538927 -0.344203
N4    N     N_2   0.500610 0.501330 0.852150 -0.221564
N5    N     N_2   0.500630 0.501360 0.147810 -0.181292
N6    N     N_1   0.906318 0.025441 0.458288 -0.067227
N7    N     N_1   0.660136 0.436537 0.158095 -0.151597
N8    N     N_1   0.813597 0.548986 0.859146 -0.110226
N9    N     N_1   0.591773 0.942983 0.659297 -0.076731
N10   N     N_1   0.424134 0.348612 0.072729 -0.168747
O1    O     O_R   0.499990 0.319060 0.613040 -0.617035
O2    O     O_R   0.583840 0.500020 0.613040 -0.611533
O3    O     O_R   0.583850 0.500060 0.386900 -0.568822
O4    O     O_2   0.862731 0.688375 0.547117 -0.506580
O5    O     O_2   0.645456 0.691394 0.720792 -0.591278
O6    O     O_R   0.674760 0.540478 0.862321 -0.788304
O7    O     O_2   0.397478 0.957985 0.328589 -0.575736
O8    O     O_R   0.449092 0.817907 0.210644 -0.738239
O9    O     O_2   0.540640 0.060361 0.169622 -0.581203
O10   O     O_R   0.590813 0.191364 0.300727 -0.789349
O11   O     O_2   0.467102 0.806376 0.924349 -0.562647
O12   O     O_2   0.842812 0.259791 0.507403 -0.539774
O13   O     O_R   0.412437 0.682073 0.796361 -0.758700
O14   O     O_2   0.583237 0.677607 0.211220 -0.598027
O15   O     O_R   0.574624 0.777414 0.015049 -0.736886
O16   O     O_2   0.083965 0.056146 0.580706 -0.536726
O17   O     O_R   0.041447 0.018372 0.382519 -0.773901
O18   O     O_2   0.976180 0.877937 0.669788 -0.624806
O19   O     O_R   0.905963 0.768941 0.773964 -0.747563
O20   O     O_2   0.348547 0.708325 0.363430 -0.613952
O21   O     O_R   0.283604 0.656247 0.206778 -0.773143
O22   O     O_2   0.181130 0.311400 0.774704 -0.589597
O23   O     O_2   0.146526 0.231811 0.449090 -0.508707
O24   O     O_R   0.244109 0.159509 0.720753 -0.751171
O25   O     O_2   0.846890 0.504077 0.254701 -0.593334
O26   O     O_R   0.787780 0.350246 0.187450 -0.766940
O27   O     O_2   0.155666 0.632435 0.625558 -0.517847
O28   O     O_R   0.500010 0.319100 0.386900 -0.607474
O29   O     O_R   0.416150 0.499940 0.613100 -0.567010
O30   O     O_R   0.416160 0.499980 0.386960 -0.616582
O31   O     O_R   0.499990 0.680900 0.613100 -0.593079
O32   O     O_R   0.500010 0.680940 0.386960 -0.550545
Zn1   Zn    Zn3+2 0.499990 0.499970 0.650990 1.038320
Zn2   Zn    Zn3+2 0.500010 0.500030 0.349010 1.047505

loop_
_geom_bond_atom_site_label_1
_geom_bond_atom_site_label_2
_ccdc_geom_bond_type
C21   H1    S    
C30   C51   A    
C35   N8    T    
C1    C21   S    
C1    O1    A    
C39   O11   D    
C14   C33   S    
C7    C8    A    
H13   O13   S    
C12   C23   A    
C47   O22   D    
C38   O10   S    
C3    C9    A    
C26   N1    A    
C28   C29   A    
C2    C49   A    
C9    N3    S    
C5    C6    A    
C48   O25   D    
C10   C17   A    
N5    Zn2   S    
C43   O18   D    
C18   C19   D    
H12   O10   S    
H2    O17   S    
C52   N3    A    
C19   C37   S    
C16   O31   A    
C41   O17   S    
C8    C9    A    
C43   O19   S    
H6    O26   S    
C39   O13   S    
C2    N3    A    
C33   O6    S    
H10   O6    S    
C13   C14   A    
O31   Zn1   S    
C13   C25   S    
H4    O21   S    
C15   C35   S    
C3    H9    S    
C17   N1    S    
C38   O9    D    
C25   O2    A    
C7    C46   S    
H3    O19   S    
C32   N7    T    
H5    O24   S    
C4    O30   A    
C26   O4    S    
C47   O24   S    
C29   C45   A    
C46   N2    T    
C29   C30   A    
C44   O20   D    
N4    Zn1   S    
C20   C38   S    
C44   O21   S    
C45   C49   A    
C23   C34   A    
C48   O26   S    
C50   C51   A    
C34   C45   A    
O1    Zn1   S    
C1    O28   A    
C6    C7    A    
C4    C6    S    
C31   N6    T    
C5    C44   S    
C12   C28   A    
C11   C32   S    
C26   C30   A    
C12   C31   S    
C10   C48   S    
C22   C24   S    
O30   Zn2   S    
C15   C17   A    
O29   Zn1   S    
O3    Zn2   S    
C25   O3    A    
C42   N10   T    
C3    C5    A    
H14   O15   S    
C4    O29   A    
C52   O23   S    
C34   C52   A    
C23   C41   S    
H11   O8    S    
C50   H8    S    
C8    C47   S    
O28   Zn2   S    
C11   C13   A    
C43   C51   S    
C33   O5    D    
C2    O27   S    
C36   O8    S    
C16   C19   S    
C22   C39   S    
C42   N5    S    
C24   C40   S    
O32   Zn2   S    
O2    Zn1   S    
C18   C20   S    
C40   O15   S    
C37   N9    T    
C27   O12   S    
C27   N1    A    
C10   C11   A    
C16   O32   A    
H7    N4    S    
C41   O16   D    
C20   C21   D    
C49   C50   A    
C27   C28   A    
C14   C15   A    
C36   O7    D    
C40   O14   D    
C18   C36   S    
C22   N4    D    
C24   N5    D    
