data_mof_unit_3385.cif
_audit_creation_date              2013-03-05T15:59:38-0500
_audit_creation_method            fapswitch 2.2
_symmetry_space_group_name_H-M    P1
_symmetry_Int_Tables_number       1
_space_group_crystal_system       triclinic
_cell_length_a                    15.033317
_cell_length_b                    13.681025
_cell_length_c                    27.743598
_cell_angle_alpha                 90.121527
_cell_angle_beta                  89.872652
_cell_angle_gamma                 89.954469
_cell_volume                      5706.02994377

loop_
_atom_site_label
_atom_site_type_symbol
_atom_site_description
_atom_site_fract_x
_atom_site_fract_y
_atom_site_fract_z
_atom_type_partial_charge
O1    O     O_R   0.370260 0.582280 0.500010 -0.588164
O2    O     O_R   0.629740 0.417720 0.499990 -0.584435
O3    O     O_R   0.629740 0.582280 0.499990 -0.585738
O4    O     O_R   0.370260 0.417720 0.500010 -0.580176
C1    C     C_R   0.328412 0.500175 0.500543 0.806252
C2    C     C_R   0.671577 0.500062 0.500177 0.809175
O5    O     O_R   0.500020 0.582260 0.430260 -0.587955
O6    O     O_R   0.499980 0.417740 0.569740 -0.591438
O7    O     O_R   0.499980 0.582260 0.569740 -0.587523
O8    O     O_R   0.500020 0.417740 0.430260 -0.586108
C3    C     C_R   0.500168 0.499966 0.407310 0.836673
C4    C     C_R   0.499249 0.500199 0.592678 0.823380
Cu1   Cu    Cu3+1 0.500000 0.597420 0.500000 0.939351
Cu2   Cu    Cu3+1 0.500000 0.402580 0.500000 0.942615
C5    C     C_R   0.414719 0.490795 0.178100 0.517398
C6    C     C_R   0.558821 0.554968 0.822110 0.608104
O9    O     O_2   0.340317 0.471965 0.203748 -0.551407
O10   O     O_2   0.627496 0.592370 0.796748 -0.525537
N1    N     N_R   0.494113 0.503490 0.201347 -0.454834
N2    N     N_R   0.490526 0.509360 0.798528 -0.453507
C7    C     C_R   0.571046 0.520608 0.176315 0.607288
C8    C     C_R   0.420801 0.468962 0.823207 0.534392
C9    C     C_R   0.482593 0.415199 0.278043 -0.169980
C10   C     C_R   0.504475 0.418008 0.722562 -0.185406
C11   C     C_R   0.484069 0.413927 0.328284 -0.218430
C12   C     C_R   0.506516 0.415222 0.672308 -0.239890
C13   C     C_R   0.513722 0.588106 0.329149 -0.306138
C14   C     C_R   0.482046 0.590366 0.670098 -0.315572
C15   C     C_R   0.509919 0.590399 0.278655 0.509044
C16   C     C_R   0.476802 0.593116 0.720554 0.503305
C17   C     C_R   0.496089 0.502845 0.253082 0.268472
C18   C     C_R   0.490781 0.506767 0.746802 0.279695
C19   C     C_R   0.487951 0.519046 0.101447 -0.049393
C20   C     C_R   0.486193 0.523160 0.898569 -0.047406
C21   C     C_R   0.410059 0.498812 0.127703 -0.015790
C22   C     C_R   0.557753 0.563121 0.872559 -0.032588
C23   C     C_R   0.328697 0.492055 0.103516 -0.230427
C24   C     C_R   0.624531 0.613991 0.897106 -0.229563
C25   C     C_R   0.569431 0.528999 0.125934 -0.042544
C26   C     C_R   0.417399 0.474846 0.873707 -0.021700
C27   C     C_R   0.499440 0.500443 0.354248 -0.095550
C28   C     C_R   0.496116 0.501613 0.645698 -0.094893
H1    H     H_    0.528633 0.654804 0.348618 0.158489
H2    H     H_    0.474684 0.657742 0.650113 0.159621
H3    H     H_    0.267578 0.483877 0.123946 0.182797
H4    H     H_    0.676212 0.651236 0.876941 0.180570
C29   C     C_R   0.408653 0.495593 0.975154 0.069620
C30   C     C_R   0.562486 0.555048 0.024891 0.068217
C31   C     C_R   0.557178 0.571285 0.974424 0.031030
C32   C     C_R   0.404098 0.509442 0.025897 0.031784
C33   C     C_R   0.483824 0.530541 0.949460 0.039445
C34   C     C_R   0.484670 0.528322 0.050673 0.039085
C35   C     C_R   0.343889 0.441764 0.949711 -0.125075
C36   C     C_R   0.644094 0.557550 0.049855 -0.122161
C37   C     C_R   0.347544 0.432684 0.899783 -0.142919
C38   C     C_R   0.647370 0.545992 0.099610 -0.135080
O11   O     O_2   0.354524 0.424370 0.798916 -0.552314
O12   O     O_2   0.648749 0.529733 0.200171 -0.513170
C39   C     C_R   0.324044 0.501613 0.053368 -0.024110
C40   C     C_R   0.623030 0.622571 0.947356 -0.024573
H5    H     H_    0.517402 0.345840 0.654354 0.168145
H6    H     H_    0.472999 0.345344 0.346771 0.169497
H7    H     H_    0.514223 0.351254 0.742781 0.163377
H8    H     H_    0.471138 0.347934 0.258384 0.165521
H9    H     H_    0.295564 0.391917 0.881744 0.184689
H10   H     H_    0.711399 0.550162 0.117324 0.187775
H11   H     H_    0.291269 0.403201 0.968196 0.144400
H12   H     H_    0.706721 0.565299 0.031076 0.144220
C41   C     C_R   0.814426 0.586620 0.491278 -0.175123
C42   C     C_R   0.185698 0.419892 0.520741 -0.187874
C43   C     C_R   0.768404 0.501123 0.502764 -0.096802
C44   C     C_R   0.231586 0.501650 0.503763 -0.095620
C45   C     C_R   0.814343 0.418810 0.518999 -0.186197
C46   C     C_R   0.185501 0.587070 0.492037 -0.186584
C47   C     C_R   0.906664 0.421670 0.525070 -0.028537
C48   C     C_R   0.093137 0.591750 0.496698 -0.029686
C49   C     C_R   0.953308 0.507420 0.511890 -0.060688
C50   C     C_R   0.046502 0.507750 0.512319 -0.059056
C51   C     C_R   0.906759 0.591122 0.495824 -0.027383
C52   C     C_R   0.093175 0.422561 0.526234 -0.028858
C53   C     C_R   0.953158 0.340271 0.543764 0.351867
C54   C     C_R   0.046468 0.677993 0.484853 0.356172
C55   C     C_R   0.046479 0.341221 0.544827 0.351670
C56   C     C_R   0.953214 0.677472 0.484003 0.352028
H13   H     H_    0.777799 0.649384 0.478240 0.178388
H14   H     H_    0.222553 0.354476 0.529914 0.178405
H15   H     H_    0.777505 0.353129 0.527567 0.180387
H16   H     H_    0.222011 0.649146 0.478133 0.182820
C57   C     C_R   0.453777 0.793485 0.534766 0.004626
C58   C     C_R   0.546773 0.206507 0.465425 0.011685
C59   C     C_R   0.546636 0.793089 0.465357 0.001577
C60   C     C_R   0.453893 0.206820 0.534838 0.003692
N3    N     N_R   0.500000 0.743810 0.500000 -0.179363
N4    N     N_R   0.500000 0.256190 0.500000 -0.182929
C61   C     C_R   0.547552 0.896155 0.464425 -0.006778
C62   C     C_R   0.453533 0.103731 0.535930 0.003232
C63   C     C_R   0.453427 0.896515 0.535837 0.003530
C64   C     C_R   0.547771 0.103415 0.464528 -0.015414
C65   C     C_R   0.500524 0.948134 0.500145 0.093198
C66   C     C_R   0.500586 0.051786 0.500189 0.085096
C67   C     C_R   0.594380 0.948237 0.428878 -0.212609
C68   C     C_R   0.407582 0.051534 0.571768 -0.208088
C69   C     C_R   0.407456 0.948877 0.571665 -0.222145
C70   C     C_R   0.594613 0.050959 0.428977 -0.198871
H17   H     H_    0.417246 0.752795 0.561741 0.120173
H18   H     H_    0.583297 0.247253 0.438478 0.133276
H19   H     H_    0.583241 0.752059 0.438437 0.125436
H20   H     H_    0.417368 0.247778 0.561823 0.125752
H21   H     H_    0.631112 0.909552 0.401131 0.147107
H22   H     H_    0.371975 0.089914 0.599960 0.141589
H23   H     H_    0.371211 0.910382 0.599508 0.143255
H24   H     H_    0.631428 0.089339 0.401263 0.148700
O13   O     O_3   0.908678 0.255530 0.556670 -0.578813
C71   C     C_3   0.869791 0.267263 0.602857 0.036912
H25   H     H_    0.841706 0.341853 0.608802 0.128807
H26   H     H_    0.920472 0.253433 0.631044 0.144871
C72   C     C_3   0.794754 0.192780 0.608624 -0.316453
H27   H     H_    0.746871 0.200535 0.578383 0.223562
H28   H     H_    0.823076 0.117778 0.607438 0.222910
C73   C     C_3   0.745074 0.206853 0.656172 -0.910865
H29   H     H_    0.791422 0.198830 0.687041 0.259624
H30   H     H_    0.691985 0.150839 0.659389 0.258698
H31   H     H_    0.713723 0.280394 0.657510 0.258064
O14   O     O_3   0.090931 0.761464 0.470255 -0.575525
C74   C     C_3   0.119591 0.814096 0.511368 0.031719
H32   H     H_    0.182311 0.782172 0.525515 0.135902
H33   H     H_    0.069442 0.813467 0.541056 0.109970
C75   C     C_3   0.137295 0.919984 0.496809 -0.280544
H34   H     H_    0.193189 0.922094 0.470525 0.224011
H35   H     H_    0.077102 0.950677 0.479196 0.239831
C76   C     C_3   0.160614 0.983111 0.540345 -0.911573
H36   H     H_    0.103116 0.987191 0.565489 0.257175
H37   H     H_    0.177308 0.058198 0.528205 0.283634
H38   H     H_    0.218721 0.952220 0.559631 0.250797
O15   O     O_3   0.091327 0.258807 0.560589 -0.581885
C77   C     C_3   0.125261 0.276204 0.607414 0.045785
H39   H     H_    0.071052 0.269883 0.634444 0.138670
H40   H     H_    0.155886 0.350058 0.611163 0.129365
C78   C     C_3   0.196424 0.199823 0.618520 -0.350092
H41   H     H_    0.165549 0.126117 0.619292 0.232591
H42   H     H_    0.247695 0.201088 0.589624 0.212386
C79   C     C_3   0.241048 0.219428 0.666948 -0.898220
H43   H     H_    0.275681 0.291138 0.666347 0.264684
H44   H     H_    0.290831 0.161386 0.674314 0.248899
H45   H     H_    0.190852 0.219318 0.696388 0.266438
O16   O     O_3   0.908454 0.758434 0.466387 -0.574580
C80   C     C_3   0.876690 0.815742 0.505299 0.030092
H46   H     H_    0.931201 0.862551 0.519161 0.158922
H47   H     H_    0.850100 0.770556 0.535534 0.124144
C81   C     C_3   0.802019 0.882045 0.487279 -0.298023
H48   H     H_    0.827352 0.928526 0.457438 0.236764
H49   H     H_    0.746831 0.836317 0.473169 0.211810
C82   C     C_3   0.766556 0.947698 0.527525 -0.903917
H50   H     H_    0.737503 0.902808 0.556923 0.255506
H51   H     H_    0.714013 0.996581 0.513173 0.269298
H52   H     H_    0.820988 0.993637 0.542252 0.258340
O17   O     O_3   0.528243 0.675599 0.253592 -0.588844
C83   C     C_3   0.460139 0.745653 0.260944 0.028924
H53   H     H_    0.488860 0.818564 0.252759 0.187030
H54   H     H_    0.436138 0.749378 0.298926 0.127276
C84   C     C_3   0.382058 0.727252 0.226668 -0.353951
H55   H     H_    0.407244 0.720411 0.189101 0.239645
H56   H     H_    0.348465 0.657987 0.236732 0.242447
C85   C     C_3   0.314171 0.810063 0.229084 -0.858225
H57   H     H_    0.287416 0.817391 0.266275 0.258752
H58   H     H_    0.258206 0.793988 0.204254 0.267563
H59   H     H_    0.345320 0.880172 0.218071 0.256678
O18   O     O_3   0.465227 0.680665 0.745045 -0.594488
C86   C     C_3   0.383130 0.725247 0.732905 0.049796
H60   H     H_    0.343311 0.732188 0.766534 0.177926
H61   H     H_    0.341485 0.682774 0.706946 0.118941
C87   C     C_3   0.400410 0.827579 0.712790 -0.324819
H62   H     H_    0.438491 0.871021 0.739622 0.241611
H63   H     H_    0.440845 0.822050 0.679325 0.208303
C88   C     C_3   0.313589 0.880640 0.701472 -0.939535
H64   H     H_    0.275552 0.839969 0.673620 0.248104
H65   H     H_    0.328460 0.954933 0.687566 0.255882
H66   H     H_    0.272313 0.887917 0.734544 0.268752
C89   C     C_2   0.233991 0.517441 0.033036 0.343091
H67   H     H_    0.176309 0.485844 0.050702 0.072729
O19   O     O_2   0.222696 0.570433 0.998211 -0.513787
C90   C     C_2   0.683359 0.696976 0.968426 0.349225
H68   H     H_    0.745854 0.714011 0.950662 0.073580
O20   O     O_2   0.661717 0.743943 0.004055 -0.509282

loop_
_geom_bond_atom_site_label_1
_geom_bond_atom_site_label_2
_geom_bond_distance
_ccdc_geom_bond_type
O17   C83   1.416012 S    
C62   C68   1.405888 A    
C13   C15   1.402592 A    
C45   C47   1.399016 A    
C86   H60   1.111257 S    
C80   H46   1.109388 S    
C76   H38   1.109242 S    
N1    C17   1.435746 S    
C75   H34   1.111778 S    
C8    O11   1.349564 S    
C84   H55   1.111854 S    
O15   C77   1.416470 S    
C88   H65   1.110648 S    
C49   C50   1.401101 A    
C73   H29   1.110828 S    
C19   C34   1.415595 A    
C5    N1    1.368937 A    
C20   C33   1.415649 A    
C19   C25   1.408568 A    
C31   C40   1.427000 A    
C46   C48   1.395665 A    
O1    C1    1.287989 A    
C32   C39   1.427291 A    
C85   H57   1.110921 S    
C21   C23   1.399453 A    
C12   H5    1.083180 S    
C48   C50   1.414935 A    
O16   C80   1.414814 S    
C1    C44   1.458273 S    
C72   H28   1.111015 S    
C51   C56   1.411675 A    
C78   C79   1.526388 S    
C50   C52   1.414748 A    
C36   H12   1.080410 S    
C61   C65   1.407385 A    
C67   H21   1.083309 S    
C60   C62   1.410764 A    
C69   H23   1.082243 S    
C63   C65   1.407546 A    
C5    C21   1.404613 A    
C41   C43   1.396524 A    
O7    Cu1   1.946357 S    
C90   H68   1.085664 S    
C45   H15   1.082479 S    
C4    C28   1.471687 S    
C83   C84   1.532930 S    
C84   H56   1.110049 S    
O18   C86   1.417819 S    
C60   H20   1.082547 S    
C29   C33   1.418637 A    
C88   H64   1.110991 S    
C87   H63   1.111007 S    
C14   C16   1.402290 A    
C31   C33   1.417456 A    
C81   C82   1.526455 S    
C74   C75   1.528141 S    
C32   C34   1.417677 A    
C38   H10   1.083235 S    
C82   H51   1.109688 S    
C55   O15   1.385373 S    
O3    Cu1   1.961224 S    
C87   C88   1.526566 S    
O6    C4    1.294090 A    
C29   C35   1.410865 A    
O3    C2    1.288314 A    
C49   C51   1.414913 A    
Cu1   Cu2   2.665610 S    
C83   H54   1.114106 S    
C86   H61   1.117622 S    
C79   H45   1.110786 S    
O2    C2    1.290652 A    
C77   C78   1.527239 S    
C35   H11   1.080335 S    
C54   O14   1.384512 S    
C53   C55   1.403368 A    
C73   H30   1.110476 S    
C58   N4    1.367496 A    
C29   C32   1.421579 A    
C35   C37   1.391442 A    
C40   C90   1.483816 S    
C2    C43   1.457636 S    
C36   C38   1.390720 A    
C42   C52   1.399345 A    
C59   H19   1.082415 S    
C80   C81   1.528302 S    
C58   H18   1.082399 S    
C44   C46   1.397449 A    
O8    Cu2   1.946363 S    
C72   C73   1.526213 S    
C11   C27   1.403848 A    
C43   C45   1.396526 A    
C88   H66   1.110762 S    
C47   C53   1.414389 A    
C15   O17   1.386050 S    
C14   H2    1.082425 S    
C57   C63   1.409812 A    
C9    C17   1.400643 A    
C30   C36   1.410578 A    
C10   C18   1.401690 A    
N1    C7    1.368327 A    
C59   N3    1.367591 A    
C53   O13   1.386124 S    
C13   C27   1.404516 A    
O5    C3    1.292257 A    
C65   C66   1.418065 A    
C7    C25   1.402945 A    
C30   C34   1.418417 A    
C6    N2    1.368871 A    
C26   C37   1.399386 A    
C8    C26   1.404007 A    
C60   N4    1.367981 A    
C25   C38   1.399155 A    
C63   C69   1.404285 A    
C82   H52   1.110296 S    
C47   C49   1.415513 A    
C23   C39   1.399580 A    
C24   C40   1.398954 A    
C77   H40   1.115430 S    
C30   C31   1.420542 A    
N2    C8    1.368332 A    
C67   C70   1.405346 A    
C54   C56   1.402194 A    
C74   H32   1.111554 S    
C86   C87   1.530420 S    
C81   H49   1.110940 S    
C68   H22   1.081638 S    
O1    Cu1   1.961553 S    
C48   C54   1.411999 A    
C76   H36   1.110830 S    
C42   H14   1.083286 S    
C75   C76   1.524999 S    
C84   C85   1.525493 S    
C41   H13   1.082963 S    
C87   H62   1.111620 S    
C12   C28   1.403677 A    
C70   H24   1.083261 S    
O13   C71   1.416018 S    
N2    C18   1.435403 S    
C5    O9    1.349618 S    
C9    H8    1.082837 S    
O6    Cu2   1.945482 S    
C14   C28   1.404580 A    
C80   H47   1.116544 S    
C37   H9    1.083243 S    
C85   H59   1.110834 S    
C10   C12   1.394944 A    
O4    C1    1.291247 A    
C76   H37   1.110502 S    
C75   H35   1.111836 S    
C71   H26   1.109465 S    
C78   H41   1.110630 S    
C73   H31   1.111209 S    
C71   H25   1.115846 S    
C56   O16   1.386033 S    
C10   H7    1.082837 S    
C64   C66   1.407685 A    
C81   H48   1.111761 S    
C57   H17   1.082585 S    
C85   H58   1.110403 S    
C16   O18   1.386463 S    
C7    O12   1.349633 S    
C15   C17   1.406714 A    
O4    Cu2   1.961226 S    
C72   H27   1.111876 S    
C6    C22   1.403885 A    
C22   C24   1.399311 A    
C16   C18   1.404989 A    
C78   H42   1.111048 S    
C83   H53   1.110952 S    
C64   C70   1.405999 A    
C62   C66   1.407728 A    
C39   C89   1.483684 S    
C52   C55   1.413971 A    
C19   C21   1.405698 A    
C20   C22   1.405737 A    
C58   C64   1.410640 A    
C3    C27   1.472227 S    
C79   H44   1.110331 S    
C11   H6    1.083063 S    
C9    C11   1.394252 A    
C57   N3    1.366951 A    
C68   C69   1.404447 A    
O2    Cu2   1.961552 S    
O7    C4    1.291719 A    
C90   O20   1.221215 D    
C24   H4    1.084511 S    
C71   C72   1.529120 S    
C41   C51   1.395469 A    
O8    C3    1.293800 A    
C59   C61   1.410412 A    
C89   H67   1.085654 S    
C13   H1    1.083239 S    
O5    Cu1   1.945488 S    
C6    O10   1.349794 S    
Cu1   N3    2.002765 S    
C74   H33   1.115410 S    
C79   H43   1.111159 S    
C20   C26   1.408753 A    
C42   C44   1.396743 A    
C46   H16   1.082808 S    
C82   H50   1.110913 S    
C23   H3    1.084488 S    
Cu2   N4    2.002765 S    
C77   H39   1.109785 S    
C61   C67   1.405906 A    
O14   C74   1.415762 S    
C89   O19   1.221218 D    
