data_mof_unit_291.cif
_audit_creation_date              2012-12-10T19:45:40-0500
_audit_creation_method            fapswitch 2.2
_symmetry_space_group_name_H-M    P1
_symmetry_Int_Tables_number       1
_space_group_crystal_system       triclinic
_cell_length_a                    10.832513
_cell_length_b                    14.680917
_cell_length_c                    14.708408
_cell_angle_alpha                 65.219301
_cell_angle_beta                  103.438135
_cell_angle_gamma                 102.943733
_cell_volume                      2044.23211586

loop_
_atom_site_label
_atom_site_type_symbol
_atom_type_description
_atom_site_fract_x
_atom_site_fract_y
_atom_site_fract_z
_atom_type_partial_charge
C1    C     C_R   0.478972 0.119683 0.312234 0.792402
C2    C     C_R   0.522564 0.880360 0.687781 0.791898
C3    C     C_R   0.870651 0.000931 0.495897 -0.081259
C4    C     C_R   0.129396 0.998195 0.504991 -0.081872
C5    C     C_R   0.906648 0.952996 0.442303 -0.003148
C6    C     C_R   0.093452 0.045243 0.559388 -0.001666
C7    C     C_R   0.474166 0.187333 0.204880 -0.052454
C8    C     C_R   0.541678 0.812944 0.795356 -0.051856
C9    C     C_R   0.456256 0.216007 0.028369 -0.202208
C10   C     C_R   0.601050 0.784922 0.973010 -0.204336
C11   C     C_R   0.452466 0.149447 0.128808 -0.207313
C12   C     C_R   0.582498 0.851216 0.871734 -0.206518
C13   C     C_R   0.497439 0.292052 0.179382 -0.251408
C14   C     C_R   0.521472 0.708237 0.821123 -0.256578
C15   C     C_R   0.506557 0.360731 0.079412 0.088550
C16   C     C_R   0.544664 0.639956 0.922195 0.089291
C17   C     C_R   0.483111 0.321080 0.003107 0.166634
C18   C     C_R   0.581450 0.679807 0.998813 0.168173
C19   C     C_R   0.535908 0.467418 0.053152 0.064063
C20   C     C_R   0.528778 0.533342 0.949086 0.064096
C21   C     C_R   0.508491 0.490617 0.875558 -0.222631
C22   C     C_R   0.574493 0.510335 0.127365 -0.222958
C23   C     C_R   0.262849 0.998925 0.502628 0.793513
C24   C     C_R   0.737184 0.000890 0.497576 0.794035
C25   C     C_R   0.486783 0.386520 0.902454 -0.231827
C26   C     C_R   0.597982 0.614497 0.100334 -0.233216
C27   C     C_R   0.708411 0.282502 0.672480 -0.328131
C28   C     C_R   0.290770 0.717064 0.328157 -0.325124
C29   C     C_R   0.677215 0.201738 0.641325 0.078293
C30   C     C_R   0.322402 0.798060 0.358960 0.078505
C31   C     C_R   0.520027 0.285856 0.507970 0.028537
C32   C     C_R   0.479937 0.714122 0.492110 0.030292
C33   C     C_R   0.547848 0.371237 0.535297 -0.023656
C34   C     C_R   0.451619 0.628480 0.465179 -0.022378
C35   C     C_R   0.643763 0.367143 0.620221 0.162212
C36   C     C_R   0.355368 0.632403 0.380491 0.162071
C37   C     C_R   0.483357 0.458946 0.483032 0.063370
C38   C     C_R   0.515898 0.540663 0.517613 0.066214
C39   C     C_R   0.611270 0.531675 0.603450 -0.249513
C40   C     C_R   0.387654 0.467773 0.397419 -0.244401
C41   C     C_R   0.673814 0.446852 0.653212 -0.208297
C42   C     C_R   0.324896 0.552483 0.347805 -0.202468
C43   C     C_R   0.357418 0.074127 0.769708 -0.119737
C44   C     C_R   0.648945 0.918651 0.230646 -0.123977
C45   C     C_R   0.265496 0.030170 0.710173 -0.095123
C46   C     C_R   0.736933 0.964349 0.290683 -0.096380
C47   C     C_R   0.187158 0.090571 0.625538 0.122220
C48   C     C_R   0.813484 0.905424 0.377781 0.124387
C49   C     C_R   0.199862 0.194853 0.603071 -0.156215
C50   C     C_R   0.802049 0.800698 0.402903 -0.154001
C51   C     C_R   0.291579 0.238362 0.663115 -0.132541
C52   C     C_R   0.713959 0.755422 0.342600 -0.136772
C53   C     C_R   0.370965 0.178190 0.745815 -0.113214
C54   C     C_R   0.637034 0.814263 0.256839 -0.120123
C55   C     C_R   0.964169 0.046953 0.553061 -0.236956
C56   C     C_R   0.035938 0.951919 0.448133 -0.237788
Cu1   Cu    Cu3+1 0.466270 0.918260 0.475690 0.940755
Cu2   Cu    Cu3+1 0.533730 0.081740 0.524310 0.940545
H1    H     H_    0.443344 0.212232 0.791113 0.113744
H2    H     H_    0.568235 0.778985 0.210679 0.121625
H3    H     H_    0.438697 0.185269 0.970470 0.127234
H4    H     H_    0.630774 0.815824 0.031227 0.130828
H5    H     H_    0.512523 0.535525 0.796366 0.142105
H6    H     H_    0.591405 0.465680 0.207546 0.144483
H7    H     H_    0.746400 0.443476 0.718774 0.145837
H8    H     H_    0.251888 0.555655 0.282527 0.144040
H9    H     H_    0.554299 0.719301 0.553213 0.121570
H10   H     H_    0.446004 0.280832 0.446628 0.121380
H11   H     H_    0.273698 0.863974 0.317938 0.121152
H12   H     H_    0.725865 0.135796 0.682365 0.120519
H13   H     H_    0.639911 0.589005 0.634782 0.132680
H14   H     H_    0.358746 0.410337 0.366233 0.134410
H15   H     H_    0.418554 0.027624 0.834095 0.114165
H16   H     H_    0.590146 0.964114 0.163652 0.113649
H17   H     H_    0.256630 0.949565 0.728922 0.103550
H18   H     H_    0.745068 0.045287 0.269739 0.107052
H19   H     H_    0.140382 0.242572 0.538152 0.129618
H20   H     H_    0.860398 0.754130 0.469646 0.129746
H21   H     H_    0.302205 0.318948 0.644821 0.138617
H22   H     H_    0.704763 0.674605 0.362683 0.138160
H23   H     H_    0.936475 0.081830 0.595926 0.155668
H24   H     H_    0.063653 0.916946 0.405359 0.156230
H25   H     H_    0.471591 0.357193 0.843653 0.142019
H26   H     H_    0.627800 0.644057 0.159591 0.140487
H27   H     H_    0.599483 0.932081 0.853339 0.146208
H28   H     H_    0.432834 0.068665 0.146888 0.147517
N1    N     N_R   0.584450 0.204570 0.560790 -0.173614
N2    N     N_R   0.415550 0.795430 0.439210 -0.174269
O1    O     O_R   0.455540 0.022090 0.338120 -0.588221
O2    O     O_R   0.544460 0.977910 0.661880 -0.588629
O3    O     O_R   0.512510 0.160150 0.379180 -0.592617
O4    O     O_R   0.487490 0.839850 0.620820 -0.592693
O5    O     O_R   0.291160 0.930970 0.479480 -0.588905
O6    O     O_R   0.708840 0.069030 0.520520 -0.588516
O7    O     O_R   0.348130 0.069020 0.520540 -0.571161
O8    O     O_R   0.651870 0.930980 0.479460 -0.571911
H29   H     H_    0.781929 0.278441 0.737620 0.138119
H30   H     H_    0.216917 0.720942 0.263250 0.137843
H31   H     H_    0.484393 0.681502 0.760856 0.150871
H32   H     H_    0.506045 0.318257 0.239051 0.147398

loop_
_geom_bond_atom_site_label_1
_geom_bond_atom_site_label_2
_ccdc_geom_bond_type
C43   H15   S    
Cu1   O4    S    
C27   C29   A    
C5    C56   A    
C36   C42   A    
C19   C20   A    
C18   C26   A    
C6    C55   A    
Cu2   N1    S    
C46   H18   S    
C53   H1    S    
C14   H31   S    
C39   C41   A    
C54   H2    S    
C29   N1    A    
C15   C19   A    
Cu1   O1    S    
C12   H27   S    
C23   O7    A    
C9    H3    S    
C37   C40   A    
C24   O8    A    
C38   C39   A    
C11   H28   S    
C28   H30   S    
C32   N2    A    
C2    O2    A    
C3    C55   A    
C43   C53   A    
C52   C54   A    
C49   C51   A    
Cu1   O8    S    
C50   C52   A    
C31   C33   A    
C55   H23   S    
Cu2   O3    S    
C34   C36   A    
C8    C12   A    
C40   C42   A    
C1    O3    A    
C1    C7    S    
C4    C56   A    
C3    C24   S    
C10   H4    S    
C50   H20   S    
C44   C46   A    
C45   C47   A    
C31   H10   S    
C5    C48   S    
C46   C48   A    
C31   N1    A    
C6    C47   S    
C44   H16   S    
C19   C22   A    
C47   C49   A    
C4    C23   S    
C41   H7    S    
C27   C35   A    
C33   C37   A    
C23   O5    A    
C51   C53   A    
C32   C34   A    
C7    C11   A    
Cu2   O7    S    
C37   C38   A    
C24   O6    A    
C9    C11   A    
C16   C20   A    
C2    O4    A    
C43   C45   A    
C10   C12   A    
Cu2   O2    S    
C32   H9    S    
C4    C6    A    
C13   C15   A    
C8    C14   A    
C30   N2    A    
C30   H11   S    
C25   H25   S    
C29   H12   S    
C9    C17   A    
C15   C17   A    
C21   C25   A    
C27   H29   S    
C1    O1    A    
C40   H14   S    
C34   C38   A    
C2    C8    S    
C3    C5    A    
C56   H24   S    
Cu1   N2    S    
C45   H17   S    
C17   C25   A    
C13   H32   S    
C28   C30   A    
Cu2   O6    S    
C26   H26   S    
Cu1   Cu2   S    
C10   C18   A    
C48   C50   A    
C33   C35   A    
C49   H19   S    
C14   C16   A    
C35   C41   A    
C51   H21   S    
C21   H5    S    
C22   H6    S    
C44   C54   A    
C7    C13   A    
C20   C21   A    
C28   C36   A    
C16   C18   A    
C22   C26   A    
C42   H8    S    
C39   H13   S    
Cu1   O5    S    
C52   H22   S    
