data_mof_unit_2673.cif
_audit_creation_date              2012-12-10T17:52:07-0500
_audit_creation_method            fapswitch 2.2
_symmetry_space_group_name_H-M    P1
_symmetry_Int_Tables_number       1
_space_group_crystal_system       triclinic
_cell_length_a                    14.722412
_cell_length_b                    14.744488
_cell_length_c                    19.362863
_cell_angle_alpha                 76.362787
_cell_angle_beta                  103.289947
_cell_angle_gamma                 114.907002
_cell_volume                      3663.89703533

loop_
_atom_site_label
_atom_site_type_symbol
_atom_type_description
_atom_site_fract_x
_atom_site_fract_y
_atom_site_fract_z
_atom_type_partial_charge
C1    C     C_R   0.880347 0.312312 0.511481 0.802710
C2    C     C_R   0.119671 0.687708 0.487532 0.803465
C3    C     C_R   0.812746 0.205153 0.513126 -0.052916
C4    C     C_R   0.187226 0.795253 0.478043 -0.052096
C5    C     C_R   0.783254 0.030614 0.514468 -0.197132
C6    C     C_R   0.215608 0.972903 0.453751 -0.197641
C7    C     C_R   0.850175 0.130358 0.518797 -0.190276
C8    C     C_R   0.149320 0.871641 0.461308 -0.188552
C9    C     C_R   0.708264 0.178981 0.504323 -0.246877
C10   C     C_R   0.291618 0.821148 0.485714 -0.252724
C11   C     C_R   0.639055 0.080065 0.496347 0.090998
C12   C     C_R   0.359907 0.922628 0.476253 0.090255
C13   C     C_R   0.678275 0.004996 0.503067 0.162905
C14   C     C_R   0.320375 0.998905 0.461938 0.164317
C15   C     C_R   0.532376 0.053692 0.482681 0.064754
C16   C     C_R   0.466285 0.950157 0.482870 0.065613
C17   C     C_R   0.508606 0.877954 0.488374 -0.217669
C18   C     C_R   0.489605 0.127522 0.467224 -0.218639
C19   C     C_R   0.612540 0.905283 0.497877 -0.225715
C20   C     C_R   0.385639 0.100346 0.456408 -0.224458
C21   C     C_R   0.712959 0.667233 0.379980 -0.365433
C22   C     C_R   0.287216 0.333071 0.620216 -0.362664
C23   C     C_R   0.000059 0.499831 0.632552 0.800979
C24   C     C_R   0.999928 0.500146 0.367450 0.800809
C25   C     C_R   0.795218 0.638037 0.398394 0.377349
C26   C     C_R   0.204726 0.361905 0.601555 0.376623
C27   C     C_R   0.715323 0.509611 0.490493 -0.047750
C28   C     C_R   0.284850 0.490686 0.509694 -0.046551
C29   C     C_R   0.628739 0.535270 0.473622 -0.023148
C30   C     C_R   0.371623 0.465333 0.526765 -0.023700
C31   C     C_R   0.630187 0.616793 0.417450 0.139690
C32   C     C_R   0.370208 0.383860 0.582975 0.138820
C33   C     C_R   0.541810 0.484103 0.510275 0.084137
C34   C     C_R   0.458676 0.516697 0.490244 0.087163
C35   C     C_R   0.465605 0.599641 0.434629 -0.241750
C36   C     C_R   0.535010 0.401349 0.566031 -0.238540
C37   C     C_R   0.549402 0.648096 0.398969 -0.190052
C38   C     C_R   0.451216 0.352895 0.601693 -0.182274
C39   C     C_R   0.077012 0.479819 0.760956 -0.145626
C40   C     C_R   0.922824 0.519890 0.239069 -0.145264
C41   C     C_R   0.079926 0.479581 0.833505 0.159241
C42   C     C_R   0.919877 0.520065 0.166526 0.159204
C43   C     C_R   0.004992 0.499280 0.854883 0.015026
C44   C     C_R   0.994887 0.500490 0.145139 0.015200
C45   C     C_R   0.928660 0.517968 0.802365 -0.182986
C46   C     C_R   0.071316 0.481975 0.197649 -0.183321
C47   C     C_R   0.926872 0.518442 0.730062 -0.193239
C48   C     C_R   0.073140 0.481570 0.269945 -0.193337
C49   C     C_R   0.001129 0.499527 0.708758 -0.090774
C50   C     C_R   0.998819 0.500378 0.291253 -0.089864
C51   C     C_R   0.997100 0.500791 0.069337 0.404801
C52   C     C_R   0.002771 0.498951 0.930687 0.404809
Cu1   Cu    Cu3+1 0.081740 0.475680 0.518680 0.958867
Cu2   Cu    Cu3+1 0.918260 0.524320 0.481320 0.959069
H1    H     H_    0.134722 0.464301 0.745630 0.167669
H2    H     H_    0.865047 0.535297 0.254402 0.167479
H3    H     H_    0.551049 0.711251 0.356378 0.146542
H4    H     H_    0.449692 0.289921 0.644419 0.145558
H5    H     H_    0.278513 0.550105 0.466791 0.131110
H6    H     H_    0.721654 0.450173 0.533375 0.131129
H7    H     H_    0.714171 0.729402 0.336599 0.142798
H8    H     H_    0.286000 0.270890 0.663588 0.142826
H9    H     H_    0.407301 0.629475 0.417207 0.130559
H10   H     H_    0.593431 0.371685 0.583594 0.132569
H11   H     H_    0.870478 0.533279 0.817190 0.159050
H12   H     H_    0.129556 0.466755 0.182822 0.158751
H13   H     H_    0.867265 0.533554 0.690931 0.158931
H14   H     H_    0.132828 0.466601 0.309067 0.158553
H15   H     H_    0.641641 0.847592 0.501583 0.151366
H16   H     H_    0.356191 0.159368 0.444624 0.148814
H17   H     H_    0.318164 0.760503 0.501224 0.151558
H18   H     H_    0.682867 0.237413 0.504600 0.146237
H19   H     H_    0.068799 0.853251 0.455103 0.152620
H20   H     H_    0.930841 0.149064 0.525662 0.153490
H21   H     H_    0.813551 0.973622 0.519107 0.133767
H22   H     H_    0.185017 0.031013 0.442064 0.133667
H23   H     H_    0.463451 0.799700 0.483325 0.142738
H24   H     H_    0.534148 0.207740 0.460957 0.147072
N1    N     N_R   0.913068 0.469287 0.954269 -0.236086
N2    N     N_R   0.086803 0.530454 0.045753 -0.236097
N3    N     N_R   0.910335 0.469815 0.022332 -0.250182
N4    N     N_R   0.089537 0.529925 0.977691 -0.250150
N5    N     N_R   0.795420 0.560800 0.453240 -0.169784
N6    N     N_R   0.204580 0.439200 0.546760 -0.170011
O1    O     O_R   0.977910 0.338110 0.524620 -0.558692
O2    O     O_R   0.022090 0.661890 0.475380 -0.558591
O3    O     O_R   0.839850 0.379180 0.493080 -0.594070
O4    O     O_R   0.160150 0.620820 0.506920 -0.594689
O5    O     O_R   0.069040 0.479450 0.615630 -0.559098
O6    O     O_R   0.930960 0.520550 0.384370 -0.559314
O7    O     O_R   0.930990 0.520520 0.584090 -0.589592
O8    O     O_R   0.069010 0.479480 0.415910 -0.590060
N7    N     N_3   0.120097 0.309715 0.639847 -0.528651
H25   H     H_    0.091278 0.233041 0.635120 0.189162
H26   H     H_    0.146184 0.315872 0.694200 0.192788
N8    N     N_3   0.879533 0.689788 0.359770 -0.528868
H27   H     H_    0.908325 0.766614 0.364028 0.186428
H28   H     H_    0.853053 0.683049 0.305531 0.193189
N9    N     N_3   0.157783 0.455704 0.883870 -0.598897
H29   H     H_    0.124450 0.396421 0.923647 0.233210
H30   H     H_    0.206705 0.519623 0.907226 0.246455
N10   N     N_3   0.841900 0.543749 0.116176 -0.598927
H31   H     H_    0.875126 0.603038 0.076367 0.233373
H32   H     H_    0.793056 0.479768 0.092865 0.246469

loop_
_geom_bond_atom_site_label_1
_geom_bond_atom_site_label_2
_ccdc_geom_bond_type
C1    O3    A    
C15   C18   A    
C30   C32   A    
N7    H25   S    
C28   N6    A    
Cu2   O2    S    
C9    H18   S    
C4    C8    A    
C39   C41   A    
Cu1   Cu2   S    
C21   C31   A    
C22   C32   A    
Cu1   N6    S    
C35   C37   A    
C46   H12   S    
C3    C7    A    
C27   H6    S    
Cu2   O3    S    
N10   H32   S    
C43   C52   S    
C23   C49   S    
C6    C14   A    
C15   C16   A    
C29   C33   A    
C33   C36   A    
C27   C29   A    
C34   C35   A    
C47   H13   S    
C51   N2    A    
C38   H4    S    
C11   C15   A    
C39   H1    S    
C12   C16   A    
C16   C17   A    
C40   H2    S    
N8    H28   S    
C41   N9    S    
C2    O4    A    
C32   C38   A    
C52   N1    A    
C51   N3    A    
C5    C13   A    
C10   H17   S    
C26   N7    S    
C40   C42   A    
N7    H26   S    
C1    O1    A    
C41   C43   A    
C20   H16   S    
C42   C44   A    
C24   O8    A    
C17   H23   S    
Cu2   N5    S    
C44   C46   A    
C7    H20   S    
C45   C47   A    
C24   C50   S    
C46   C48   A    
C30   C34   A    
C14   C20   A    
N2    N4    A    
N1    N3    A    
C13   C19   A    
C6    C8    A    
C31   C37   A    
C1    C3    S    
C5    H21   S    
C2    C4    S    
C3    C9    A    
C22   H8    S    
C43   C45   A    
N9    H29   S    
C18   H24   S    
N8    H27   S    
Cu1   O8    S    
C23   O5    A    
C33   C34   A    
C48   H14   S    
C52   N4    A    
C9    C11   A    
C10   C12   A    
Cu2   O6    S    
C44   C51   S    
C39   C49   A    
C12   C14   A    
Cu1   O5    S    
C23   O7    A    
C19   H15   S    
C4    C10   A    
C5    C7    A    
C28   H5    S    
C21   C25   A    
C26   N6    A    
N9    H30   S    
C21   H7    S    
C24   O6    A    
Cu1   O1    S    
C6    H22   S    
C47   C49   A    
C36   C38   A    
Cu2   O7    S    
C29   C31   A    
C42   N10   S    
C45   H11   S    
C11   C13   A    
C40   C50   A    
C48   C50   A    
C8    H19   S    
C17   C19   A    
C28   C30   A    
C2    O2    A    
Cu1   O4    S    
C18   C20   A    
N10   H31   S    
C27   N5    A    
C25   N8    S    
C22   C26   A    
C25   N5    A    
C35   H9    S    
C36   H10   S    
C37   H3    S    
