data_mof_unit_3464.cif
_audit_creation_date              2013-03-05T15:42:33-0500
_audit_creation_method            fapswitch 2.2
_symmetry_space_group_name_H-M    P1
_symmetry_Int_Tables_number       1
_space_group_crystal_system       triclinic
_cell_length_a                    10.805409
_cell_length_b                    10.917437
_cell_length_c                    9.731479
_cell_angle_alpha                 90.559157
_cell_angle_beta                  92.852803
_cell_angle_gamma                 91.156928
_cell_volume                      1146.2739461

loop_
_atom_site_label
_atom_site_type_symbol
_atom_site_description
_atom_site_fract_x
_atom_site_fract_y
_atom_site_fract_z
_atom_type_partial_charge
O1    O     O_R   0.500020 0.321960 0.617040 -0.590457
O2    O     O_R   0.499980 0.321920 0.382900 -0.543347
C1    C     C_R   0.508047 0.266197 0.499945 0.910654
O3    O     O_R   0.319670 0.500020 0.617100 -0.570372
O4    O     O_R   0.319630 0.499980 0.382950 -0.545733
C2    C     C_R   0.262307 0.494720 0.496463 0.897450
Cu1   Cu    Cu3+1 0.500020 0.500020 0.638630 1.083495
Cu2   Cu    Cu3+1 0.499980 0.499980 0.361370 1.084492
O5    O     O_R   0.500020 0.678080 0.617100 -0.531562
O6    O     O_R   0.499980 0.678040 0.382960 -0.570487
O7    O     O_R   0.680370 0.500020 0.617050 -0.565839
O8    O     O_R   0.680330 0.499980 0.382900 -0.541122
C3    C     C_R   0.509406 0.734632 0.500795 0.841846
C4    C     C_R   0.737700 0.497214 0.504428 0.865129
C5    C     C_R   0.110583 0.266152 0.533063 0.328493
C6    C     C_R   0.050278 0.171213 0.599015 -0.081959
H1    H     H_    0.087768 0.079922 0.599819 0.198110
C7    C     C_R   0.943992 0.193745 0.667984 -0.218395
H2    H     H_    0.906988 0.122025 0.731285 0.201121
C8    C     C_R   0.888800 0.308500 0.659686 -0.109707
C9    C     C_R   0.939435 0.400154 0.573110 -0.010515
C10   C     C_R   0.061498 0.385720 0.531687 0.003025
C11   C     C_R   0.127229 0.490604 0.487375 -0.173693
C12   C     C_R   0.063586 0.597524 0.449307 -0.106869
C13   C     C_R   0.934578 0.598726 0.455701 0.319053
C14   C     C_R   0.872458 0.500433 0.516823 -0.143567
C15   C     C_2   0.537170 0.937965 0.393419 -0.132932
C16   C     C_2   0.546390 0.864230 0.504908 0.160127
C17   C     C_2   0.570287 0.068499 0.407560 -0.045076
C18   C     C_2   0.508033 0.134098 0.498004 -0.255624
H3    H     H_    0.444457 0.088744 0.565296 0.195977
C19   C     C_2   0.456255 0.410730 0.920835 -0.079150
N1    N     N_2   0.498640 0.498660 0.846910 -0.253979
H4    H     H_    0.431883 0.323754 0.870683 0.182663
C20   C     C_2   0.434328 0.423090 0.072011 0.031380
N2    N     N_2   0.498610 0.498630 0.153040 -0.302752
H5    H     H_    0.577039 0.537346 0.114423 0.238557
C21   C     C_2   0.131439 0.708438 0.404471 0.945348
O9    O     O_2   0.108671 0.750419 0.290167 -0.477539
O10   O     O_R   0.220303 0.765436 0.494094 -0.774335
H6    H     H_    0.257715 0.842116 0.453711 0.338470
C22   C     C_2   0.489049 0.621209 0.896333 1.072494
O11   O     O_2   0.579394 0.690447 0.896519 -0.481867
O12   O     O_R   0.375264 0.663509 0.938026 -0.732311
H7    H     H_    0.379113 0.753493 0.964549 0.346786
C23   C     C_2   0.333304 0.347435 0.123388 0.966108
O13   O     O_2   0.346493 0.237159 0.136371 -0.529064
O14   O     O_R   0.218966 0.400348 0.144215 -0.704163
H8    H     H_    0.153563 0.338170 0.170398 0.362404
Cl1   Cl    Cl    0.227583 0.222066 0.426724 -0.629564
C24   C     C_2   0.802522 0.336859 0.768907 0.926215
O15   O     O_2   0.818209 0.431119 0.836748 -0.488704
O16   O     O_R   0.707572 0.254958 0.801713 -0.702779
H9    H     H_    0.698328 0.182371 0.736200 0.326839
Cl2   Cl    Cl    0.851321 0.729519 0.400677 -0.488724
C25   C     C_2   0.477863 0.899921 0.258962 0.904965
O17   O     O_2   0.533097 0.834862 0.180564 -0.499104
O18   O     O_R   0.361648 0.945357 0.219328 -0.691248
H10   H     H_    0.331200 0.916108 0.124242 0.356410
Cl3   Cl    Cl    0.621103 0.916804 0.661804 -0.518498
C26   C     C_2   0.668690 0.121173 0.321983 0.941120
O19   O     O_2   0.694958 0.069091 0.215824 -0.495180
O20   O     O_R   0.735645 0.226497 0.365896 -0.792299
H11   H     H_    0.801325 0.251546 0.300193 0.349790

loop_
_geom_bond_atom_site_label_1
_geom_bond_atom_site_label_2
_geom_bond_distance
_ccdc_geom_bond_type
O1    C1    1.294238 A    
C1    C18   1.442123 S    
C12   C21   1.483407 S    
C9    C14   1.423587 A    
C19   C20   1.506914 S    
C3    C16   1.462078 S    
C17   C18   1.343931 D    
C24   O15   1.221532 D    
C15   C17   1.465799 S    
C25   O17   1.222551 D    
C20   N2    1.301549 D    
Cu2   O8    1.949591 S    
C11   C12   1.410036 A    
C19   N1    1.295119 D    
C4    C14   1.454793 S    
C26   O20   1.397957 S    
O2    C1    1.296471 A    
O18   H10   1.012982 S    
Cu1   Cu2   2.698124 S    
C6    C7    1.383788 A    
C23   O13   1.222222 D    
O16   H9    1.012435 S    
C8    C9    1.432018 A    
C21   O10   1.397076 S    
Cu1   N1    2.027866 S    
C26   O19   1.222852 D    
C22   O12   1.399449 S    
N2    H5    1.028782 S    
O3    Cu1   1.949591 S    
O4    C2    1.294262 A    
C2    C11   1.457612 S    
O3    C2    1.300210 A    
O10   H6    1.013528 S    
C5    C10   1.418828 A    
C25   O18   1.397276 S    
Cu1   O7    1.970402 S    
C8    C24   1.482757 S    
C7    C8    1.399681 A    
C16   Cl3   1.775917 S    
C18   H3    1.087794 S    
O7    C4    1.285900 A    
C17   C26   1.492516 S    
O4    Cu2   1.970404 S    
C6    H1    1.083340 S    
C22   O11   1.222446 D    
N1    C22   1.424819 S    
C5    C6    1.392186 A    
C23   O14   1.397359 S    
C21   O9    1.222778 D    
C12   C13   1.398786 A    
Cu2   O6    1.953239 S    
C7    H2    1.083394 S    
Cu2   N2    2.026585 S    
C5    Cl1   1.745259 S    
C15   C16   1.358158 D    
Cu1   O5    1.957249 S    
O5    C3    1.301930 A    
C15   C25   1.480014 S    
O14   H8    1.013446 S    
O1    Cu1   1.953240 S    
C13   C14   1.406774 A    
C9    C10   1.409614 A    
C20   C23   1.466213 S    
C10   C11   1.417346 A    
O2    Cu2   1.957250 S    
O12   H7    1.012801 S    
C13   Cl2   1.775915 S    
O8    C4    1.308564 A    
O20   H11   1.013915 S    
C24   O16   1.398281 S    
O6    C3    1.295781 A    
C19   H4    1.085024 S    
