data_mof_unit_1873.cif
_audit_creation_date              2012-12-10T21:28:09-0500
_audit_creation_method            fapswitch 2.2
_symmetry_space_group_name_H-M    P1
_symmetry_Int_Tables_number       1
_space_group_crystal_system       triclinic
_cell_length_a                    12.827455
_cell_length_b                    16.069807
_cell_length_c                    16.728263
_cell_angle_alpha                 86.914664
_cell_angle_beta                  91.832143
_cell_angle_gamma                 100.35065
_cell_volume                      3386.37066418

loop_
_atom_site_label
_atom_site_type_symbol
_atom_type_description
_atom_site_fract_x
_atom_site_fract_y
_atom_site_fract_z
_atom_type_partial_charge
C1    C     C_R   0.505332 0.488892 0.653570 1.037887
C2    C     C_R   0.502427 0.512255 0.345880 0.995167
C3    C     C_R   0.632156 0.560508 0.849202 0.332873
C4    C     C_R   0.481781 0.460963 0.128181 0.289125
C5    C     C_R   0.597851 0.488625 0.900256 -0.043769
C6    C     C_R   0.538656 0.535453 0.091703 -0.037606
C7    C     C_R   0.547887 0.412133 0.868024 0.366743
C8    C     C_R   0.579085 0.604368 0.138347 0.361391
C9    C     C_R   0.505225 0.412985 0.789870 0.278313
C10   C     C_R   0.548762 0.602952 0.218193 0.279809
C11   C     C_R   0.435606 0.752551 0.469938 -0.022443
C12   C     C_R   0.555262 0.246370 0.539366 -0.051725
C13   C     C_R   0.439857 0.840825 0.463333 0.266829
C14   C     C_R   0.550787 0.158079 0.545151 0.360433
C15   C     C_R   0.525252 0.894231 0.501800 0.224962
C16   C     C_R   0.475622 0.106203 0.496782 0.212620
C17   C     C_R   0.602948 0.856003 0.542915 -0.310075
C18   C     C_R   0.407020 0.145342 0.446534 -0.309565
C19   C     C_R   0.595130 0.767727 0.546715 0.031824
C20   C     C_R   0.413749 0.233475 0.444080 -0.092619
C21   C     C_R   0.703046 0.517160 0.497378 0.876071
C22   C     C_R   0.296814 0.482949 0.499634 0.948060
C23   C     C_R   0.183658 0.471001 0.499755 -0.152594
C24   C     C_R   0.816039 0.528257 0.491926 -0.151148
C25   C     C_R   0.983335 0.601092 0.441430 -0.322528
C26   C     C_R   0.015129 0.396346 0.545634 -0.290226
C27   C     C_R   0.875457 0.600709 0.453175 0.472133
C28   C     C_R   0.123312 0.398790 0.537887 0.473905
C29   C     C_R   0.862749 0.461256 0.522604 -0.332394
C30   C     C_R   0.136640 0.536127 0.464834 -0.304930
C31   C     C_R   0.968905 0.463286 0.513364 0.120174
C32   C     C_R   0.029586 0.533432 0.472305 0.129931
C33   C     C_R   0.538641 0.484823 0.738320 -0.450955
C34   C     C_R   0.512155 0.522545 0.257902 -0.455532
C35   C     C_R   0.614020 0.553139 0.766780 0.315395
C36   C     C_R   0.488223 0.449911 0.211257 0.314604
H1    H     H_    0.184348 0.590482 0.434225 0.186972
H2    H     H_    0.815945 0.407031 0.554088 0.182448
H3    H     H_    0.670011 0.894767 0.571688 0.206539
H4    H     H_    0.347342 0.107367 0.410107 0.233970
H5    H     H_    0.655446 0.738994 0.578276 0.163472
H6    H     H_    0.359259 0.262918 0.406299 0.181807
H7    H     H_    0.031678 0.652669 0.408220 0.160017
H8    H     H_    0.968152 0.344061 0.579311 0.167022
H9    H     H_    0.611144 0.287029 0.576308 0.183247
H10   H     H_    0.371879 0.711007 0.440696 0.188621
N1    N     N_2   0.602564 0.491568 0.984439 -0.098902
N2    N     N_2   0.549854 0.542973 0.008126 0.040267
N3    N     N_R   0.512890 0.717880 0.509760 -0.106763
N4    N     N_R   0.487110 0.282120 0.490240 -0.123247
N5    N     N_2   0.541266 0.985014 0.496253 -0.070272
N6    N     N_2   0.459103 0.015626 0.502412 -0.042967
O1    O     O_R   0.495390 0.422190 0.612650 -0.566378
O2    O     O_R   0.504610 0.577810 0.387350 -0.533011
O3    O     O_R   0.503660 0.562120 0.618910 -0.584607
O4    O     O_R   0.496340 0.437880 0.381090 -0.614464
O5    O     O_R   0.650190 0.441600 0.497400 -0.657167
O6    O     O_R   0.349810 0.558400 0.502600 -0.648954
O7    O     O_R   0.658460 0.581530 0.503670 -0.585543
O8    O     O_R   0.341540 0.418470 0.496330 -0.585119
Zn1   Zn    Zn3+2 0.494480 0.406570 0.495820 0.990800
Zn2   Zn    Zn3+2 0.505520 0.593430 0.504180 1.042223
O9    O     O_3   0.172614 0.338355 0.578088 -0.579486
C37   C     C_3   0.142378 0.259710 0.542371 0.083739
H11   H     H_    0.165803 0.265279 0.478427 0.134122
H12   H     H_    0.055366 0.236801 0.545973 0.145198
C38   C     C_3   0.198684 0.194383 0.587108 -0.245389
H13   H     H_    0.285827 0.214848 0.582629 0.261369
H14   H     H_    0.178568 0.190325 0.651517 0.262099
C39   C     C_3   0.166237 0.106898 0.553228 -0.910421
H15   H     H_    0.080621 0.082743 0.562833 0.273541
H16   H     H_    0.212757 0.062130 0.583989 0.292760
H17   H     H_    0.181533 0.109746 0.488113 0.273349
O10   O     O_3   0.822767 0.664086 0.421190 -0.614771
C40   C     C_3   0.881051 0.747372 0.427743 0.134489
H18   H     H_    0.829532 0.791199 0.402040 0.205151
H19   H     H_    0.952322 0.759361 0.390098 0.134303
C41   C     C_3   0.908574 0.770173 0.515049 -0.433347
H20   H     H_    0.836280 0.754309 0.551350 0.231115
H21   H     H_    0.968121 0.733370 0.540860 0.218836
C42   C     C_3   0.953586 0.864331 0.520543 -0.865624
H22   H     H_    0.025848 0.882046 0.484151 0.285528
H23   H     H_    0.974930 0.878477 0.583845 0.275042
H24   H     H_    0.893768 0.902926 0.498829 0.269627
O11   O     O_3   0.464438 0.368499 0.245583 -0.559805
C43   C     C_3   0.560374 0.338467 0.265133 0.138198
H25   H     H_    0.545650 0.293775 0.318090 0.180419
H26   H     H_    0.627036 0.389449 0.282905 0.109817
C44   C     C_3   0.594727 0.290577 0.196791 -0.351499
H27   H     H_    0.528977 0.238867 0.180480 0.282805
H28   H     H_    0.614480 0.334732 0.143870 0.224024
C45   C     C_3   0.692167 0.252073 0.221061 -0.930053
H29   H     H_    0.759621 0.302560 0.236998 0.266269
H30   H     H_    0.715335 0.218137 0.170227 0.278089
H31   H     H_    0.674562 0.206257 0.273091 0.278231
O12   O     O_3   0.669712 0.613309 0.714194 -0.563173
C46   C     C_3   0.754359 0.580573 0.682113 0.089644
H32   H     H_    0.778703 0.619313 0.626863 0.162206
H33   H     H_    0.730059 0.513732 0.664720 0.095789
C47   C     C_3   0.851962 0.588275 0.738684 -0.323907
H34   H     H_    0.879639 0.655704 0.751895 0.280031
H35   H     H_    0.831680 0.550973 0.795597 0.230214
C48   C     C_3   0.942774 0.555555 0.701289 -0.918461
H36   H     H_    0.919111 0.487158 0.690206 0.271869
H37   H     H_    0.012712 0.563655 0.742830 0.289672
H38   H     H_    0.965546 0.591531 0.644047 0.261966
S1    S     S_3+6 0.390811 0.387092 0.073693 0.108069
O13   O     O_2   0.437066 0.309552 0.061301 -0.274246
O14   O     O_2   0.291668 0.361392 0.121188 -0.239031
O15   O     O_3   0.358819 0.430196 0.984433 -0.503175
H39   H     H_    0.310391 0.384147 0.958040 0.415339
S2    S     S_3+6 0.702445 0.656905 0.886609 0.045212
O16   O     O_2   0.794708 0.637567 0.937207 -0.363057
O17   O     O_2   0.743001 0.720528 0.820627 -0.261837
O18   O     O_3   0.621388 0.700794 0.941685 -0.476670
H40   H     H_    0.661933 0.757436 0.953575 0.396265
O19   O     O_3   0.527880 0.338705 0.916281 -0.523581
C49   C     C_3   0.623179 0.307350 0.932477 0.079944
H41   H     H_    0.611845 0.265725 0.987870 0.197065
H42   H     H_    0.692360 0.358142 0.945014 0.120984
C50   C     C_3   0.647541 0.254557 0.864007 -0.337431
H43   H     H_    0.578630 0.203393 0.853156 0.269911
H44   H     H_    0.661725 0.295448 0.808311 0.235701
C51   C     C_3   0.745427 0.215002 0.883801 -0.842495
H45   H     H_    0.815837 0.265220 0.893146 0.259759
H46   H     H_    0.760883 0.176913 0.833481 0.306208
H47   H     H_    0.732843 0.172743 0.938714 0.260394
O20   O     O_3   0.644010 0.674918 0.105248 -0.527650
C52   C     C_3   0.750810 0.662494 0.110656 0.159402
H48   H     H_    0.796357 0.709312 0.067838 0.221655
H49   H     H_    0.759478 0.598359 0.092402 0.144098
C53   C     C_3   0.800933 0.678911 0.194315 -0.398777
H50   H     H_    0.790795 0.742535 0.212145 0.283645
H51   H     H_    0.762036 0.630384 0.238789 0.233397
C54   C     C_3   0.918940 0.674955 0.195614 -0.868280
H52   H     H_    0.931148 0.611618 0.178490 0.268183
H53   H     H_    0.952586 0.685987 0.256891 0.272604
H54   H     H_    0.961628 0.724386 0.153567 0.282310
S3    S     S_3+6 0.408536 0.325662 0.759856 0.064673
O21   O     O_2   0.323153 0.357139 0.709633 -0.237126
O22   O     O_2   0.460662 0.269477 0.711036 -0.328672
O23   O     O_3   0.351259 0.269029 0.839538 -0.476873
H55   H     H_    0.376948 0.214399 0.841035 0.383530
S4    S     S_3+6 0.552619 0.702348 0.262218 0.071261
O24   O     O_2   0.445312 0.704167 0.294779 -0.262342
O25   O     O_2   0.634513 0.713294 0.328911 -0.310280
O26   O     O_3   0.581208 0.784178 0.194765 -0.475183
H56   H     H_    0.581624 0.835341 0.225353 0.385386
S5    S     S_3+6 0.633866 0.115691 0.616902 0.018329
O27   O     O_2   0.723182 0.088898 0.574646 -0.323535
O28   O     O_2   0.679037 0.181076 0.675586 -0.320147
O29   O     O_3   0.563863 0.031238 0.666650 -0.528892
H57   H     H_    0.617238 0.005656 0.698821 0.386538
S6    S     S_3+6 0.342608 0.880214 0.401819 0.044517
O30   O     O_2   0.395619 0.950586 0.346169 -0.241824
O31   O     O_2   0.280795 0.811517 0.352816 -0.273471
O32   O     O_3   0.258266 0.917935 0.459319 -0.555007
H58   H     H_    0.230319 0.869985 0.496938 0.341482

loop_
_geom_bond_atom_site_label_1
_geom_bond_atom_site_label_2
_ccdc_geom_bond_type
O6    Zn2   S    
C54   H54   S    
C4    C36   A    
O32   H58   S    
C42   H24   S    
S3    O22   D    
C7    O19   S    
O26   H56   S    
C24   C27   A    
O20   C52   S    
C25   H7    S    
S2    O17   D    
C46   H32   S    
C1    C33   S    
C54   H52   S    
O11   C43   S    
C5    N1    S    
C6    N2    S    
S1    O15   S    
C21   O7    A    
S5    O28   D    
C22   O8    A    
S3    O23   S    
C41   H21   S    
O18   H40   S    
O3    Zn2   S    
C11   C13   A    
C18   C20   A    
C54   H53   S    
C17   H3    S    
C1    O1    A    
C24   C29   A    
C45   H29   S    
C50   C51   S    
C20   N4    A    
C42   H23   S    
O15   H39   S    
O1    Zn1   S    
C8    O20   S    
C31   C32   A    
C53   H50   S    
C29   H2    S    
S1    O13   D    
C39   H15   S    
C15   N5    S    
C44   H28   S    
C27   O10   S    
S6    O31   D    
C52   C53   S    
C2    C34   S    
C25   C32   A    
C26   C31   A    
C49   H41   S    
C9    C33   A    
S1    O14   D    
S4    O26   S    
C47   H35   S    
S2    O16   D    
C46   H33   S    
C42   H22   S    
C22   C23   S    
C4    S1    S    
O10   C40   S    
C43   H26   S    
C26   H8    S    
C38   H13   S    
C23   C30   A    
S6    O32   S    
S4    O25   D    
C2    O2    A    
S5    O29   S    
C5    C7    A    
C43   H25   S    
S4    O24   D    
C6    C8    A    
O2    Zn2   S    
C35   O12   S    
C45   H31   S    
N5    N6    D    
C30   H1    S    
O8    Zn1   S    
C38   H14   S    
C49   C50   S    
C37   H12   S    
C40   H18   S    
C37   C38   S    
C21   O5    A    
C11   N3    A    
C19   N3    A    
C12   N4    A    
N1    N2    D    
C3    C35   A    
C3    S2    S    
O12   C46   S    
C39   H17   S    
C45   H30   S    
C50   H43   S    
C10   C34   A    
C10   S4    S    
C23   C28   A    
C44   C45   S    
C40   H19   S    
S6    O30   D    
C51   H47   S    
C4    C6    A    
C12   C14   A    
C13   C15   A    
C48   H37   S    
C14   C16   A    
C17   C19   A    
C46   C47   S    
C51   H46   S    
C52   H48   S    
C15   C17   A    
O7    Zn2   S    
N3    Zn2   S    
C41   H20   S    
C8    C10   A    
C16   N6    S    
C12   H9    S    
C3    C5    A    
C43   C44   S    
C22   O6    A    
C20   H6    S    
S3    O21   D    
O5    Zn1   S    
C36   O11   S    
C25   C27   A    
C26   C28   A    
C38   C39   S    
C37   H11   S    
C1    O3    A    
C29   C31   A    
C2    O4    A    
S5    O27   D    
C30   C32   A    
C9    S3    S    
C41   C42   S    
C53   C54   S    
C53   H51   S    
C14   S5    S    
C47   H34   S    
C33   C35   A    
C48   H38   S    
C34   C36   A    
C47   C48   S    
C40   C41   S    
C49   H42   S    
C13   S6    S    
C50   H44   S    
O9    C37   S    
C28   O9    S    
C7    C9    A    
C18   H4    S    
O29   H57   S    
C16   C18   A    
C21   C24   S    
C48   H36   S    
O23   H55   S    
N4    Zn1   S    
O4    Zn1   S    
C11   H10   S    
C39   H16   S    
C44   H27   S    
O19   C49   S    
S2    O18   S    
C19   H5    S    
C51   H45   S    
C52   H49   S    
