data_mof_unit_2451.cif
_audit_creation_date              2013-03-05T15:39:48-0500
_audit_creation_method            fapswitch 2.2
_symmetry_space_group_name_H-M    P1
_symmetry_Int_Tables_number       1
_space_group_crystal_system       triclinic
_cell_length_a                    12.000136
_cell_length_b                    12.553513
_cell_length_c                    7.550066
_cell_angle_alpha                 90.643898
_cell_angle_beta                  108.869157
_cell_angle_gamma                 89.858107
_cell_volume                      1076.17955289

loop_
_atom_site_label
_atom_site_type_symbol
_atom_site_description
_atom_site_fract_x
_atom_site_fract_y
_atom_site_fract_z
_atom_type_partial_charge
O1    O     O_R   0.398880 0.887420 0.621600 -0.561426
O2    O     O_R   0.601120 0.112580 0.378400 -0.561414
O3    O     O_R   0.601120 0.887420 0.378400 -0.569114
O4    O     O_R   0.398880 0.112580 0.621600 -0.569112
O5    O     O_R   0.898880 0.387420 0.621600 -0.561428
O6    O     O_R   0.101120 0.612580 0.378400 -0.561427
O7    O     O_R   0.101120 0.387420 0.378400 -0.569114
O8    O     O_R   0.898880 0.612580 0.621600 -0.569114
O9    O     O_R   0.369080 0.887420 0.305440 -0.581351
O10   O     O_R   0.630920 0.112580 0.694560 -0.581357
O11   O     O_R   0.630920 0.887420 0.694560 -0.539586
O12   O     O_R   0.369080 0.112580 0.305440 -0.539590
O13   O     O_R   0.869080 0.387420 0.305440 -0.581347
O14   O     O_R   0.130920 0.612580 0.694560 -0.581348
O15   O     O_R   0.130920 0.387420 0.694560 -0.539590
O16   O     O_R   0.869080 0.612580 0.305440 -0.539592
C1    C     C_R   0.347216 0.852590 0.452194 0.850905
C2    C     C_R   0.652784 0.147410 0.547806 0.850909
C3    C     C_R   0.654235 0.854290 0.547180 0.852444
C4    C     C_R   0.345766 0.145710 0.452820 0.852438
C5    C     C_R   0.847216 0.352590 0.452194 0.850903
C6    C     C_R   0.152784 0.647410 0.547806 0.850903
C7    C     C_R   0.154234 0.354290 0.547180 0.852437
C8    C     C_R   0.845766 0.645711 0.452820 0.852439
Cu1   Cu    Cu3+1 0.517640 0.000000 0.687200 1.114300
Cu2   Cu    Cu3+1 0.482360 0.000000 0.312800 1.114305
Cu3   Cu    Cu3+1 0.017640 0.500000 0.687200 1.114302
Cu4   Cu    Cu3+1 0.982360 0.500000 0.312800 1.114303
C9    C     C_2   0.253318 0.221501 0.427369 -0.275696
C10   C     C_2   0.746682 0.778500 0.572631 -0.275698
C11   C     C_2   0.739214 0.229618 0.573978 -0.290456
C12   C     C_2   0.260786 0.770382 0.426022 -0.290456
C13   C     C_2   0.753321 0.721503 0.427368 -0.275705
C14   C     C_2   0.246682 0.278500 0.572631 -0.275695
C15   C     C_2   0.239213 0.729619 0.573978 -0.290457
C16   C     C_2   0.760787 0.270382 0.426022 -0.290454
H1    H     H_    0.688172 0.727864 0.289573 0.218048
H2    H     H_    0.311834 0.272143 0.710424 0.218046
H3    H     H_    0.285609 0.756366 0.716168 0.207960
H4    H     H_    0.714390 0.243635 0.283832 0.207959
H5    H     H_    0.188166 0.227858 0.289575 0.218044
H6    H     H_    0.811832 0.772141 0.710426 0.218048
H7    H     H_    0.785610 0.256365 0.716168 0.207960
H8    H     H_    0.214390 0.743635 0.283832 0.207962
N1    N     N_2   0.455760 0.000000 0.031460 0.018284
N2    N     N_2   0.544240 0.000000 0.968540 0.018279
N3    N     N_2   0.955760 0.500000 0.031460 0.018284
N4    N     N_2   0.044240 0.500000 0.968540 0.018282
N5    N     N_R   0.349230 0.035375 0.910525 0.257602
O17   O     O_R   0.314870 0.131236 0.933333 -0.338524
O18   O     O_R   0.269493 0.965550 0.825776 -0.363382
N6    N     N_R   0.650768 0.964620 0.089475 0.257596
O19   O     O_R   0.685136 0.868766 0.066642 -0.338520
O20   O     O_R   0.730498 0.034443 0.174264 -0.363382
N7    N     N_R   0.849228 0.535368 0.910522 0.257603
O21   O     O_R   0.814863 0.631228 0.933320 -0.338524
O22   O     O_R   0.769492 0.465538 0.825791 -0.363382
N8    N     N_R   0.150772 0.464631 0.089478 0.257603
O23   O     O_R   0.185136 0.368771 0.066676 -0.338523
O24   O     O_R   0.230507 0.534460 0.174216 -0.363382

loop_
_geom_bond_atom_site_label_1
_geom_bond_atom_site_label_2
_geom_bond_distance
_ccdc_geom_bond_type
Cu3   N4    2.043351 S    
O16   Cu4   1.947236 S    
C15   H3    1.086937 S    
N7    O21   1.298700 A    
O1    Cu1   1.952270 S    
O13   Cu4   1.951213 S    
N4    N8    1.384360 S    
O14   Cu3   1.951211 S    
O2    C2    1.298970 A    
O15   Cu3   1.947236 S    
C8    C13   1.426143 S    
Cu2   N1    2.043350 S    
N1    N5    1.384360 S    
C7    C14   1.426143 S    
O12   C4    1.296069 A    
O15   C7    1.296071 A    
O4    Cu1   1.955215 S    
C12   H8    1.086937 S    
N3    N7    1.384360 S    
O13   C5    1.298911 A    
Cu4   N3    2.043350 S    
C5    C16   1.431066 S    
O5    Cu3   1.952270 S    
N1    N2    1.295870 D    
O3    C3    1.299349 A    
C6    C15   1.431066 S    
O11   C3    1.296071 A    
C11   H7    1.086936 S    
O10   C2    1.298913 A    
O7    C7    1.299349 A    
C9    C14   1.326556 D    
O10   Cu1   1.951211 S    
O9    C1    1.298911 A    
O8    C8    1.299351 A    
N6    O20   1.299571 A    
O9    Cu2   1.951213 S    
C4    C9    1.426144 S    
N7    O22   1.299562 A    
O14   C6    1.298912 A    
O6    Cu4   1.952268 S    
N8    O23   1.298703 A    
O11   Cu1   1.947236 S    
N8    O24   1.299566 A    
O6    C6    1.298970 A    
C12   C15   1.333159 D    
N2    N6    1.384365 S    
C16   H4    1.086937 S    
O5    C5    1.298970 A    
N6    O19   1.298708 A    
O16   C8    1.296068 A    
N5    O17   1.298702 A    
Cu3   Cu4   2.719495 S    
C1    C12   1.431067 S    
O8    Cu3   1.955215 S    
C11   C16   1.333159 D    
C10   H6    1.084160 S    
C2    C11   1.431066 S    
C10   C13   1.326556 D    
C9    H5    1.084161 S    
Cu1   Cu2   2.719495 S    
C14   H2    1.084161 S    
C3    C10   1.426142 S    
O1    C1    1.298970 A    
Cu1   N2    2.043351 S    
O3    Cu2   1.955216 S    
C13   H1    1.084162 S    
O7    Cu4   1.955216 S    
N3    N4    1.295870 D    
O12   Cu2   1.947236 S    
O2    Cu2   1.952268 S    
N5    O18   1.299563 A    
O4    C4    1.299349 A    
