data_mof_unit_2476.cif
_audit_creation_date              2012-12-10T18:01:42-0500
_audit_creation_method            fapswitch 2.2
_symmetry_space_group_name_H-M    P1
_symmetry_Int_Tables_number       1
_space_group_crystal_system       triclinic
_cell_length_a                    10.825499
_cell_length_b                    9.53066
_cell_length_c                    19.279004
_cell_angle_alpha                 90.067011
_cell_angle_beta                  90.530897
_cell_angle_gamma                 90.053612
_cell_volume                      1989.0072167

loop_
_atom_site_label
_atom_site_type_symbol
_atom_type_description
_atom_site_fract_x
_atom_site_fract_y
_atom_site_fract_z
_atom_type_partial_charge
C1    C     C_R   0.262102 0.499960 0.500070 0.771019
C2    C     C_R   0.737898 0.500040 0.499931 0.771009
C3    C     C_R   0.499692 0.499723 0.930014 0.407436
C4    C     C_R   0.500393 0.500472 0.069987 0.407436
C5    C     C_R   0.499733 0.499898 0.367716 0.820686
C6    C     C_R   0.500267 0.500103 0.632285 0.820697
C7    C     C_R   0.063758 0.372467 0.499941 -0.155526
C8    C     C_R   0.936242 0.627533 0.500062 -0.155522
C9    C     C_R   0.935995 0.372512 0.499915 -0.162217
C10   C     C_R   0.064005 0.627488 0.500088 -0.162228
C11   C     C_R   0.871749 0.500047 0.499964 -0.040614
C12   C     C_R   0.128251 0.499953 0.500038 -0.040606
C13   C     C_R   0.422349 0.074161 0.457036 0.506240
C14   C     C_R   0.577651 0.925839 0.542964 0.506249
C15   C     C_R   0.577663 0.074517 0.542960 0.506068
C16   C     C_R   0.422338 0.925483 0.457039 0.506062
C17   C     C_R   0.391738 0.541407 0.254834 0.111087
C18   C     C_R   0.608329 0.458751 0.745162 0.111160
C19   C     C_R   0.392618 0.540842 0.743592 0.117186
C20   C     C_R   0.607386 0.459112 0.256410 0.117183
C21   C     C_R   0.393492 0.545592 0.181601 0.138295
C22   C     C_R   0.606615 0.454663 0.818398 0.138327
C23   C     C_R   0.392814 0.543878 0.817001 0.155183
C24   C     C_R   0.607219 0.456170 0.183000 0.155173
C25   C     C_R   0.500505 0.500982 0.146058 -0.009769
C26   C     C_R   0.499580 0.499204 0.853944 -0.009803
C27   C     C_R   0.499141 0.499646 0.291675 -0.091831
C28   C     C_R   0.500878 0.500368 0.708324 -0.091800
Cu1   Cu    Cu3+1 0.500000 0.640660 0.500000 1.046670
Cu2   Cu    Cu3+1 0.500000 0.359340 0.500000 1.046667
H1    H     H_    0.111721 0.272765 0.499880 0.186193
H2    H     H_    0.888279 0.727235 0.500123 0.186196
H3    H     H_    0.887838 0.272833 0.499857 0.186066
H4    H     H_    0.112162 0.727167 0.500146 0.186062
N1    N     N_R   0.500000 0.852070 0.500000 -0.328701
N2    N     N_R   0.500000 0.147930 0.500000 -0.328707
N3    N     N_R   0.565492 0.598299 0.034684 -0.221969
N4    N     N_R   0.434592 0.401902 0.965318 -0.221951
N5    N     N_R   0.565159 0.597916 0.965679 -0.220110
N6    N     N_R   0.434923 0.402287 0.034322 -0.220081
O1    O     O_R   0.319640 0.618740 0.500000 -0.553221
O2    O     O_R   0.680360 0.381260 0.500000 -0.553220
O3    O     O_R   0.680360 0.618740 0.500000 -0.546470
O4    O     O_R   0.319640 0.381260 0.500000 -0.546474
O5    O     O_R   0.499980 0.618820 0.400140 -0.536012
O6    O     O_R   0.500020 0.381180 0.599860 -0.536011
O7    O     O_R   0.500020 0.618820 0.599860 -0.532521
O8    O     O_R   0.499980 0.381180 0.400140 -0.532529
C29   C     C_3   0.274040 0.580868 0.292687 -0.715375
H5    H     H_    0.278553 0.563912 0.349408 0.230080
H6    H     H_    0.252815 0.693428 0.284000 0.257835
H7    H     H_    0.195842 0.515862 0.273353 0.216921
C30   C     C_3   0.726044 0.419354 0.707305 -0.715677
H8    H     H_    0.721455 0.436065 0.650573 0.230143
H9    H     H_    0.804148 0.484557 0.726547 0.216998
H10   H     H_    0.747418 0.306887 0.716075 0.257738
C31   C     C_3   0.278164 0.579347 0.701295 -0.824586
H11   H     H_    0.254624 0.492337 0.665123 0.210663
H12   H     H_    0.194577 0.598637 0.732381 0.240082
H13   H     H_    0.296348 0.675727 0.670762 0.241593
C32   C     C_3   0.721788 0.420444 0.298711 -0.824504
H14   H     H_    0.745361 0.507370 0.334924 0.210612
H15   H     H_    0.703526 0.324028 0.329196 0.241644
H16   H     H_    0.805385 0.401150 0.267632 0.240070
C33   C     C_3   0.280339 0.598898 0.142379 -0.801807
H17   H     H_    0.293428 0.608924 0.085727 0.235019
H18   H     H_    0.201396 0.526591 0.150504 0.234783
H19   H     H_    0.255542 0.705198 0.161187 0.238080
C34   C     C_3   0.719825 0.401498 0.857615 -0.801640
H20   H     H_    0.706829 0.391650 0.914284 0.235019
H21   H     H_    0.744606 0.295127 0.838870 0.238021
H22   H     H_    0.798775 0.473780 0.849397 0.234758
C35   C     C_3   0.280062 0.597676 0.855139 -0.807897
H23   H     H_    0.293358 0.608405 0.911892 0.234381
H24   H     H_    0.255644 0.704003 0.835944 0.238339
H25   H     H_    0.201166 0.524997 0.846531 0.234273
C36   C     C_3   0.719956 0.402323 0.144863 -0.807951
H26   H     H_    0.706679 0.391667 0.088102 0.234362
H27   H     H_    0.798888 0.474936 0.153500 0.234271
H28   H     H_    0.744297 0.295961 0.164022 0.238371
F1    F     F_    0.344300 0.143664 0.413796 -0.602317
F2    F     F_    0.655701 0.856336 0.586204 -0.602306
F3    F     F_    0.655749 0.144359 0.586188 -0.613200
F4    F     F_    0.344253 0.855641 0.413811 -0.613252

loop_
_geom_bond_atom_site_label_1
_geom_bond_atom_site_label_2
_ccdc_geom_bond_type
C32   H16   S    
C35   H23   S    
C4    C25   S    
C30   H8    S    
C19   C31   S    
Cu1   O7    S    
Cu2   O8    S    
C16   N1    A    
C30   H10   S    
C13   F1    S    
C16   F4    S    
C34   H21   S    
C23   C26   A    
C20   C32   S    
C32   H15   S    
C18   C30   S    
C5    C27   S    
C6    C28   S    
C4    N6    A    
C3    N4    A    
C33   H18   S    
C22   C34   S    
Cu1   O1    S    
C29   H7    S    
C36   H27   S    
C3    N5    A    
Cu1   O3    S    
C9    H3    S    
C35   H24   S    
Cu2   O4    S    
C32   H14   S    
C1    C12   S    
C23   C35   S    
C2    C11   S    
C30   H9    S    
C7    C12   A    
C5    O8    A    
C7    H1    S    
C6    O7    A    
C8    H2    S    
C20   C24   A    
C18   C28   A    
C24   C25   A    
C13   N2    A    
C17   C29   S    
C14   N1    A    
C31   H13   S    
C15   F3    S    
C29   H6    S    
C36   H26   S    
C5    O5    A    
C17   C21   A    
Cu1   O5    S    
C17   C27   A    
C34   H22   S    
C19   C23   A    
Cu1   Cu2   S    
C1    O4    A    
C2    O3    A    
C33   H19   S    
C10   H4    S    
C19   C28   A    
C9    C11   A    
C10   C12   A    
C1    O1    A    
C33   H17   S    
C35   H25   S    
C14   F2    S    
C15   N2    A    
C36   H28   S    
C7    C9    A    
C21   C25   A    
C6    O6    A    
C21   C33   S    
C18   C22   A    
Cu2   O6    S    
C3    C26   S    
C20   C27   A    
Cu1   N1    S    
Cu2   N2    S    
N3    N5    A    
N4    N6    A    
C31   H11   S    
C2    O2    A    
C8    C11   A    
C34   H20   S    
C31   H12   S    
C24   C36   S    
C4    N3    A    
C8    C10   A    
C29   H5    S    
C22   C26   A    
C13   C16   A    
C14   C15   A    
Cu2   O2    S    
