data_mof_unit_1757.cif
_audit_creation_date              2013-03-05T16:49:11-0500
_audit_creation_method            fapswitch 2.2
_symmetry_space_group_name_H-M    P1
_symmetry_Int_Tables_number       1
_space_group_crystal_system       triclinic
_cell_length_a                    17.592502
_cell_length_b                    8.935705
_cell_length_c                    8.108564
_cell_angle_alpha                 90.000791
_cell_angle_beta                  90.033421
_cell_angle_gamma                 90.008845
_cell_volume                      1274.67744617

loop_
_atom_site_label
_atom_site_type_symbol
_atom_site_description
_atom_site_fract_x
_atom_site_fract_y
_atom_site_fract_z
_atom_type_partial_charge
O1    O     O_R   0.500000 0.285350 0.636850 -0.614433
O2    O     O_R   0.500000 0.714650 0.363150 -0.613708
O3    O     O_R   0.500000 0.714650 0.636850 -0.613707
O4    O     O_R   0.500000 0.285350 0.363150 -0.614431
C1    C     C_R   0.499999 0.217995 0.499999 0.940026
C2    C     C_R   0.500001 0.782005 0.500001 0.940989
O5    O     O_R   0.389120 0.500000 0.636930 -0.622081
O6    O     O_R   0.610880 0.500000 0.363070 -0.622053
O7    O     O_R   0.610880 0.500000 0.636930 -0.622938
O8    O     O_R   0.389120 0.500000 0.363070 -0.622916
C3    C     C_1   0.500000 0.065189 0.499999 -0.191824
C4    C     C_1   0.500000 0.934815 0.500001 -0.192787
C5    C     C_R   0.353159 0.498702 0.499939 0.886392
C6    C     C_R   0.646841 0.498735 0.500066 0.886382
Zn1   Zn    Zn3+2 0.500000 0.500000 0.682780 0.985663
Zn2   Zn    Zn3+2 0.500000 0.500000 0.317220 0.985674
C7    C     C_R   0.845393 0.422185 0.642475 0.189157
C8    C     C_R   0.154545 0.422370 0.357652 0.189091
C9    C     C_R   0.151425 0.505858 0.645932 0.191441
C10   C     C_R   0.848609 0.505756 0.354237 0.191391
C11   C     C_R   0.766797 0.439165 0.642580 -0.203025
C12   C     C_R   0.233154 0.439223 0.357486 -0.203106
C13   C     C_R   0.230179 0.519988 0.643644 -0.203017
C14   C     C_R   0.769861 0.520016 0.356462 -0.203120
H1    H     H_    0.734867 0.412602 0.753060 0.169440
H2    H     H_    0.265050 0.412692 0.246957 0.169397
H3    H     H_    0.259734 0.557431 0.753494 0.168206
H4    H     H_    0.740340 0.557470 0.246581 0.168155
C15   C     C_R   0.729116 0.487667 0.500204 -0.130463
C16   C     C_R   0.270882 0.487639 0.499851 -0.130473
C17   C     C_R   0.885950 0.456371 0.497850 0.113078
C18   C     C_R   0.114033 0.456558 0.502336 0.113077
C19   C     C_1   0.966292 0.448885 0.499385 -0.025078
C20   C     C_1   0.033691 0.448964 0.500922 -0.025130
N1    N     N_1   0.500000 0.500000 0.073640 -0.037138
N2    N     N_1   0.500000 0.500000 0.926360 -0.037141
C21   C     C_3   0.885175 0.368459 0.796262 -0.935031
H5    H     H_    0.844417 0.345178 0.897642 0.246727
H6    H     H_    0.916735 0.263676 0.769356 0.250240
H7    H     H_    0.925834 0.455151 0.839143 0.249487
C22   C     C_3   0.114685 0.368922 0.203819 -0.934759
H8    H     H_    0.155435 0.345214 0.102527 0.246743
H9    H     H_    0.082820 0.264443 0.230696 0.250223
H10   H     H_    0.074260 0.456020 0.160842 0.249464
C23   C     C_3   0.108073 0.544484 0.800606 -0.937365
H11   H     H_    0.146522 0.580803 0.901689 0.247019
H12   H     H_    0.067640 0.637009 0.774943 0.250123
H13   H     H_    0.075826 0.444974 0.843265 0.249049
C24   C     C_3   0.892011 0.544101 0.199534 -0.936963
H14   H     H_    0.932917 0.635893 0.225286 0.250003
H15   H     H_    0.923786 0.444106 0.156493 0.249011
H16   H     H_    0.853620 0.581324 0.098721 0.247039

loop_
_geom_bond_atom_site_label_1
_geom_bond_atom_site_label_2
_geom_bond_distance
_ccdc_geom_bond_type
O4    Zn2   1.953877 S    
C9    C13   1.391329 A    
O7    C6    1.277800 A    
C17   C19   1.415067 S    
C10   C24   1.508320 S    
O1    Zn1   1.953867 S    
C13   H3    1.084016 S    
O2    Zn2   1.953866 S    
C22   H8    1.110907 S    
C5    C16   1.450823 S    
N1    N2    1.194228 T    
C3    C4    1.164978 T    
C24   H16   1.111047 S    
O3    C2    1.262372 A    
C9    C23   1.508292 S    
C19   C20   1.185767 T    
O7    Zn1   1.985982 S    
C21   H6    1.110338 S    
O8    Zn2   1.985984 S    
C23   H11   1.110829 S    
C22   H9    1.110566 S    
O2    C2    1.262368 A    
O1    C1    1.262367 A    
C9    C18   1.407669 A    
O5    Zn1   1.985558 S    
C21   H5    1.110776 S    
C1    C3    1.365435 S    
C21   H7    1.110036 S    
C23   H12   1.110345 S    
Zn2   N1    1.975084 S    
C2    C4    1.365469 S    
C7    C17   1.406607 A    
C22   H10   1.110326 S    
C8    C22   1.508178 S    
C8    C18   1.406653 A    
C7    C21   1.508105 S    
C6    C15   1.450820 S    
C13   C16   1.398852 A    
C14   H4    1.084012 S    
Zn1   N2    1.975084 S    
O5    C5    1.278054 A    
O3    Zn1   1.953876 S    
O6    Zn2   1.985556 S    
C24   H14   1.110812 S    
C12   H2    1.083945 S    
C23   H13   1.110064 S    
C11   H1    1.083943 S    
C14   C15   1.398843 A    
O6    C6    1.278090 A    
C12   C16   1.399744 A    
C8    C12   1.391067 A    
C11   C15   1.399740 A    
C10   C17   1.407672 A    
C7    C11   1.391021 A    
C10   C14   1.391374 A    
O4    C1    1.262371 A    
C24   H15   1.110429 S    
O8    C5    1.277836 A    
C18   C20   1.415074 S    
