data_mof_unit_1646.cif
_audit_creation_date              2012-12-10T16:50:05-0500
_audit_creation_method            fapswitch 2.2
_symmetry_space_group_name_H-M    P1
_symmetry_Int_Tables_number       1
_space_group_crystal_system       triclinic
_cell_length_a                    7.780255
_cell_length_b                    8.570334
_cell_length_c                    10.599668
_cell_angle_alpha                 91.027965
_cell_angle_beta                  85.672998
_cell_angle_gamma                 93.610594
_cell_volume                      703.304130267

loop_
_atom_site_label
_atom_site_type_symbol
_atom_type_description
_atom_site_fract_x
_atom_site_fract_y
_atom_site_fract_z
_atom_type_partial_charge
C1    C     C_R   0.545915 0.794488 0.502672 0.868707
C2    C     C_R   0.461458 0.651088 0.938226 0.085579
C3    C     C_R   0.507784 0.514496 0.871293 -0.083524
C4    C     C_R   0.553892 0.381861 0.930760 -0.195446
C5    C     C_R   0.548695 0.380310 0.059824 -0.213208
C6    C     C_R   0.497715 0.511470 0.128528 -0.082114
C7    C     C_2   0.570494 0.956333 0.524576 0.090000
C8    C     C_2   0.434726 0.042073 0.509525 -0.464859
C9    C     C_R   0.502482 0.504097 0.739260 0.858211
C10   C     C_R   0.455328 0.205636 0.508717 0.982473
C11   C     C_R   0.498767 0.502569 0.260673 0.853237
C12   C     C_R   0.424462 0.789030 0.876836 -0.146557
C13   C     C_R   0.382777 0.922572 0.946879 -0.111059
C14   C     C_R   0.377941 0.921190 0.078411 -0.140274
C15   C     C_R   0.414715 0.786246 0.140292 -0.169565
C16   C     C_R   0.456286 0.649586 0.070555 0.095216
H1    H     H_    0.589933 0.278420 0.877097 0.168612
H2    H     H_    0.986555 0.618247 0.594479 0.212130
H3    H     H_    0.429701 0.795589 0.774872 0.145009
H4    H     H_    0.355286 0.027650 0.898929 0.147257
H5    H     H_    0.346661 0.025208 0.132645 0.137542
H6    H     H_    0.412085 0.790780 0.242391 0.143880
H7    H     H_    0.582641 0.276184 0.106584 0.151824
H8    H     H_    0.310163 0.991564 0.483739 0.181095
H9    H     H_    0.013435 0.381733 0.405543 0.206045
N1    N     N_2   0.950330 0.457950 0.466250 -0.149057
N2    N     N_2   0.049670 0.542050 0.533750 -0.157773
O1    O     O_R   0.389250 0.738570 0.508280 -0.643209
O2    O     O_R   0.678390 0.711630 0.486650 -0.590955
O3    O     O_R   0.355400 0.513470 0.694050 -0.615030
O4    O     O_R   0.644540 0.486530 0.672420 -0.606908
O5    O     O_R   0.321610 0.288370 0.513350 -0.615279
O6    O     O_R   0.610750 0.261430 0.491720 -0.562832
O7    O     O_R   0.355460 0.513470 0.327580 -0.630267
O8    O     O_R   0.644600 0.486530 0.305950 -0.609676
Zn1   Zn    Zn3+2 0.306930 0.517990 0.514440 0.966665
Zn2   Zn    Zn3+2 0.693070 0.482010 0.485560 1.001810
Br1   Br    Br    0.788005 0.027365 0.592050 -0.507699

loop_
_geom_bond_atom_site_label_1
_geom_bond_atom_site_label_2
_ccdc_geom_bond_type
C1    O1    A    
N1    Zn2   S    
C3    C9    S    
N2    Zn1   S    
C2    C16   A    
C5    H7    S    
O3    Zn1   S    
C2    C12   A    
C1    O2    A    
C2    C3    A    
C7    C8    D    
C13   C14   A    
O1    Zn1   S    
N1    N2    D    
C9    O3    A    
C4    H1    S    
O5    Zn1   S    
C14   H5    S    
C11   O8    A    
O8    Zn2   S    
C7    Br1   S    
C10   O6    A    
O7    Zn1   S    
C15   H6    S    
C5    C6    A    
C9    O4    A    
C6    C16   A    
C15   C16   A    
C10   O5    A    
C12   C13   A    
C12   H3    S    
C8    C10   S    
O2    Zn2   S    
C6    C11   S    
C14   C15   A    
C13   H4    S    
C8    H8    S    
H9    N1    S    
C1    C7    S    
C11   O7    A    
O6    Zn2   S    
H2    N2    S    
C3    C4    A    
O4    Zn2   S    
C4    C5    A    
