data_mof_unit_641.cif
_audit_creation_date              2012-12-10T19:12:34-0500
_audit_creation_method            fapswitch 2.2
_symmetry_space_group_name_H-M    P1
_symmetry_Int_Tables_number       1
_space_group_crystal_system       triclinic
_cell_length_a                    15.729892
_cell_length_b                    10.677487
_cell_length_c                    9.695241
_cell_angle_alpha                 90.360335
_cell_angle_beta                  90.042849
_cell_angle_gamma                 89.99951
_cell_volume                      1628.33849908

loop_
_atom_site_label
_atom_site_type_symbol
_atom_type_description
_atom_site_fract_x
_atom_site_fract_y
_atom_site_fract_z
_atom_type_partial_charge
C1    C     C_R   0.502081 0.257388 0.499579 0.781470
C2    C     C_3   0.513419 0.928321 0.651255 -0.389663
C3    C     C_3   0.412140 0.068627 0.457815 -0.189861
C4    C     C_R   0.337824 0.499852 0.499883 0.906170
C5    C     C_3   0.573593 0.067732 0.398377 -0.110943
C6    C     C_3   0.502724 0.120346 0.498243 -0.020985
C7    C     C_3   0.502923 0.877619 0.501729 0.052381
C8    C     C_3   0.418069 0.925112 0.440105 -0.337201
C9    C     C_3   0.578641 0.924093 0.413542 -0.371960
C10   C     C_3   0.447069 0.394257 0.081263 -0.223470
C11   C     C_3   0.448122 0.391767 0.918679 -0.222809
C12   C     C_3   0.083023 0.492201 0.496612 0.179205
C13   C     C_3   0.461866 0.616692 0.080671 -0.230939
C14   C     C_3   0.585517 0.486920 0.081697 -0.214994
C15   C     C_3   0.461819 0.614578 0.918117 -0.228030
C16   C     C_R   0.501670 0.742095 0.500623 0.861082
C17   C     C_3   0.585985 0.486039 0.919395 -0.226454
C18   C     C_R   0.662182 0.499712 0.500066 0.913395
C19   C     C_3   0.971432 0.396292 0.573266 -0.246545
C20   C     C_3   0.027795 0.384392 0.443477 -0.026544
C21   C     C_1   0.249027 0.497470 0.499435 -0.185166
C22   C     C_1   0.750985 0.497267 0.499873 -0.167663
C23   C     C_3   0.972042 0.601435 0.549590 -0.156645
C24   C     C_3   0.028066 0.505267 0.626735 -0.157457
C25   C     C_2   0.057352 0.261987 0.384181 0.367586
C26   C     C_2   0.564504 0.105265 0.248446 0.396366
C27   C     C_2   0.367825 0.133257 0.338168 0.512199
C28   C     C_2   0.942778 0.465612 0.220762 0.361677
C29   C     C_2   0.606427 0.114348 0.708378 0.410209
C30   C     C_3   0.917000 0.492713 0.496128 0.177071
C31   C     C_3   0.028554 0.588415 0.419257 -0.253388
C32   C     C_3   0.972202 0.479630 0.367106 -0.018676
C33   C     C_1   0.173817 0.494957 0.498370 0.006214
C34   C     C_1   0.826200 0.494902 0.498579 0.014363
C35   C     C_3   0.521793 0.071239 0.648800 -0.158803
H1    H     H_    0.456656 0.902297 0.713591 0.164520
H2    H     H_    0.474640 0.300864 0.882549 0.147521
H3    H     H_    0.381898 0.396280 0.878766 0.159477
H4    H     H_    0.395932 0.630225 0.119419 0.158487
H5    H     H_    0.395775 0.626412 0.879223 0.154341
H6    H     H_    0.616517 0.398668 0.881156 0.147834
H7    H     H_    0.499107 0.698871 0.117611 0.170188
H8    H     H_    0.498502 0.696414 0.880194 0.158562
H9    H     H_    0.053463 0.666667 0.356140 0.152493
H10   H     H_    0.052871 0.516000 0.733390 0.143945
H11   H     H_    0.472186 0.108355 0.720225 0.119170
H12   H     H_    0.369190 0.086504 0.547120 0.107490
H13   H     H_    0.569317 0.884061 0.702092 0.209056
H14   H     H_    0.010904 0.193236 0.350500 0.073574
H15   H     H_    0.598436 0.186839 0.211530 0.054688
H16   H     H_    0.351656 0.231692 0.347145 0.072424
H17   H     H_    0.471906 0.303946 0.120264 0.179658
H18   H     H_    0.625901 0.565308 0.119997 0.170582
H19   H     H_    0.615103 0.399329 0.120296 0.154880
H20   H     H_    0.625900 0.564771 0.881827 0.163055
H21   H     H_    0.989301 0.457622 0.138684 0.066575
H22   H     H_    0.947291 0.690550 0.593394 0.149868
H23   H     H_    0.363024 0.880501 0.492802 0.135255
H24   H     H_    0.607817 0.192243 0.780516 0.070276
H25   H     H_    0.635894 0.107255 0.430801 0.134712
H26   H     H_    0.639461 0.898283 0.464864 0.180155
H27   H     H_    0.579834 0.876326 0.311188 0.198058
H28   H     H_    0.415174 0.896367 0.329734 0.243471
H29   H     H_    0.380370 0.401280 0.118536 0.162091
H30   H     H_    0.946475 0.317708 0.635822 0.157843
N1    N     N_3   0.498170 0.499750 0.138610 -0.059162
N2    N     N_3   0.498850 0.496730 0.861320 -0.049482
O1    O     O_R   0.499980 0.314910 0.616040 -0.638404
O2    O     O_2   0.520017 0.046119 0.167911 -0.565129
O3    O     O_2   0.345894 0.076629 0.234251 -0.538121
O4    O     O_2   0.867122 0.463018 0.193082 -0.571817
O5    O     O_2   0.673325 0.064068 0.676136 -0.595579
O6    O     O_R   0.500040 0.314680 0.383960 -0.647749
O7    O     O_R   0.376750 0.500100 0.616020 -0.620190
O8    O     O_R   0.376810 0.499870 0.383940 -0.620935
O9    O     O_R   0.499960 0.685320 0.616040 -0.635697
O10   O     O_R   0.500020 0.685090 0.383960 -0.634463
O11   O     O_R   0.623190 0.500130 0.616060 -0.626402
O12   O     O_R   0.623250 0.499900 0.383980 -0.614732
O13   O     O_2   0.133037 0.238975 0.373360 -0.566576
Zn1   Zn    Zn3+2 0.499960 0.500150 0.654960 0.908254
Zn2   Zn    Zn3+2 0.500040 0.499850 0.345040 0.914742

loop_
_geom_bond_atom_site_label_1
_geom_bond_atom_site_label_2
_ccdc_geom_bond_type
C2    C35   S    
C25   O13   D    
C19   C20   S    
C3    C6    S    
C10   H17   S    
C28   H21   S    
C7    C8    S    
C9    H26   S    
O1    Zn1   S    
C26   H15   S    
C5    C6    S    
C21   C33   T    
C20   C25   S    
C1    O1    A    
C6    C35   S    
C23   H22   S    
C16   O10   A    
C11   H2    S    
C4    O8    A    
C2    C7    S    
C8    H23   S    
C29   H24   S    
C27   H16   S    
C18   O12   A    
C23   C24   S    
C17   H20   S    
C4    O7    A    
C29   O5    D    
C18   C22   S    
C14   C17   S    
C13   H7    S    
C11   N2    S    
C25   H14   S    
C13   N1    S    
C10   N1    S    
C22   C34   T    
C17   N2    S    
C31   H9    S    
C30   C34   S    
C9    H27   S    
C23   C30   S    
C28   C32   S    
C3    C8    S    
C2    H13   S    
C1    C6    S    
C23   C31   S    
C11   H3    S    
C5    C9    S    
N1    Zn2   S    
C31   C32   S    
C18   O11   A    
C15   N2    S    
C12   C20   S    
C14   N1    S    
C27   O3    D    
C7    C16   S    
C14   H19   S    
N2    Zn1   S    
C13   C15   S    
C12   C31   S    
C28   O4    D    
C24   H10   S    
O7    Zn1   S    
O6    Zn2   S    
C20   C32   S    
C2    H1    S    
C7    C9    S    
C12   C24   S    
C5    H25   S    
C16   O9    A    
C10   H29   S    
O9    Zn1   S    
O12   Zn2   S    
O8    Zn2   S    
C29   C35   S    
C1    O6    A    
C3    C27   S    
C19   C24   S    
C15   H8    S    
C30   C32   S    
C4    C21   S    
C35   H11   S    
O11   Zn1   S    
O10   Zn2   S    
C3    H12   S    
C19   H30   S    
C17   H6    S    
C15   H5    S    
C13   H4    S    
C10   C11   S    
C8    H28   S    
C5    C26   S    
C14   H18   S    
C26   O2    D    
C12   C33   S    
C19   C30   S    
