data_mof_unit_4077.cif
_audit_creation_date              2012-12-10T18:46:13-0500
_audit_creation_method            fapswitch 2.2
_symmetry_space_group_name_H-M    P1
_symmetry_Int_Tables_number       1
_space_group_crystal_system       triclinic
_cell_length_a                    9.873614
_cell_length_b                    10.697295
_cell_length_c                    13.101256
_cell_angle_alpha                 90.362932
_cell_angle_beta                  69.371721
_cell_angle_gamma                 89.673133
_cell_volume                      1294.97553169

loop_
_atom_site_label
_atom_site_type_symbol
_atom_type_description
_atom_site_fract_x
_atom_site_fract_y
_atom_site_fract_z
_atom_type_partial_charge
C1    C     C_R   0.499517 0.739997 0.500583 0.867428
C2    C     C_R   0.431001 0.509093 0.985475 0.031729
C3    C     C_R   0.452308 0.550805 0.879498 0.019803
C4    C     C_R   0.540397 0.533008 0.029620 0.136965
C5    C     C_R   0.656444 0.614283 0.975503 0.162923
C6    C     C_R   0.664282 0.668474 0.877290 -0.244407
C7    C     C_R   0.563217 0.637667 0.829999 -0.139728
C8    C     C_R   0.537796 0.477989 0.126346 -0.235092
C9    C     C_R   0.745176 0.597750 0.125371 -0.179806
C10   C     C_R   0.364904 0.501906 0.824106 -0.303014
C11   C     C_R   0.600369 0.935647 0.534189 -0.188000
C12   C     C_R   0.418947 0.503097 0.704784 0.930836
C13   C     C_R   0.601054 0.063776 0.533592 -0.192693
C14   C     C_R   0.499897 0.127529 0.500640 -0.024076
C15   C     C_R   0.397780 0.064308 0.468612 -0.197891
C16   C     C_R   0.397435 0.936256 0.468846 -0.177935
C17   C     C_R   0.498819 0.872466 0.501473 -0.018261
C18   C     C_R   0.953165 0.407293 0.448114 -0.096813
C19   C     C_R   0.097069 0.407709 0.447512 -0.100777
C20   C     C_R   0.044667 0.592837 0.553003 0.051077
C21   C     C_R   0.902175 0.592797 0.551236 -0.088702
C22   C     C_R   0.500165 0.260001 0.500043 0.846278
C23   C     C_R   0.580783 0.500637 0.295460 0.856500
C24   C     C_R   0.760504 0.643097 0.022379 -0.148264
C25   C     C_R   0.630339 0.518189 0.178415 -0.072904
C26   C     C_R   0.239032 0.433905 0.881334 0.449672
C27   C     C_R   0.200095 0.414989 0.993650 0.494658
C28   C     C_R   0.300543 0.446888 0.043775 -0.425645
H1    H     H_    0.816940 0.630538 0.165894 0.148344
H2    H     H_    0.679347 0.112631 0.559588 0.163041
H3    H     H_    0.319762 0.113486 0.442248 0.154763
H4    H     H_    0.319639 0.887488 0.442277 0.180976
H5    H     H_    0.918701 0.332728 0.406988 0.126308
H6    H     H_    0.171394 0.333878 0.405297 0.129216
H7    H     H_    0.826149 0.665916 0.592903 0.140740
H8    H     H_    0.749490 0.733652 0.836311 0.154159
H9    H     H_    0.848594 0.705986 0.982228 0.150224
H10   H     H_    0.459014 0.408273 0.166939 0.141222
H11   H     H_    0.274026 0.425194 0.128507 0.165256
H12   H     H_    0.572196 0.683247 0.754400 0.150557
H13   H     H_    0.678253 0.886353 0.560636 0.162012
N1    N     N_R   0.142790 0.500030 0.500030 -0.108075
N2    N     N_R   0.857180 0.499940 0.500010 -0.082103
O1    O     O_R   0.385370 0.683250 0.500010 -0.610982
O2    O     O_R   0.614700 0.683220 0.500010 -0.635567
O3    O     O_R   0.328400 0.499990 0.653620 -0.511481
O4    O     O_R   0.557730 0.499960 0.653620 -0.623355
O5    O     O_R   0.385300 0.316780 0.499990 -0.630278
O6    O     O_R   0.614630 0.316750 0.499990 -0.623999
O7    O     O_R   0.442270 0.500040 0.346380 -0.614314
O8    O     O_R   0.671600 0.500010 0.346380 -0.623046
Zn1   Zn    Zn3+2 0.346870 0.500020 0.500000 0.992542
Zn2   Zn    Zn3+2 0.653130 0.499980 0.500000 0.935966
C29   C     C_2   0.081252 0.694927 0.614392 0.894267
O9    O     O_2   0.132625 0.671920 0.684366 -0.588210
O10   O     O_R   0.047062 0.818222 0.597417 -0.855831
H14   H     H_    0.074572 0.880247 0.645500 0.336923
O11   O     O_3   0.150102 0.389289 0.828132 -0.549649
C30   C     C_3   0.187099 0.263201 0.798323 -0.203250
H15   H     H_    0.303329 0.252176 0.746534 0.113418
H16   H     H_    0.122261 0.230029 0.749612 0.185982
H17   H     H_    0.161190 0.202800 0.871404 0.175756
O12   O     O_3   0.070733 0.352525 0.046243 -0.585435
C31   C     C_3   0.009579 0.381140 0.158572 -0.273714
H18   H     H_    0.014440 0.482789 0.175672 0.157178
H19   H     H_    0.062234 0.324356 0.204994 0.145180
H20   H     H_    0.893748 0.354923 0.187731 0.201398

loop_
_geom_bond_atom_site_label_1
_geom_bond_atom_site_label_2
_ccdc_geom_bond_type
C20   N1    A    
C7    H12   S    
C31   H20   S    
C9    C24   A    
C15   H3    S    
C6    C7    A    
C21   H7    S    
C13   C14   A    
C16   H4    S    
C11   C13   A    
C29   O9    D    
C1    O1    A    
O7    Zn1   S    
C19   N1    A    
C9    H1    S    
C4    C8    A    
C31   H18   S    
O1    Zn1   S    
C24   H9    S    
O2    Zn2   S    
C30   H15   S    
C3    C10   A    
C18   N2    A    
C20   C21   A    
C8    C25   A    
C26   O11   S    
C1    O2    A    
C26   C27   A    
C5    C6    A    
C5    C24   A    
C27   O12   S    
C8    H10   S    
C12   O4    A    
O6    Zn2   S    
O4    Zn2   S    
C10   C12   S    
C12   O3    A    
C6    H8    S    
C22   O5    A    
C2    C3    A    
C3    C7    A    
C23   C25   S    
C14   C22   S    
C18   H5    S    
C29   O10   S    
C30   H16   S    
C1    C17   S    
C9    C25   A    
O12   C31   S    
C2    C4    A    
O3    Zn1   S    
C13   H2    S    
O5    Zn1   S    
O10   H14   S    
C20   C29   S    
C18   C19   A    
C23   O7    A    
C11   H13   S    
C22   O6    A    
C27   C28   A    
C14   C15   A    
C11   C17   A    
C30   H17   S    
C2    C28   A    
C28   H11   S    
O11   C30   S    
C21   N2    A    
C4    C5    A    
C23   O8    A    
N2    Zn2   S    
C10   C26   A    
C15   C16   A    
N1    Zn1   S    
C16   C17   A    
O8    Zn2   S    
C19   H6    S    
C31   H19   S    
