data_mof_unit_1619.cif
_audit_creation_date              2012-12-11T14:56:47-0500
_audit_creation_method            fapswitch 2.2
_symmetry_space_group_name_H-M    P1
_symmetry_Int_Tables_number       1
_space_group_crystal_system       triclinic
_cell_length_a                    10.589452
_cell_length_b                    10.676703
_cell_length_c                    17.159289
_cell_angle_alpha                 80.763979
_cell_angle_beta                  89.507573
_cell_angle_gamma                 119.429771
_cell_volume                      1659.13254915

loop_
_atom_site_label
_atom_site_type_symbol
_atom_type_description
_atom_site_fract_x
_atom_site_fract_y
_atom_site_fract_z
_atom_type_partial_charge
C1    C     C_R   0.222581 0.854388 0.128671 0.576827
C2    C     C_1   0.651336 0.345710 0.707631 -0.057369
C3    C     C_R   0.632375 0.716429 0.803743 -0.135484
C4    C     C_R   0.636547 0.280177 0.086335 0.572052
C5    C     C_R   0.621893 0.699425 0.725861 -0.123103
C6    C     C_R   0.668782 0.822094 0.664957 0.036815
C7    C     C_R   0.732364 0.962813 0.681857 -0.164629
C8    C     C_R   0.741676 0.979954 0.760283 -0.143789
C9    C     C_R   0.686818 0.855913 0.821327 0.028559
C10   C     C_R   0.093445 0.895590 0.791882 -0.116760
C11   C     C_R   0.095586 0.911200 0.710462 -0.001933
C12   C     C_R   0.799776 0.430254 0.262617 -0.125214
C13   C     C_R   0.115731 0.810372 0.672977 0.031469
C14   C     C_R   0.142290 0.705963 0.718672 -0.147949
C15   C     C_R   0.160585 0.708100 0.798527 -0.130886
C16   C     C_R   0.640201 0.858712 0.125510 0.555128
C17   C     C_R   0.142665 0.808503 0.833924 0.014467
C18   C     C_R   0.686894 0.809624 0.357092 0.554282
C19   C     C_R   0.689833 0.396808 0.394527 0.550914
C20   C     C_R   0.103546 0.810082 0.359092 0.552001
C21   C     C_R   0.677473 0.800476 0.585255 0.543065
C22   C     C_R   0.678913 0.383081 0.624562 0.543813
C23   C     C_R   0.791297 0.413928 0.183907 0.251571
C24   C     C_R   0.085525 0.798748 0.590894 0.548041
C25   C     C_R   0.214473 0.856544 0.903446 0.559221
C26   C     C_R   0.637347 0.283960 0.860855 0.550064
C27   C     C_R   0.646594 0.867331 0.899015 0.549018
C28   C     C_R   0.526230 0.298249 0.207173 -0.179160
C29   C     C_R   0.536289 0.312616 0.285944 -0.155155
C30   C     C_R   0.672633 0.372117 0.314381 -0.005129
C31   C     C_3   0.087470 0.044301 0.668703 -0.230463
C32   C     C_3   0.237029 0.167118 0.628075 -0.278360
C33   C     C_3   0.225456 0.294503 0.580971 -0.428773
C34   C     C_R   0.652678 0.342304 0.157100 0.043895
C35   C     C_3   0.010106 0.419258 0.162063 0.007643
C36   C     C_3   0.100299 0.416770 0.093386 -0.326326
C37   C     C_1   0.668859 0.849075 0.205484 -0.031989
C38   C     C_1   0.680539 0.839187 0.274795 -0.036269
C39   C     C_1   0.180101 0.825752 0.211070 -0.041879
C40   C     C_1   0.150742 0.819314 0.279654 -0.053808
C41   C     C_1   0.644292 0.323338 0.778116 -0.048244
Cr1   Cr    Cr6+3 0.402240 0.783890 0.019450 1.006378
Cr2   Cr    Cr6+3 0.382360 0.097900 0.991800 1.015267
Cr3   Cr    Cr6+3 0.715380 0.118170 0.988700 1.018378
Cr4   Cr    Cr6+3 0.936650 0.882420 0.465510 1.005172
Cr5   Cr    Cr6+3 0.605770 0.565620 0.493360 0.995602
Cr6   Cr    Cr6+3 0.921340 0.550490 0.496380 1.012365
H1    H     H_    0.418666 0.242881 0.187242 0.149441
H2    H     H_    0.074498 0.968601 0.821109 0.133484
H3    H     H_    0.150849 0.256896 0.534129 0.141520
H4    H     H_    0.183928 0.341284 0.620957 0.141788
H5    H     H_    0.334500 0.381653 0.552093 0.180657
H6    H     H_    0.313191 0.207661 0.674015 0.163342
H7    H     H_    0.284307 0.126437 0.587374 0.187345
H8    H     H_    0.002330 0.014832 0.627565 0.200615
H9    H     H_    0.051979 0.091055 0.711879 0.119462
H10   H     H_    0.949779 0.305986 0.198119 0.126240
H11   H     H_    0.085609 0.495056 0.199077 0.135105
H12   H     H_    0.155257 0.627192 0.691880 0.130719
H13   H     H_    0.159564 0.526278 0.054323 0.186023
H14   H     H_    0.180659 0.385785 0.116684 0.083364
H15   H     H_    0.028279 0.335567 0.057856 0.156044
H16   H     H_    0.196866 0.637872 0.831033 0.137128
H17   H     H_    0.438282 0.274201 0.324913 0.138418
H18   H     H_    0.906182 0.489344 0.283241 0.132844
H19   H     H_    0.589598 0.620072 0.850371 0.127392
H20   H     H_    0.578923 0.590280 0.713175 0.136214
H21   H     H_    0.774040 0.058190 0.634693 0.121750
H22   H     H_    0.782551 0.088720 0.773093 0.144124
O1    O     O_R   0.521780 0.757110 0.108900 -0.514535
O2    O     O_R   0.805020 0.410040 0.421340 -0.527293
O3    O     O_R   0.049240 0.685450 0.403290 -0.502570
O4    O     O_R   0.275160 0.783810 0.101120 -0.501227
O5    O     O_R   0.077520 0.903010 0.551800 -0.537070
O6    O     O_R   0.802980 0.872780 0.546830 -0.519684
O7    O     O_R   0.578090 0.681300 0.569920 -0.526807
O8    O     O_R   0.608530 0.436370 0.586530 -0.516988
O9    O     O_R   0.798770 0.401880 0.597100 -0.513324
O10   O     O_R   0.043450 0.677890 0.566230 -0.501073
O11   O     O_3   0.821250 0.666180 0.485090 -0.250897
O12   O     O_R   0.513330 0.228330 0.898660 -0.500937
O13   O     O_R   0.237900 0.972600 0.090980 -0.515846
O14   O     O_R   0.511190 0.220540 0.061620 -0.524323
O15   O     O_R   0.736920 0.257720 0.063840 -0.477476
O16   O     O_R   0.710450 0.984050 0.081720 -0.505400
O17   O     O_R   0.524090 0.765520 0.933110 -0.521325
O18   O     O_R   0.277300 0.791600 0.938160 -0.508680
O19   O     O_R   0.240210 0.981010 0.915190 -0.522282
O20   O     O_3   0.915894 0.469775 0.131607 -0.546090
O21   O     O_R   0.739230 0.266130 0.888050 -0.515095
O22   O     O_R   0.712580 0.991850 0.918770 -0.509935
O23   O     O_3   0.499990 0.999980 0.999980 -0.254407
O24   O     O_R   0.083770 0.911170 0.376030 -0.509093
O25   O     O_R   0.808770 0.880340 0.383890 -0.497713
O26   O     O_R   0.584340 0.689460 0.394160 -0.510347
O27   O     O_R   0.614320 0.443940 0.423590 -0.501941

loop_
_geom_bond_atom_site_label_1
_geom_bond_atom_site_label_2
_ccdc_geom_bond_type
C20   O24   A    
Cr2   O14   S    
C19   O2    A    
C35   C36   S    
Cr6   O10   S    
C5    H20   S    
Cr4   O24   S    
Cr5   O7    S    
C7    C8    A    
C33   H5    S    
C14   H12   S    
C12   C23   A    
C8    H22   S    
C29   C30   A    
C35   H11   S    
Cr2   O19   S    
C28   C29   A    
C5    C6    A    
C20   C40   S    
C10   C17   A    
Cr1   O1    S    
C21   O7    A    
C7    H21   S    
Cr5   O26   S    
C8    C9    A    
C2    C22   S    
C23   O20   S    
C27   O22   A    
Cr1   O17   S    
C31   H9    S    
Cr3   O23   S    
C16   C37   S    
C29   H17   S    
C11   C31   S    
C13   C14   A    
C18   O26   A    
Cr6   O11   S    
C36   H15   S    
Cr4   O25   S    
C32   H7    S    
C4    C34   S    
C16   O1    A    
C22   O9    A    
C39   C40   T    
C36   H13   S    
C33   H3    S    
C6    C21   S    
C25   O19   A    
C13   C24   S    
Cr4   O5    S    
C27   O17   A    
C37   C38   T    
C3    C9    A    
C24   O10   A    
C31   C32   S    
C4    O15   A    
C23   C34   A    
C19   C30   S    
Cr6   O2    S    
Cr3   O22   S    
C35   O20   S    
C26   O12   A    
C16   O16   A    
C18   O25   A    
C3    H19   S    
C33   H4    S    
C36   H14   S    
C32   H6    S    
Cr3   O21   S    
C9    C27   S    
C15   C17   A    
C28   H1    S    
Cr1   O4    S    
C12   C30   A    
C22   O8    A    
C3    C5    A    
Cr5   O8    S    
C6    C7    A    
Cr3   O15   S    
C26   O21   A    
C12   H18   S    
C21   O6    A    
Cr2   O23   S    
C35   H10   S    
Cr4   O6    S    
C1    O4    A    
C32   C33   S    
C1    O13   A    
C17   C25   S    
Cr5   O11   S    
C11   C13   A    
C24   O5    A    
C4    O14   A    
Cr2   O12   S    
Cr4   O11   S    
Cr1   O23   S    
C18   C38   S    
Cr6   O3    S    
C10   C11   A    
C1    C39   S    
C28   C34   A    
C25   O18   A    
Cr5   O27   S    
Cr2   O13   S    
C15   H16   S    
C14   C15   A    
C20   O3    A    
Cr1   O18   S    
C2    C41   T    
Cr6   O9    S    
C31   H8    S    
C10   H2    S    
C19   O27   A    
Cr3   O16   S    
C26   C41   S    
