data_mof_unit_2438.cif
_audit_creation_date              2013-03-05T16:12:05-0500
_audit_creation_method            fapswitch 2.2
_symmetry_space_group_name_H-M    P1
_symmetry_Int_Tables_number       1
_space_group_crystal_system       triclinic
_cell_length_a                    9.875511
_cell_length_b                    10.633415
_cell_length_c                    16.781407
_cell_angle_alpha                 90.618924
_cell_angle_beta                  84.54532
_cell_angle_gamma                 89.697008
_cell_volume                      1754.10485336

loop_
_atom_site_label
_atom_site_type_symbol
_atom_site_description
_atom_site_fract_x
_atom_site_fract_y
_atom_site_fract_z
_atom_type_partial_charge
O1    O     O_R   0.385380 0.683250 0.500010 -0.564886
O2    O     O_R   0.614620 0.316750 0.499990 -0.566274
O3    O     O_R   0.614710 0.683220 0.500000 -0.561103
O4    O     O_R   0.385290 0.316780 0.500000 -0.562626
C1    C     C_R   0.499714 0.739356 0.500190 0.887041
C2    C     C_R   0.500248 0.260622 0.500125 0.882918
O5    O     O_R   0.371780 0.500040 0.615800 -0.588219
O6    O     O_R   0.628220 0.499960 0.384200 -0.587230
O7    O     O_R   0.601110 0.500010 0.615800 -0.586531
O8    O     O_R   0.398890 0.499990 0.384200 -0.583823
C3    C     C_R   0.480385 0.502913 0.653085 0.848682
C4    C     C_R   0.519566 0.494631 0.347028 0.851161
Zn1   Zn    Zn3+2 0.346870 0.500020 0.500000 1.071928
Zn2   Zn    Zn3+2 0.653130 0.499980 0.500000 1.071842
C5    C     C_R   0.466798 0.512582 0.739667 -0.138744
C6    C     C_R   0.532811 0.463564 0.262317 -0.136168
C7    C     C_R   0.574687 0.560659 0.778643 -0.136167
C8    C     C_R   0.430189 0.393387 0.231104 -0.143664
C9    C     C_R   0.565982 0.563627 0.861257 -0.159083
C10   C     C_R   0.441358 0.360643 0.150910 -0.122573
C11   C     C_R   0.450175 0.517371 0.905446 -0.115932
C12   C     C_R   0.553608 0.400279 0.100760 0.088051
C13   C     C_R   0.337179 0.475146 0.866979 0.467955
C14   C     C_R   0.662174 0.464447 0.132381 0.479695
C15   C     C_R   0.347016 0.473585 0.783742 -0.090371
C16   C     C_R   0.650526 0.494979 0.213659 -0.092504
C17   C     C_2   0.458805 0.498840 0.990732 0.261159
C18   C     C_2   0.536695 0.404431 0.015905 0.333605
H1    H     H_    0.666747 0.593710 0.745312 0.208807
H2    H     H_    0.340329 0.365053 0.268456 0.215521
H3    H     H_    0.731505 0.546747 0.238200 0.199790
H4    H     H_    0.262742 0.437507 0.753621 0.201284
H5    H     H_    0.357479 0.312843 0.126580 0.179008
H6    H     H_    0.652326 0.596143 0.890962 0.191051
C19   C     C_R   0.535292 0.936150 0.568984 0.462550
C20   C     C_R   0.464865 0.063719 0.431471 0.463816
C21   C     C_R   0.536273 0.065598 0.568840 0.433244
C22   C     C_R   0.463682 0.934333 0.431639 0.433158
C23   C     C_R   0.500938 0.128368 0.500078 -0.428209
C24   C     C_R   0.499081 0.871555 0.500367 -0.431365
C25   C     C_R   0.936360 0.416559 0.452812 0.165431
C26   C     C_R   0.063620 0.583304 0.547297 0.163195
C27   C     C_R   0.081699 0.416658 0.452694 0.394628
C28   C     C_R   0.918249 0.583071 0.547515 0.390618
N1    N     N_R   0.142790 0.500030 0.500020 -0.168878
N2    N     N_R   0.857210 0.499970 0.499980 -0.169069
O9    O     O_3   0.603723 0.313973 0.966480 -0.737406
H7    H     H_    0.570265 0.315183 0.912779 0.355675
O10   O     O_3   0.394335 0.582771 0.045773 -0.741921
H8    H     H_    0.345583 0.646348 0.016200 0.371413
O11   O     O_3   0.219391 0.429573 0.907319 -0.722834
H9    H     H_    0.222776 0.440517 0.965691 0.359453
O12   O     O_3   0.776230 0.505095 0.085952 -0.721878
H10   H     H_    0.777157 0.468890 0.031337 0.365330
O13   O     O_3   0.567624 0.877247 0.638060 -0.648816
H11   H     H_    0.541337 0.787727 0.637602 0.336986
O14   O     O_3   0.432881 0.122609 0.362360 -0.655142
H12   H     H_    0.461537 0.211461 0.362423 0.331880
O15   O     O_3   0.569241 0.126285 0.637862 -0.660690
H13   H     H_    0.545802 0.216655 0.636867 0.321336
O16   O     O_3   0.430632 0.873702 0.362613 -0.655591
H14   H     H_    0.454422 0.783399 0.363462 0.325197
N3    N     N_R   0.872180 0.328278 0.404111 0.229168
O17   O     O_R   0.859265 0.355008 0.329783 -0.381461
O18   O     O_R   0.859159 0.212212 0.427178 -0.348495
N4    N     N_R   0.127793 0.671388 0.596139 0.229493
O19   O     O_R   0.141487 0.644065 0.670293 -0.381039
O20   O     O_R   0.140386 0.787652 0.573412 -0.347240
O21   O     O_3   0.164612 0.334643 0.405797 -0.696294
H15   H     H_    0.109649 0.281942 0.372422 0.374851
O22   O     O_3   0.835234 0.664455 0.594864 -0.690897
H16   H     H_    0.890183 0.716754 0.628482 0.376200

loop_
_geom_bond_atom_site_label_1
_geom_bond_atom_site_label_2
_geom_bond_distance
_ccdc_geom_bond_type
O5    C3    1.292394 A    
O7    Zn2   1.962260 S    
N3    O18   1.300820 A    
C18   O9    1.386698 S    
C5    C7    1.398344 A    
C9    C11   1.397269 A    
C8    H2    1.082749 S    
C10   C12   1.396412 A    
C27   N1    1.364620 A    
C13   O11   1.381854 S    
O9    H7    0.989088 S    
O6    C4    1.292605 A    
C25   N2    1.372610 A    
C22   O16   1.386339 S    
O16   H14   0.987920 S    
C15   H4    1.083724 S    
C20   C22   1.375956 A    
C19   C24   1.410459 A    
C11   C17   1.457254 S    
O3    C1    1.279884 A    
O15   H13   0.987924 S    
C21   C23   1.410501 A    
C6    C8    1.399551 A    
C12   C18   1.450555 S    
O12   H10   0.989455 S    
C22   C24   1.410267 A    
C25   C27   1.435123 A    
O14   H12   0.987725 S    
C21   O15   1.386310 S    
O3    Zn2   1.983094 S    
C26   C28   1.435289 A    
O1    C1    1.280061 A    
C10   H5    1.084190 S    
O8    C4    1.292198 A    
C3    C5    1.448880 S    
O4    C2    1.280140 A    
C7    C9    1.380871 A    
C14   C16   1.392561 A    
N4    O19   1.300239 A    
C8    C10   1.380494 A    
O7    C3    1.292750 A    
C11   C13   1.414049 A    
C6    C16   1.399754 A    
O21   H15   0.988218 S    
O2    Zn2   1.987104 S    
O10   H8    0.992140 S    
C12   C14   1.415875 A    
O13   H11   0.988129 S    
C5    C15   1.401343 A    
O1    Zn1   1.987104 S    
N4    O20   1.300814 A    
C25   N3    1.427955 S    
C19   O13   1.386341 S    
O11   H9    0.988944 S    
C17   O10   1.385422 S    
C7    H1    1.083454 S    
O5    Zn1   1.981856 S    
C13   C15   1.390876 A    
O22   H16   0.988230 S    
Zn1   N1    2.015362 S    
C28   O22   1.380648 S    
C27   O21   1.380390 S    
C20   O14   1.385707 S    
C1    C24   1.405679 S    
C17   C18   1.356723 D    
C26   N4    1.427998 S    
C2    C23   1.406282 S    
O6    Zn2   1.981856 S    
C4    C6    1.449532 S    
C9    H6    1.084126 S    
C19   C21   1.376584 A    
C14   O12   1.381363 S    
C16   H3    1.083752 S    
C26   N1    1.372725 A    
C20   C23   1.410140 A    
O2    C2    1.280083 A    
O4    Zn1   1.983094 S    
C28   N2    1.364668 A    
N3    O17   1.300148 A    
Zn2   N2    2.015363 S    
O8    Zn1   1.962260 S    
