data_mof_unit_2330.cif
_audit_creation_date              2012-12-10T16:37:23-0500
_audit_creation_method            fapswitch 2.2
_symmetry_space_group_name_H-M    P1
_symmetry_Int_Tables_number       1
_space_group_crystal_system       triclinic
_cell_length_a                    16.959407
_cell_length_b                    16.697964
_cell_length_c                    16.866769
_cell_angle_alpha                 65.678921
_cell_angle_beta                  66.336481
_cell_angle_gamma                 65.41121
_cell_volume                      3802.34315959

loop_
_atom_site_label
_atom_site_type_symbol
_atom_type_description
_atom_site_fract_x
_atom_site_fract_y
_atom_site_fract_z
_atom_type_partial_charge
C1    C     C_R   0.431445 0.965532 0.688330 -0.343402
C2    C     C_R   0.404009 0.638888 0.089585 -0.323942
C3    C     C_R   0.958780 0.598752 0.333053 -0.350998
C4    C     C_R   0.041219 0.401248 0.666947 -0.350999
C5    C     C_R   0.961513 0.179827 0.438104 0.953923
C6    C     C_R   0.038487 0.820173 0.561895 0.953923
C7    C     C_R   0.175378 0.428737 0.983506 0.988502
C8    C     C_R   0.824622 0.571263 0.016494 0.988502
C9    C     C_R   0.430436 0.983805 0.174408 0.954758
C10   C     C_R   0.569564 0.016195 0.825592 0.954758
C11   C     C_R   0.561014 0.820437 0.040942 0.967523
C12   C     C_R   0.568555 0.034467 0.311670 -0.343402
C13   C     C_R   0.438986 0.179563 0.959058 0.967524
C14   C     C_R   0.037740 0.561803 0.820599 0.967360
C15   C     C_R   0.962260 0.438197 0.179401 0.967360
C16   C     C_R   0.825373 0.016793 0.569368 0.950978
C17   C     C_R   0.174627 0.983207 0.430632 0.950978
C18   C     C_R   0.486349 0.952092 0.739445 0.468590
C19   C     C_R   0.513651 0.047908 0.260555 0.468591
C20   C     C_R   0.075650 0.702349 0.443469 0.482161
C21   C     C_R   0.924350 0.297651 0.556531 0.482162
C22   C     C_R   0.732966 0.519250 0.929959 0.453721
C23   C     C_R   0.048258 0.663716 0.402550 -0.339067
C24   C     C_R   0.267034 0.480749 0.070041 0.453721
C25   C     C_R   0.261200 0.043691 0.517841 0.468163
C26   C     C_R   0.738800 0.956309 0.482159 0.468162
C27   C     C_R   0.551002 0.311854 0.902095 0.460725
C28   C     C_R   0.448998 0.688146 0.097905 0.460725
C29   C     C_R   0.930484 0.559315 0.293647 0.471395
C30   C     C_R   0.069516 0.440685 0.706353 0.471396
C31   C     C_R   0.552478 0.990179 0.551889 0.009246
C32   C     C_R   0.447522 0.009821 0.448111 0.009246
C33   C     C_R   0.027172 0.539661 0.540873 0.011509
C34   C     C_R   0.951741 0.336284 0.597450 -0.339067
C35   C     C_R   0.972828 0.460339 0.459127 0.011509
C36   C     C_R   0.545451 0.548506 0.010096 0.010424
C37   C     C_R   0.454549 0.451494 0.989904 0.010424
C38   C     C_R   0.592435 0.993502 0.459979 0.051083
C39   C     C_R   0.407566 0.006497 0.540021 0.051083
C40   C     C_R   0.013989 0.451955 0.587025 0.050400
C41   C     C_R   0.986010 0.548045 0.412975 0.050400
C42   C     C_R   0.450582 0.568047 0.046892 0.048118
C43   C     C_R   0.549418 0.431953 0.953108 0.048118
C44   C     C_R   0.538304 0.009075 0.406587 0.050682
C45   C     C_R   0.687340 0.473740 0.917392 -0.321181
C46   C     C_R   0.461696 0.990925 0.593413 0.050682
C47   C     C_R   0.405239 0.517329 0.038848 0.047272
C48   C     C_R   0.594761 0.482670 0.961151 0.047272
C49   C     C_R   0.982273 0.414286 0.547873 0.053525
C50   C     C_R   0.017727 0.585713 0.452128 0.053525
C51   C     C_R   0.564928 0.981682 0.694712 0.046008
C52   C     C_R   0.435071 0.018318 0.305288 0.046008
C53   C     C_R   0.061762 0.669863 0.538675 0.059702
C54   C     C_R   0.938237 0.330137 0.461325 0.059702
C55   C     C_R   0.686548 0.573249 0.990468 0.041352
C56   C     C_R   0.312660 0.526260 0.082607 -0.321182
C57   C     C_R   0.313452 0.426751 0.009532 0.041352
C58   C     C_R   0.305146 0.016446 0.437199 0.047619
C59   C     C_R   0.694854 0.983554 0.562801 0.047619
C60   C     C_R   0.456804 0.331052 0.939051 0.065024
C61   C     C_R   0.543196 0.668948 0.060949 0.065023
C62   C     C_R   0.941081 0.463323 0.327322 0.061288
C63   C     C_R   0.058919 0.536676 0.672678 0.061288
C64   C     C_R   0.609056 0.003236 0.736833 -0.099068
C65   C     C_R   0.390944 0.996764 0.263167 -0.099068
C66   C     C_R   0.062058 0.719831 0.590332 -0.088811
C67   C     C_R   0.313120 0.029564 0.572351 -0.344059
C68   C     C_R   0.937941 0.280169 0.409668 -0.088811
C69   C     C_R   0.730345 0.609317 0.019229 -0.099382
C70   C     C_R   0.269655 0.390683 0.980771 -0.099382
C71   C     C_R   0.263146 0.995821 0.391888 -0.102687
C72   C     C_R   0.736854 0.004179 0.608112 -0.102687
C73   C     C_R   0.407582 0.279555 0.938670 -0.081023
C74   C     C_R   0.592418 0.720445 0.061330 -0.081023
C75   C     C_R   0.939590 0.410956 0.278347 -0.088657
C76   C     C_R   0.060410 0.589044 0.721653 -0.088657
C77   C     C_R   0.691768 0.017362 0.691677 -0.321544
C78   C     C_R   0.686881 0.970435 0.427649 -0.344059
C79   C     C_R   0.308232 0.982638 0.308323 -0.321545
C80   C     C_R   0.066358 0.677063 0.678323 -0.339081
C81   C     C_R   0.933641 0.322937 0.321677 -0.339081
C82   C     C_R   0.682243 0.681364 0.055496 -0.329933
C83   C     C_R   0.317757 0.318636 0.944503 -0.329933
C84   C     C_R   0.603558 0.986792 0.602596 -0.073005
C85   C     C_R   0.396442 0.013207 0.397404 -0.073005
C86   C     C_R   0.049127 0.582074 0.584128 -0.084326
C87   C     C_R   0.950873 0.417926 0.415872 -0.084326
C88   C     C_R   0.591508 0.595993 0.021429 -0.080709
C89   C     C_R   0.595992 0.361112 0.910414 -0.323941
C90   C     C_R   0.408492 0.404007 0.978571 -0.080709
H1    H     H_    0.368965 0.947996 0.723344 0.141752
H2    H     H_    0.331735 0.659015 0.116208 0.133477
H3    H     H_    0.952850 0.671332 0.304053 0.138597
H4    H     H_    0.047149 0.328668 0.695947 0.138598
H5    H     H_    0.722860 0.036768 0.723312 0.206472
H6    H     H_    0.277140 0.963232 0.276688 0.206472
H7    H     H_    0.066133 0.715997 0.716471 0.195790
H8    H     H_    0.933867 0.284003 0.283529 0.195790
H9    H     H_    0.716735 0.713945 0.069629 0.203646
H10   H     H_    0.283265 0.286055 0.930371 0.203646
H11   H     H_    0.415656 0.881580 0.848312 0.320405
H12   H     H_    0.631036 0.052004 0.276656 0.141752
H13   H     H_    0.584345 0.118419 0.151688 0.320405
H14   H     H_    0.129703 0.778248 0.325845 0.316311
H15   H     H_    0.870296 0.221752 0.674155 0.316310
H16   H     H_    0.842462 0.478917 0.837532 0.326777
H17   H     H_    0.157538 0.521083 0.162468 0.326777
H18   H     H_    0.152909 0.112026 0.591947 0.317698
H19   H     H_    0.847091 0.887973 0.408053 0.317698
H20   H     H_    0.662294 0.244856 0.829784 0.327931
H21   H     H_    0.337707 0.755141 0.170219 0.327931
H22   H     H_    0.880048 0.680190 0.215499 0.318781
H23   H     H_    0.056850 0.691786 0.330355 0.131139
H24   H     H_    0.119952 0.319810 0.784501 0.318782
H25   H     H_    0.943150 0.308215 0.669644 0.131139
H26   H     H_    0.725606 0.434604 0.869666 0.137342
H27   H     H_    0.274394 0.565396 0.130333 0.137343
H28   H     H_    0.278810 0.045244 0.636246 0.140958
H29   H     H_    0.721190 0.954755 0.363754 0.140958
H30   H     H_    0.668265 0.340985 0.883791 0.133477
O1    O     O_R   0.982940 0.138950 0.510160 -0.551032
O2    O     O_R   0.982940 0.510160 0.138950 -0.556711
O3    O     O_R   0.861050 0.017060 0.489840 -0.589662
O4    O     O_R   0.138950 0.982940 0.510160 -0.589662
O5    O     O_R   0.867700 0.025880 0.612340 -0.626285
O6    O     O_R   0.132300 0.974120 0.387660 -0.626285
O7    O     O_R   0.025880 0.612340 0.867700 -0.654481
O8    O     O_R   0.974120 0.387660 0.132300 -0.654481
O9    O     O_R   0.612340 0.867700 0.025880 -0.653704
O10   O     O_R   0.387660 0.132300 0.974120 -0.653705
O11   O     O_R   0.387660 0.974120 0.132300 -0.628593
O12   O     O_R   0.017060 0.861050 0.489840 -0.551032
O13   O     O_R   0.612340 0.025880 0.867700 -0.628593
O14   O     O_R   0.132300 0.387660 0.974120 -0.633606
O15   O     O_R   0.867700 0.612340 0.025880 -0.633606
O16   O     O_R   0.974120 0.132300 0.387660 -0.654289
O17   O     O_R   0.025880 0.867700 0.612340 -0.654289
O18   O     O_3   0.471515 0.898568 0.828973 -0.738087
O19   O     O_3   0.528485 0.101432 0.171028 -0.738088
O20   O     O_3   0.124553 0.764287 0.390533 -0.751599
O21   O     O_3   0.875447 0.235713 0.609467 -0.751598
O22   O     O_3   0.819920 0.518971 0.876886 -0.762520
O23   O     O_R   0.138950 0.510160 0.982940 -0.600029
O24   O     O_3   0.180081 0.481029 0.123113 -0.762520
O25   O     O_3   0.171579 0.096468 0.534984 -0.738384
O26   O     O_3   0.828422 0.903531 0.465016 -0.738383
O27   O     O_3   0.597268 0.249539 0.852339 -0.760008
O28   O     O_3   0.402732 0.750461 0.147661 -0.760008
O29   O     O_3   0.882801 0.615298 0.230253 -0.751145
O30   O     O_3   0.117199 0.384702 0.769747 -0.751146
O31   O     O_R   0.861050 0.489840 0.017060 -0.600029
O32   O     O_R   0.510160 0.982940 0.138950 -0.592409
O33   O     O_R   0.489840 0.017060 0.861050 -0.592409
O34   O     O_R   0.489840 0.861050 0.017060 -0.555846
O35   O     O_R   0.510160 0.138950 0.982940 -0.555848
O36   O     O_R   0.017060 0.489840 0.861050 -0.556711
Zn1   Zn    Zn3+2 0.004880 0.004880 0.583590 1.005698
Zn2   Zn    Zn3+2 0.995120 0.995120 0.416410 1.005698
Zn3   Zn    Zn3+2 0.004880 0.583590 0.004880 1.001045
Zn4   Zn    Zn3+2 0.995120 0.416410 0.995120 1.001045
Zn5   Zn    Zn3+2 0.583590 0.004880 0.004880 1.004393
Zn6   Zn    Zn3+2 0.416410 0.995120 0.995120 1.004395

loop_
_geom_bond_atom_site_label_1
_geom_bond_atom_site_label_2
_ccdc_geom_bond_type
C5    O16   A    
O14   Zn4   S    
C9    O32   A    
C65   C79   A    
C15   O2    A    
C80   H7    S    
C56   H27   S    
C36   C42   A    
H19   O26   S    
C16   C72   S    
C10   O13   A    
C7    C70   S    
C7    O23   A    
O35   Zn5   S    
C38   C44   A    
C8    C69   S    
C43   C89   A    
C37   C90   A    
C68   C81   A    
C52   C85   A    
C16   O3    A    
C24   O24   S    
C27   C60   A    
H15   O21   S    
C54   C87   A    
O5    Zn1   S    
C17   O6    A    
C30   O30   S    
C54   C68   A    
C81   H8    S    
C40   C49   A    
C5    O1    A    
C60   C73   A    
C3    C29   A    
C82   H9    S    
C32   C39   A    
C55   C88   A    
C26   O26   S    
C13   O35   A    
C69   C82   A    
C11   O34   A    
C35   C87   A    
C19   C52   A    
C4    C40   A    
C24   C57   A    
C31   C46   A    
C25   C67   A    
C35   C49   A    
C13   O10   A    
C89   H30   S    
C36   C48   A    
C53   C86   A    
C57   C70   A    
C37   C47   A    
C43   C48   A    
O32   Zn5   S    
C59   C72   A    
O16   Zn2   S    
C28   C61   A    
O10   Zn6   S    
O6    Zn2   S    
C1    H1    S    
O1    Zn1   S    
C30   C63   A    
C8    O15   A    
C74   C82   A    
C5    C68   S    
C35   C41   A    
C11   O9    A    
C10   O33   A    
C71   C79   A    
C18   C51   A    
H16   O22   S    
C9    O11   A    
C32   C44   A    
C28   O28   S    
C33   C40   A    
O15   Zn3   S    
C57   C90   A    
O36   Zn4   S    
C8    O31   A    
C59   C84   A    
C7    O14   A    
C6    O12   A    
C75   C81   A    
C23   C50   A    
C21   C34   A    
C38   C78   A    
O11   Zn6   S    
C33   C50   A    
C77   H5    S    
O12   Zn2   S    
C14   O7    A    
H14   O20   S    
C14   C76   S    
C37   C43   A    
C33   C86   A    
C12   H12   S    
C72   C77   A    
C70   C83   A    
C61   C88   A    
H13   O19   S    
C23   H23   S    
C17   O4    A    
C20   C23   A    
O2    Zn3   S    
O4    Zn1   S    
C22   O22   S    
C1    C18   A    
O9    Zn5   S    
C3    H3    S    
C26   C78   A    
C2    H2    S    
C53   C66   A    
C55   C69   A    
C39   C46   A    
C4    H4    S    
C19   O19   S    
C18   O18   S    
C17   C71   S    
C83   H10   S    
C63   C86   A    
C62   C75   A    
C25   C58   A    
H24   O30   S    
H20   O27   S    
C58   C85   A    
O7    Zn3   S    
C41   C50   A    
O8    Zn4   S    
H18   O25   S    
C16   O5    A    
C45   C48   A    
C29   C62   A    
C3    C41   A    
C34   C49   A    
C14   O36   A    
C39   C67   A    
O34   Zn6   S    
C10   C64   S    
C51   C64   A    
C76   C80   A    
C13   C73   S    
C20   C53   A    
C11   C74   S    
O13   Zn5   S    
C25   O25   S    
H11   O18   S    
O23   Zn3   S    
C22   C55   A    
O3    Zn2   S    
C60   C90   A    
C61   C74   A    
C24   C56   A    
C66   C80   A    
C62   C87   A    
C31   C38   A    
O17   Zn1   S    
O33   Zn6   S    
C15   O8    A    
O31   Zn4   S    
C20   O20   S    
C6    O17   A    
C78   H29   S    
C34   H25   S    
C21   O21   S    
C79   H6    S    
C36   C88   A    
H21   O28   S    
C15   C75   S    
C45   H26   S    
C21   C54   A    
C2    C42   A    
C32   C85   A    
C12   C19   A    
C27   C89   A    
C42   C47   A    
C1    C46   A    
C67   H28   S    
C9    C65   S    
C58   C71   A    
C31   C84   A    
C29   O29   S    
C6    C66   S    
C22   C45   A    
C27   O27   S    
C63   C76   A    
C64   C77   A    
H22   O29   S    
C12   C44   A    
C26   C59   A    
C2    C28   A    
H17   O24   S    
C51   C84   A    
C73   C83   A    
C4    C30   A    
C52   C65   A    
C47   C56   A    
