data_mof_unit_3513.cif
_audit_creation_date              2012-12-11T14:52:36-0500
_audit_creation_method            fapswitch 2.2
_symmetry_space_group_name_H-M    P1
_symmetry_Int_Tables_number       1
_space_group_crystal_system       triclinic
_cell_length_a                    8.415847
_cell_length_b                    15.125632
_cell_length_c                    27.078203
_cell_angle_alpha                 96.903656
_cell_angle_beta                  93.671101
_cell_angle_gamma                 80.013244
_cell_volume                      3366.79029894

loop_
_atom_site_label
_atom_site_type_symbol
_atom_type_description
_atom_site_fract_x
_atom_site_fract_y
_atom_site_fract_z
_atom_type_partial_charge
Ba1   Ba    Ba6+2 0.860900 0.457020 0.523210 1.692406
Ba2   Ba    Ba6+2 0.328940 0.542910 0.476780 1.705020
C1    C     C_3   0.768514 0.133554 0.661711 -0.375912
C2    C     C_3   0.686331 0.225285 0.647643 0.323453
C3    C     C_3   0.415775 0.747704 0.635042 0.761139
C4    C     C_3   0.337755 0.848240 0.643934 0.242908
C5    C     C_3   0.145042 0.790961 0.352941 0.767338
C6    C     C_3   0.157332 0.872947 0.326009 -0.351709
C7    C     C_3   0.585076 0.760670 0.337372 0.770440
C8    C     C_3   0.626729 0.795760 0.289488 -0.363189
C9    C     C_R   0.029123 0.421036 0.178858 0.595211
C10   C     C_R   0.876508 0.569312 0.175304 0.566568
C11   C     C_2   0.742732 0.525699 0.270143 -0.108100
C12   C     C_3   0.160548 0.265776 0.654271 0.316915
C13   C     C_3   0.708770 0.523733 0.324552 -0.112760
C14   C     C_1   0.992968 0.485920 0.342170 0.066155
C15   C     C_2   0.029055 0.479477 0.294412 -0.079135
C16   C     C_2   0.897016 0.500820 0.254856 0.188704
C17   C     C_R   0.011114 0.491050 0.101080 -0.079227
C18   C     C_R   0.068587 0.417292 0.128289 -0.036419
C19   C     C_R   0.164503 0.341156 0.104369 -0.061389
C20   C     C_R   0.914244 0.567384 0.124948 -0.020083
C21   C     C_2   0.855873 0.533345 0.357650 -0.280985
C22   C     C_2   0.361158 0.505128 0.649820 -0.262502
C23   C     C_3   0.165606 0.239169 0.706731 -0.330655
C24   C     C_R   0.179515 0.406622 0.974541 0.020030
C25   C     C_R   0.036769 0.563145 0.973060 0.020459
C26   C     C_R   0.127304 0.483687 0.948545 0.049529
C27   C     C_R   0.264579 0.328369 0.947786 -0.101469
C28   C     C_R   0.299742 0.326513 0.898026 -0.060736
C29   C     C_R   0.252424 0.402531 0.872296 -0.025709
C30   C     C_R   0.166199 0.481303 0.897460 -0.080121
C31   C     C_R   0.119364 0.557761 0.871577 -0.030956
C32   C     C_R   0.160451 0.554858 0.821297 0.592627
C33   C     C_R   0.289200 0.400730 0.821785 0.577528
C34   C     C_3   0.148937 0.246711 0.399580 0.723819
C35   C     C_2   0.434504 0.438468 0.728575 -0.080242
C36   C     C_3   0.461327 0.428119 0.673438 -0.049468
C37   C     C_1   0.207256 0.525512 0.660492 -0.004034
C38   C     C_2   0.160880 0.513731 0.705415 -0.114572
C39   C     C_2   0.283618 0.474214 0.744134 0.189619
C40   C     C_R   0.144689 0.409979 0.025952 0.020272
C41   C     C_R   0.050084 0.488507 0.049995 0.049381
C42   C     C_R   0.993808 0.564565 0.023531 0.020248
C43   C     C_R   0.201730 0.337435 0.054585 -0.099473
C44   C     C_R   0.856509 0.640836 0.098053 -0.062208
C45   C     C_3   0.302984 0.174893 0.396505 -0.347639
C46   C     C_R   0.993193 0.638972 0.946006 -0.101000
C47   C     C_R   0.033672 0.636205 0.896655 -0.060221
C48   C     C_R   0.894997 0.639612 0.048701 -0.102579
C49   C     C_R   0.750183 0.766712 0.483731 -0.233210
C50   C     C_R   0.843787 0.826547 0.470724 0.035397
C51   C     C_R   0.789540 0.920306 0.478836 -0.135914
C52   C     C_R   0.641435 0.955429 0.502074 0.020491
C53   C     C_R   0.559326 0.891934 0.519649 -0.124134
C54   C     C_R   0.613041 0.799047 0.510483 0.052245
C55   C     C_R   0.413818 0.086945 0.525337 -0.200779
C56   C     C_3   0.962459 0.733462 0.583456 0.330605
C57   C     C_R   0.343651 0.177867 0.528024 -0.009579
C58   C     C_R   0.577952 0.211875 0.491213 0.020640
C59   C     C_R   0.650624 0.120674 0.489959 -0.187160
C60   C     C_R   0.569761 0.055461 0.506602 0.010752
C61   C     C_R   0.423807 0.239638 0.509702 0.169975
C62   C     C_3   0.896676 0.831924 0.601126 -0.372939
C63   C     C_3   0.698519 0.340744 0.373072 0.357157
C64   C     C_3   0.711960 0.309575 0.317492 -0.339723
H1    H     H_    0.689965 0.223218 0.606504 0.040224
H2    H     H_    0.308179 0.127243 0.424831 0.007382
H3    H     H_    0.308993 0.136064 0.358945 0.121808
H4    H     H_    0.863675 0.699786 0.565637 0.011009
H5    H     H_    0.057638 0.730681 0.556554 0.060308
H6    H     H_    0.771438 0.839081 0.613259 0.117453
H7    H     H_    0.898846 0.875276 0.571183 0.068475
H8    H     H_    0.970902 0.856832 0.633381 0.146712
H9    H     H_    0.814841 0.359218 0.388566 0.009809
H10   H     H_    0.601695 0.400507 0.378565 0.031773
H11   H     H_    0.894111 0.118814 0.649063 0.133855
H12   H     H_    0.769934 0.237586 0.311428 0.169035
H13   H     H_    0.787499 0.349021 0.300014 0.072334
H14   H     H_    0.589864 0.316830 0.298724 0.100748
H15   H     H_    0.558790 0.236375 0.658722 -0.015166
H16   H     H_    0.701904 0.080273 0.643416 0.068085
H17   H     H_    0.328743 0.706076 0.615886 -0.047644
H18   H     H_    0.247831 0.857654 0.673232 -0.028224
H19   H     H_    0.770358 0.132761 0.702701 0.127652
H20   H     H_    0.141859 0.300950 0.733461 0.121421
H21   H     H_    0.251975 0.782752 0.378892 0.126308
H22   H     H_    0.244746 0.853713 0.296058 0.120579
H23   H     H_    0.038153 0.901865 0.309559 0.083143
H24   H     H_    0.199579 0.926123 0.352917 0.078078
H25   H     H_    0.698612 0.726766 0.355150 -0.091678
H26   H     H_    0.666608 0.737808 0.261821 0.148794
H27   H     H_    0.725623 0.836125 0.296515 0.055236
H28   H     H_    0.048201 0.315037 0.649032 0.108146
H29   H     H_    0.153712 0.461129 0.283970 0.128184
H30   H     H_    0.211894 0.283445 0.124204 0.121578
H31   H     H_    0.365151 0.264484 0.879668 0.120793
H32   H     H_    0.304532 0.266255 0.963955 0.068368
H33   H     H_    0.277876 0.276505 0.039897 0.068569
H34   H     H_    0.642495 0.539078 0.243317 0.117532
H35   H     H_    0.780422 0.700392 0.115191 0.120327
H36   H     H_    0.929290 0.702756 0.962035 0.068544
H37   H     H_    0.267132 0.298071 0.650291 -0.043861
H38   H     H_    0.996905 0.696538 0.878073 0.122311
H39   H     H_    0.036849 0.537713 0.715391 0.147120
H40   H     H_    0.842707 0.698755 0.031183 0.068645
H41   H     H_    0.851562 0.581811 0.390718 0.066530
H42   H     H_    0.417792 0.549243 0.630355 0.058800
H43   H     H_    0.341471 0.042674 0.537329 0.076734
H44   H     H_    0.863236 0.963444 0.465742 0.055899
H45   H     H_    0.767986 0.102157 0.474687 0.078555
H46   H     H_    0.455666 0.912266 0.541785 0.103750
H47   H     H_    0.071244 0.197637 0.710211 0.131347
H48   H     H_    0.791339 0.694668 0.476540 0.040969
H49   H     H_    0.285916 0.199904 0.715848 0.130476
H50   H     H_    0.132957 0.277697 0.438656 0.022605
N1    N     N_R   0.934386 0.496934 0.202233 -0.422723
N2    N     N_R   0.243407 0.476507 0.796408 -0.421851
O1    O     O_2   0.905540 0.548000 0.618290 -0.421584
O2    O     O_3   0.660857 0.269276 0.395712 -0.631664
O3    O     O_3   0.162232 0.188331 0.619974 -0.630617
O4    O     O_2   0.284150 0.451970 0.381680 -0.446717
O5    O     O_3   0.052160 0.451990 0.441880 -0.495581
O6    O     O_3   0.501140 0.616030 0.412450 -0.463047
O7    O     O_3   0.172718 0.309498 0.367791 -0.623407
O8    O     O_3   0.615020 0.608480 0.525380 -0.474475
O9    O     O_3   0.085020 0.662210 0.437090 -0.469200
O10   O     O_2   0.175008 0.825298 0.462879 -0.502513
O11   O     O_3   0.999625 0.807113 0.378036 -0.684190
O12   O     O_3   0.137550 0.547930 0.558110 -0.524128
O13   O     O_3   0.574690 0.391440 0.474610 -0.479336
O14   O     O_2   0.341330 0.720570 0.525000 -0.458057
O15   O     O_3   0.553832 0.740803 0.607244 -0.646868
O16   O     O_2   0.378579 0.551931 0.326629 -0.441503
O17   O     O_3   0.475712 0.700956 0.321793 -0.581940
O18   O     O_2   0.077496 0.356007 0.201757 -0.593095
O19   O     O_2   0.361264 0.331003 0.800384 -0.619182
O20   O     O_2   0.793240 0.636460 0.195292 -0.642174
O21   O     O_2   0.124342 0.622864 0.800047 -0.611065
O22   O     O_3   0.688580 0.383890 0.587540 -0.505204
O23   O     O_2   0.782239 0.464501 0.676088 -0.467583
O24   O     O_3   0.027905 0.691953 0.624978 -0.632284
O25   O     O_3   0.767541 0.293033 0.672329 -0.600346
O26   O     O_2   0.848360 0.279400 0.474970 -0.468815
O27   O     O_3   0.104690 0.337720 0.562900 -0.480257
O28   O     O_2   0.008661 0.178639 0.533739 -0.500399
P1    P     P_3+3 0.070480 0.574800 0.610950 0.984413
P2    P     P_3+3 0.668430 0.292880 0.460530 1.011291
P3    P     P_3+3 0.152517 0.219735 0.559547 0.956735
P4    P     P_3+3 0.119230 0.425130 0.389040 1.023826
P5    P     P_3+3 0.031594 0.780041 0.439532 0.931347
P6    P     P_3+3 0.674196 0.396283 0.652694 0.964636
P7    P     P_3+3 0.524156 0.720415 0.542220 0.984488
P8    P     P_3+3 0.522299 0.598203 0.347606 0.996772
H51   H     H_    0.410241 0.208121 0.402437 0.096555
O29   O     O_3   0.473680 0.714282 0.680880 -0.662204
C65   C     C_3   0.349887 0.712439 0.713423 0.086299
H52   H     H_    0.336058 0.774426 0.740321 0.069167
H53   H     H_    0.386585 0.654079 0.735191 0.117092
H54   H     H_    0.231773 0.705673 0.694202 0.050430
O30   O     O_3   0.259437 0.877247 0.599680 -0.680076
C66   C     C_3   0.193134 0.969740 0.608428 0.138363
H55   H     H_    0.289939 0.011353 0.617654 0.061613
H56   H     H_    0.106306 0.983013 0.638774 0.034698
H57   H     H_    0.125599 0.991028 0.574119 0.094016
H58   H     H_    0.434477 0.888444 0.657213 0.023495
O31   O     O_3   0.159699 0.709891 0.320155 -0.622288
C67   C     C_3   0.025557 0.705633 0.286793 0.260953
H59   H     H_    0.986983 0.768077 0.268481 0.015675
H60   H     H_    0.061319 0.650832 0.256690 0.079587
H61   H     H_    0.925323 0.687750 0.305966 0.029274
O32   O     O_3   0.506932 0.829360 0.372621 -0.665129
C68   C     C_3   0.566238 0.911760 0.376040 0.064831
H62   H     H_    0.522493 0.948877 0.343499 0.047313
H63   H     H_    0.699983 0.901562 0.380108 0.066774
H64   H     H_    0.515294 0.955601 0.408875 0.092024
H65   H     H_    0.519004 0.837213 0.273059 0.109183
H66   H     H_    0.530495 0.411822 0.754146 0.117284
O33   O     O_3   0.348259 0.327962 0.508950 -0.669364
C69   C     C_3   0.392119 0.377089 0.553773 0.510878
H67   H     H_    0.456308 0.431546 0.547297 0.077355
H68   H     H_    0.442312 0.334678 0.583777 -0.245172
H69   H     H_    0.289545 0.418416 0.570089 0.047978
O34   O     O_3   0.010747 0.209432 0.380416 -0.652808
C70   C     C_3   0.996072 0.129514 0.400758 0.152040
H70   H     H_    0.070660 0.070554 0.380372 0.026574
H71   H     H_    0.869126 0.118436 0.395304 0.074712
H72   H     H_    0.029812 0.132429 0.441115 0.048638

loop_
_geom_bond_atom_site_label_1
_geom_bond_atom_site_label_2
_ccdc_geom_bond_type
C51   H44   S    
C25   C46   A    
C53   C54   A    
C4    H58   S    
Ba2   P4    S    
C65   H52   S    
O6    P8    S    
C53   H46   S    
C1    H19   S    
Ba1   O27   S    
C17   C18   A    
Ba1   P2    S    
O26   P2    D    
C7    H25   S    
C2    O25   S    
O30   C66   S    
C70   H70   S    
C57   P3    S    
C55   C60   A    
O16   P8    D    
Ba2   O5    S    
C50   C51   A    
C3    O15   S    
C35   H66   S    
C28   H31   S    
C35   C36   S    
C63   H10   S    
C27   H32   S    
C58   C61   A    
O15   P7    S    
O4    P4    D    
O29   C65   S    
O32   C68   S    
O11   P5    S    
C23   H49   S    
C28   C29   A    
C3    H17   S    
C56   H5    S    
C55   C57   A    
O1    P1    D    
O28   P3    D    
C10   C20   A    
C32   O21   D    
C22   C37   D    
C61   O33   S    
O34   C70   S    
C34   C45   S    
C11   C16   D    
C49   C54   A    
Ba1   O1    S    
C45   H3    S    
C13   P8    S    
O9    P5    S    
C25   C42   A    
C67   H61   S    
C55   H43   S    
C2    H15   S    
C34   O7    S    
C17   C41   A    
C14   C15   D    
Ba2   O14   S    
C62   H7    S    
C34   O34   S    
C39   N2    S    
C7    C8    S    
O22   P6    S    
C66   H56   S    
C69   H69   S    
C59   H45   S    
Ba2   O9    S    
C68   H63   S    
C7    O32   S    
O5    P4    S    
C8    H26   S    
C65   H53   S    
C12   O3    S    
C47   H38   S    
C36   P6    S    
C69   H68   S    
Ba2   O13   S    
C19   C43   A    
Ba2   O4    S    
C56   C62   S    
C64   H12   S    
C44   H35   S    
C5    H21   S    
C9    C18   A    
C49   H48   S    
C4    H18   S    
C49   C50   A    
C5    C6    S    
C17   C20   A    
Ba1   O8    S    
Ba1   O12   S    
C43   H33   S    
O31   C67   S    
C56   H4    S    
C70   H72   S    
C52   C60   S    
C8    H27   S    
C68   H62   S    
C32   N2    Am   
C10   N1    Am   
C58   C59   A    
C6    H22   S    
C40   C43   A    
C41   C42   A    
Ba1   O5    S    
C27   C28   A    
C64   H13   S    
C23   H47   S    
C66   H57   S    
C56   O24   S    
O10   P5    D    
C22   C36   S    
C29   C30   A    
C4    O30   S    
C26   C30   A    
C21   H41   S    
C1    H16   S    
C15   C16   S    
O13   P2    S    
O17   P8    S    
C16   N1    S    
Ba1   O22   S    
C15   H29   S    
Ba2   O8    S    
C67   H59   S    
C20   C44   A    
O14   P7    D    
O2    P2    S    
C14   C21   D    
C11   C13   S    
C29   C33   A    
Ba1   P1    S    
C6    H24   S    
C40   C41   A    
C13   C21   S    
C1    C2    S    
C34   H50   S    
C7    O17   S    
C45   H2    S    
C37   C38   D    
C69   H67   S    
C24   C40   A    
C66   H55   S    
C68   H64   S    
C42   C48   A    
C5    O31   S    
C52   C53   A    
O25   P6    S    
O12   P1    S    
C8    H65   S    
C57   C61   A    
O24   P1    S    
O3    P3    S    
C54   P7    S    
Ba1   O13   S    
C2    H1    S    
C14   P4    S    
C51   C52   A    
C19   H30   S    
Ba2   O6    S    
C65   H54   S    
C3    O29   S    
C64   H14   S    
C44   C48   A    
C24   C26   A    
C63   H9    S    
C46   H36   S    
C30   C31   A    
C11   H34   S    
Ba1   O26   S    
C9    O18   D    
C33   O19   D    
C12   H37   S    
C3    C4    S    
C45   H51   S    
C50   P5    S    
C46   C47   A    
Ba1   Ba2   S    
C67   H60   S    
C23   H20   S    
Ba2   O12   S    
C63   O2    S    
C31   C32   A    
C10   O20   D    
C62   H6    S    
C12   C23   S    
C35   C39   D    
C59   C60   A    
C5    O11   S    
C70   H71   S    
O7    P4    S    
O33   C69   S    
O8    P7    S    
C18   C19   A    
C24   C27   A    
C63   C64   S    
C37   P1    S    
C25   C26   A    
C48   H40   S    
C62   H8    S    
C33   N2    Am   
C38   C39   S    
C6    H23   S    
C58   P2    S    
C31   C47   A    
C12   H28   S    
C9    N1    Am   
O27   P3    S    
C22   H42   S    
O23   P6    D    
C38   H39   S    
C1    H11   S    
