data_mof_unit_3946.cif
_audit_creation_date              2012-12-11T15:48:07-0500
_audit_creation_method            fapswitch 2.2
_symmetry_space_group_name_H-M    P1
_symmetry_Int_Tables_number       1
_space_group_crystal_system       triclinic
_cell_length_a                    6.929293
_cell_length_b                    17.597923
_cell_length_c                    19.456805
_cell_angle_alpha                 108.533417
_cell_angle_beta                  89.638979
_cell_angle_gamma                 90.516181
_cell_volume                      2249.43338221

loop_
_atom_site_label
_atom_site_type_symbol
_atom_type_description
_atom_site_fract_x
_atom_site_fract_y
_atom_site_fract_z
_atom_type_partial_charge
O1    O     O_R   0.494330 0.415710 0.413720 -0.541084
O2    O     O_R   0.819360 0.430070 0.560210 -0.542577
O3    O     O_R   0.994320 0.584290 0.586280 -0.541172
C1    C     C_R   0.650312 0.415253 0.582125 0.712113
O4    O     O_R   0.823740 0.406290 0.412670 -0.543983
O5    O     O_R   0.998730 0.560340 0.437690 -0.539506
C2    C     C_R   0.654719 0.383049 0.384710 0.684721
O6    O     O_R   0.489920 0.439660 0.562310 -0.538997
O7    O     O_3   0.662330 0.550570 0.508380 -0.369376
V1    V     V_3+5 0.935370 0.490620 0.498440 1.398648
O8    O     O_R   0.328720 0.569930 0.439790 -0.542773
C3    C     C_R   0.160582 0.585010 0.418146 0.713627
O9    O     O_R   0.324340 0.593710 0.587330 -0.543901
C4    C     C_R   0.155214 0.616888 0.615323 0.685662
V2    V     V_3+5 0.435940 0.509380 0.501560 1.398489
O10   O     O_3   0.159110 0.449430 0.491620 -0.369845
C5    C     C_R   0.312309 0.723967 0.718525 -0.156708
H1    H     H_    0.453216 0.704991 0.695384 0.116473
C6    C     C_R   0.301042 0.787757 0.783480 -0.151348
H2    H     H_    0.433874 0.816068 0.808248 0.118119
C7    C     C_R   0.121205 0.814649 0.815861 -0.046071
C8    C     C_R   0.952962 0.775970 0.781398 -0.156732
H3    H     H_    0.812046 0.794940 0.804533 0.116219
C9    C     C_R   0.964228 0.712186 0.716449 -0.151615
H4    H     H_    0.831384 0.683881 0.691686 0.118655
C10   C     C_R   0.144058 0.685288 0.684067 -0.046779
C11   C     C_R   0.991260 0.630976 0.324743 -0.219418
C12   C     C_R   0.152825 0.634820 0.369318 -0.085942
C13   C     C_R   0.307464 0.686184 0.366698 -0.223673
C14   C     C_R   0.300058 0.734329 0.321449 0.094647
C15   C     C_R   0.138354 0.729950 0.276667 0.068695
C16   C     C_R   0.984222 0.677327 0.277836 0.090150
C17   C     C_R   0.452214 0.786644 0.320118 -0.194929
C18   C     C_R   0.443653 0.835271 0.275788 -0.180337
C19   C     C_R   0.281584 0.833256 0.231567 0.059810
C20   C     C_R   0.130510 0.778295 0.230784 0.008884
C21   C     C_R   0.970721 0.771738 0.184666 0.085511
C22   C     C_R   0.819896 0.718155 0.185385 -0.163502
C23   C     C_R   0.825866 0.671858 0.231931 -0.192573
C24   C     C_R   0.266767 0.884777 0.188396 0.166508
C25   C     C_R   0.112919 0.872918 0.137534 -0.121231
C26   C     C_R   0.965022 0.817713 0.137693 -0.250647
H5    H     H_    0.872075 0.590982 0.325730 0.125864
H6    H     H_    0.432571 0.689726 0.400803 0.129779
H7    H     H_    0.578872 0.789899 0.353370 0.135652
H8    H     H_    0.567522 0.873045 0.275608 0.151793
H9    H     H_    0.844961 0.809995 0.100549 0.148546
H10   H     H_    0.696062 0.712548 0.150323 0.134264
H11   H     H_    0.706428 0.631690 0.231969 0.132404
C27   C     C_R   0.784286 0.181588 0.866139 -0.222687
C28   C     C_R   0.622377 0.133403 0.867973 -0.081949
C29   C     C_R   0.465297 0.131956 0.821899 -0.218049
C30   C     C_R   0.469295 0.177413 0.774237 0.088457
C31   C     C_R   0.630596 0.226628 0.773610 0.053269
C32   C     C_R   0.788213 0.229022 0.819988 0.090271
C33   C     C_R   0.314717 0.174537 0.727142 -0.185503
C34   C     C_R   0.318308 0.220987 0.680564 -0.186245
C35   C     C_R   0.476610 0.271149 0.680158 0.090444
C36   C     C_R   0.634225 0.273547 0.726537 0.053362
C37   C     C_R   0.795530 0.322759 0.725907 0.088445
C38   C     C_R   0.950110 0.325633 0.773000 -0.185249
C39   C     C_R   0.946517 0.279183 0.819579 -0.185808
C40   C     C_R   0.480542 0.318576 0.634002 -0.222740
C41   C     C_R   0.642455 0.366755 0.632161 -0.083380
C42   C     C_R   0.799535 0.368208 0.678236 -0.217834
H12   H     H_    0.905475 0.183350 0.901605 0.126976
H13   H     H_    0.340489 0.094539 0.822477 0.123858
H14   H     H_    0.190077 0.136747 0.726696 0.134541
H15   H     H_    0.196455 0.218035 0.645147 0.134732
H16   H     H_    0.359362 0.316804 0.598529 0.127215
H17   H     H_    0.924351 0.405618 0.677648 0.124249
H18   H     H_    0.074755 0.363419 0.773443 0.134749
H19   H     H_    0.068376 0.282132 0.854994 0.134923
C43   C     C_R   0.811688 0.276589 0.281395 -0.156979
H20   H     H_    0.952521 0.296202 0.304343 0.116087
C44   C     C_R   0.800610 0.212774 0.216452 -0.150263
H21   H     H_    0.933434 0.185083 0.191497 0.115654
C45   C     C_R   0.620945 0.185138 0.184275 -0.046899
C46   C     C_R   0.452634 0.222975 0.218998 -0.161465
H22   H     H_    0.311811 0.203313 0.196064 0.114135
C47   C     C_R   0.463715 0.286809 0.283937 -0.150684
H23   H     H_    0.330901 0.314489 0.308910 0.118268
C48   C     C_R   0.643412 0.314545 0.316045 -0.046839
O11   O     O_R   0.774940 0.060470 0.937800 -0.540753
O12   O     O_R   0.440880 0.093730 0.087350 -0.546329
O13   O     O_R   0.266130 0.939630 0.062280 -0.524088
C49   C     C_R   0.609799 0.116868 0.115454 0.697857
O14   O     O_R   0.445480 0.069960 0.939820 -0.543949
O15   O     O_R   0.270770 0.915690 0.913690 -0.541945
C50   C     C_R   0.614539 0.084857 0.917971 0.706547
O16   O     O_R   0.770300 0.084410 0.086380 -0.541577
O17   O     O_3   0.602600 0.949510 0.991670 -0.362656
V3    V     V_3+5 0.329470 0.009370 0.001550 1.412219
O18   O     O_R   0.940760 0.906160 0.912560 -0.545122
C51   C     C_R   0.109951 0.883040 0.884609 0.683093
O19   O     O_R   0.936150 0.929930 0.060100 -0.538763
C52   C     C_R   0.104127 0.917767 0.084189 0.720087
V4    V     V_3+5 0.828930 0.990450 0.998310 1.417697
O20   O     O_3   0.105670 0.050490 0.008320 -0.374987
N1    N     N_3   0.402140 0.950396 0.198290 -0.646568
H24   H     H_    0.331875 0.998513 0.189119 0.215161
H25   H     H_    0.433065 0.974986 0.253443 0.206499

loop_
_geom_bond_atom_site_label_1
_geom_bond_atom_site_label_2
_ccdc_geom_bond_type
C45   C49   S    
C2    C48   S    
C49   O16   A    
C17   H7    S    
C25   C26   A    
O12   V3    S    
C19   C20   A    
C43   C48   A    
C1    O6    A    
C47   H23   S    
O17   V4    S    
C30   C31   A    
C21   C22   A    
C43   C44   A    
C3    C12   S    
C5    C10   A    
C12   C13   A    
C6    C7    A    
C44   C45   A    
C15   C20   A    
C28   C50   S    
O5    C3    A    
C14   C15   A    
O18   V4    S    
V2    O10   S    
C32   C39   A    
C33   C34   A    
C18   C19   A    
C16   C23   A    
C21   C26   A    
O13   C52   A    
O17   V3    S    
O14   V3    S    
O8    V2    S    
C6    H2    S    
O19   V4    S    
C39   H19   S    
C18   H8    S    
O7    V1    S    
V3    O20   S    
C22   H10   S    
C36   C37   A    
O9    C4    A    
C38   C39   A    
O11   C50   A    
C47   C48   A    
C5    H1    S    
C31   C36   A    
O12   C49   A    
C43   H20   S    
C28   C29   A    
C9    H4    S    
O4    C2    A    
C45   C46   A    
C7    C51   S    
C35   C36   A    
C33   H14   S    
C4    C10   S    
C46   H22   S    
C37   C38   A    
O15   C51   A    
O2    C1    A    
C24   N1    S    
C13   C14   A    
O13   V3    S    
C15   C16   A    
C40   H16   S    
O19   C52   A    
N1    H25   S    
C27   C28   A    
C44   H21   S    
C27   H12   S    
O3    C4    A    
O1    V2    S    
C38   H18   S    
C24   C25   A    
C23   H11   S    
O14   C50   A    
C37   C42   A    
O6    V2    S    
O9    V2    S    
C13   H6    S    
C25   C52   S    
O2    V1    S    
C29   C30   A    
C46   C47   A    
C30   C33   A    
C35   C40   A    
C31   C32   A    
C20   C21   A    
C14   C17   A    
C11   C16   A    
O1    C2    A    
C9    C10   A    
O5    V1    S    
O8    C3    A    
C1    C41   S    
C27   C32   A    
O11   V4    S    
C41   C42   A    
C19   C24   A    
O7    V2    S    
O4    V1    S    
O3    V1    S    
C42   H17   S    
C34   C35   A    
C22   C23   A    
C29   H13   S    
N1    H24   S    
C5    C6    A    
C17   C18   A    
C8    C9    A    
C26   H9    S    
O16   V4    S    
O15   V3    S    
O18   C51   A    
C40   C41   A    
C11   H5    S    
V4    O20   S    
C11   C12   A    
C8    H3    S    
V1    O10   S    
C34   H15   S    
C7    C8    A    
