data_mof_unit_1594.cif
_audit_creation_date              2012-12-10T20:32:47-0500
_audit_creation_method            fapswitch 2.2
_symmetry_space_group_name_H-M    P1
_symmetry_Int_Tables_number       1
_space_group_crystal_system       triclinic
_cell_length_a                    11.523854
_cell_length_b                    10.736748
_cell_length_c                    9.850571
_cell_angle_alpha                 89.872513
_cell_angle_beta                  90.307154
_cell_angle_gamma                 90.578792
_cell_volume                      1218.71593413

loop_
_atom_site_label
_atom_site_type_symbol
_atom_type_description
_atom_site_fract_x
_atom_site_fract_y
_atom_site_fract_z
_atom_type_partial_charge
C1    C     C_R   0.504826 0.260047 0.499651 0.948689
C2    C     C_R   0.592101 0.545695 0.072410 -0.100479
C3    C     C_R   0.592067 0.545766 0.928440 -0.143441
C4    C     C_R   0.281860 0.500051 0.499797 0.904213
C5    C     C_R   0.402551 0.465731 0.927831 0.194670
C6    C     C_3   0.342403 0.343078 0.917947 -0.557875
C7    C     C_3   0.345785 0.338247 0.072498 -0.254741
C8    C     C_R   0.509986 0.739191 0.499658 0.906416
C9    C     C_R   0.718153 0.500178 0.500388 0.894296
C10   C     C_1   0.161487 0.501435 0.499982 -0.177292
C11   C     C_1   0.059329 0.502487 0.501325 -0.001426
C12   C     C_R   0.514760 0.127794 0.497165 -0.250677
C13   C     C_1   0.940730 0.502564 0.502041 -0.025453
C14   C     C_1   0.838542 0.501584 0.501442 -0.194562
C15   C     C_R   0.491900 0.061404 0.615864 -0.008595
C16   C     C_R   0.226843 0.333333 0.137405 0.214146
C17   C     C_R   0.200484 0.236404 0.228695 -0.145205
C18   C     C_R   0.088736 0.223713 0.281949 -0.159041
C19   C     C_R   0.002211 0.307431 0.244543 -0.086373
C20   C     C_R   0.027971 0.405931 0.156485 -0.149219
C21   C     C_R   0.139751 0.419476 0.103524 -0.145784
C22   C     C_R   0.665463 0.135582 0.759840 0.186288
C23   C     C_R   0.546010 0.065356 0.376373 0.391404
C24   C     C_R   0.754432 0.111537 0.666067 -0.155805
C25   C     C_R   0.859250 0.178141 0.672241 -0.153638
C26   C     C_R   0.876972 0.268284 0.772481 -0.102424
C27   C     C_R   0.789848 0.292140 0.866651 -0.111241
C28   C     C_R   0.684619 0.226357 0.860432 -0.108805
C29   C     C_R   0.556233 0.935781 0.379211 0.304613
C30   C     C_R   0.525050 0.870784 0.498725 -0.277500
C31   C     C_R   0.495842 0.934205 0.615743 0.061036
C32   C     C_3   0.554720 0.927336 0.751260 -0.453036
C33   C     C_3   0.548869 0.068209 0.753877 -0.164828
C34   C     C_R   0.402606 0.464529 0.070889 0.180205
H1    H     H_    0.397115 0.272614 0.869015 0.203101
H2    H     H_    0.265930 0.169332 0.257109 0.129086
H3    H     H_    0.068945 0.148263 0.351384 0.129884
H4    H     H_    0.915491 0.296735 0.284929 0.144804
H5    H     H_    0.961096 0.471472 0.128726 0.127569
H6    H     H_    0.157621 0.495584 0.034210 0.122478
H7    H     H_    0.653577 0.809691 0.300635 0.337084
H8    H     H_    0.742560 0.042062 0.587657 0.130744
H9    H     H_    0.926774 0.159929 0.599146 0.131583
H10   H     H_    0.958193 0.319689 0.777146 0.131023
H11   H     H_    0.803696 0.361934 0.944352 0.122263
H12   H     H_    0.405986 0.265645 0.111038 0.194219
H13   H     H_    0.617939 0.246714 0.933977 0.124222
H14   H     H_    0.498461 0.881944 0.828659 0.206481
H15   H     H_    0.643683 0.888452 0.745409 0.191564
H16   H     H_    0.487269 0.098796 0.832759 0.139755
H17   H     H_    0.667265 0.580667 0.126951 0.147117
H18   H     H_    0.667266 0.580560 0.874602 0.149876
H19   H     H_    0.254617 0.351494 0.871691 0.203602
H20   H     H_    0.584255 0.077141 0.182499 0.369896
N1    N     N_R   0.499240 0.499140 0.142800 -0.106666
N2    N     N_R   0.499240 0.499180 0.857150 -0.102025
O1    O     O_R   0.500010 0.316790 0.614690 -0.627334
O2    O     O_3   0.601804 0.876525 0.267501 -0.771128
O3    O     O_R   0.500000 0.316760 0.385350 -0.563269
O4    O     O_R   0.334450 0.500030 0.614670 -0.616464
O5    O     O_R   0.334440 0.500000 0.385330 -0.609169
O6    O     O_R   0.500000 0.683240 0.614650 -0.613247
O7    O     O_R   0.499990 0.683210 0.385310 -0.594084
O8    O     O_R   0.665560 0.500000 0.614670 -0.617189
O9    O     O_R   0.665550 0.499970 0.385330 -0.629068
O10   O     O_3   0.574451 0.133176 0.261172 -0.764808
Zn1   Zn    Zn3+2 0.500010 0.500020 0.653130 0.943439
Zn2   Zn    Zn3+2 0.499990 0.499980 0.346870 0.976126

loop_
_geom_bond_atom_site_label_1
_geom_bond_atom_site_label_2
_ccdc_geom_bond_type
C1    C12   S    
C9    C14   S    
C7    H12   S    
C28   H13   S    
C15   C31   A    
C16   C21   A    
H20   O10   S    
C19   H4    S    
C1    O1    A    
O3    Zn2   S    
N2    Zn1   S    
C11   C13   S    
C3    N2    A    
C5    N2    A    
C31   C32   S    
C12   C23   A    
C12   C15   A    
C30   C31   A    
C3    H18   S    
O9    Zn2   S    
C8    C30   S    
C5    C34   A    
C27   H11   S    
C22   C24   A    
N1    Zn2   S    
C25   C26   A    
C24   C25   A    
C26   H10   S    
C34   N1    A    
C22   C28   A    
C13   C14   T    
C32   C33   S    
C32   H14   S    
O5    Zn2   S    
C4    O4    A    
C26   C27   A    
C29   C30   A    
C21   H6    S    
O6    Zn1   S    
O1    Zn1   S    
C23   C29   A    
C23   O10   S    
C25   H9    S    
C17   H2    S    
C18   H3    S    
H7    O2    S    
C17   C18   A    
C6    C7    S    
C2    C3    A    
C2    N1    A    
C1    O3    A    
C5    C6    S    
C7    C34   S    
C9    O9    A    
C32   H15   S    
C2    H17   S    
C6    H19   S    
C4    C10   S    
C9    O8    A    
O8    Zn1   S    
C24   H8    S    
C29   O2    S    
C20   C21   A    
C18   C19   A    
C10   C11   T    
C27   C28   A    
C20   H5    S    
C22   C33   S    
O7    Zn2   S    
C7    C16   S    
C8    O7    A    
C33   H16   S    
C4    O5    A    
C15   C33   S    
C6    H1    S    
C19   C20   A    
O4    Zn1   S    
C8    O6    A    
C16   C17   A    
