data_mof_unit_2404.cif
_audit_creation_date              2012-12-10T18:59:58-0500
_audit_creation_method            fapswitch 2.2
_symmetry_space_group_name_H-M    P1
_symmetry_Int_Tables_number       1
_space_group_crystal_system       triclinic
_cell_length_a                    10.791432
_cell_length_b                    10.662462
_cell_length_c                    9.874063
_cell_angle_alpha                 91.064969
_cell_angle_beta                  91.974681
_cell_angle_gamma                 91.590555
_cell_volume                      1134.81224441

loop_
_atom_site_label
_atom_site_type_symbol
_atom_type_description
_atom_site_fract_x
_atom_site_fract_y
_atom_site_fract_z
_atom_type_partial_charge
C1    C     C_R   0.501008 0.260379 0.498665 0.967117
C2    C     C_R   0.498992 0.739621 0.501335 0.967118
C3    C     C_R   0.872537 0.496339 0.506618 -0.318558
C4    C     C_R   0.127463 0.503661 0.493382 -0.318559
C5    C     C_R   0.944611 0.546951 0.617424 -0.169729
C6    C     C_R   0.055389 0.453049 0.382576 -0.169728
C7    C     C_R   0.415419 0.061910 0.413599 0.463332
C8    C     C_R   0.584580 0.938090 0.586401 0.463314
C9    C     C_R   0.408195 0.932070 0.420507 0.322787
C10   C     C_R   0.591804 0.067930 0.579492 0.322789
C11   C     C_R   0.495432 0.872122 0.504445 -0.316229
C12   C     C_R   0.504568 0.127878 0.495554 -0.316235
C13   C     C_R   0.540885 0.603168 0.075073 0.532323
C14   C     C_R   0.459114 0.396832 0.924927 0.532323
C15   C     C_R   0.540817 0.603087 0.931819 0.448500
C16   C     C_R   0.459183 0.396913 0.068181 0.448500
C17   C     C_R   0.259977 0.500456 0.497465 0.938366
C18   C     C_R   0.740023 0.499543 0.502534 0.938367
C19   C     C_R   0.154826 0.446108 0.018480 -0.419908
C20   C     C_R   0.845172 0.553893 0.981519 -0.419908
C21   C     C_R   0.134800 0.491999 0.149143 0.397397
C22   C     C_R   0.865199 0.508001 0.850857 0.397398
C23   C     C_R   0.105675 0.406213 0.253217 -0.108685
C24   C     C_R   0.894325 0.593787 0.746783 -0.108687
C25   C     C_R   0.099320 0.275233 0.221926 0.326085
C26   C     C_R   0.900681 0.724767 0.778074 0.326088
C27   C     C_R   0.117907 0.233225 0.089169 0.683635
C28   C     C_R   0.882093 0.766775 0.910831 0.683638
C29   C     C_R   0.144270 0.318196 0.987894 0.562991
C30   C     C_R   0.855729 0.681804 0.012106 0.562991
C31   C     C_R   0.928375 0.446695 0.392382 0.647201
C32   C     C_R   0.071625 0.553305 0.607618 0.647200
H1    H     H_    0.176147 0.510942 0.939118 0.270153
H2    H     H_    0.823850 0.489058 0.060881 0.270152
N1    N     N_R   0.499970 0.499970 0.857200 -0.250971
N2    N     N_R   0.500030 0.500030 0.142800 -0.250971
O1    O     O_R   0.499990 0.316750 0.614620 -0.552032
O2    O     O_R   0.500010 0.683250 0.385380 -0.552031
O3    O     O_R   0.499990 0.316780 0.385290 -0.522699
O4    O     O_R   0.500010 0.683220 0.614710 -0.522700
O5    O     O_R   0.316760 0.500000 0.614660 -0.531283
O6    O     O_R   0.683240 0.500000 0.385340 -0.531284
O7    O     O_R   0.316760 0.500020 0.385330 -0.633221
O8    O     O_R   0.683240 0.499980 0.614670 -0.633219
Zn1   Zn    Zn3+2 0.500000 0.499980 0.653120 1.125723
Zn2   Zn    Zn3+2 0.500000 0.500020 0.346880 1.125722
F1    F     F_    0.158506 0.276590 0.858899 -0.533912
F2    F     F_    0.841493 0.723410 0.141101 -0.533911
F3    F     F_    0.583351 0.706431 0.868800 -0.569671
F4    F     F_    0.416648 0.293569 0.131200 -0.569670
O9    O     O_3   0.139773 0.620862 0.167978 -0.660681
H3    H     H_    0.125013 0.643183 0.263463 0.366944
O10   O     O_3   0.860225 0.379138 0.832022 -0.660683
H4    H     H_    0.874989 0.356817 0.736538 0.366945
O11   O     O_3   0.069289 0.185927 0.315966 -0.620992
H5    H     H_    0.077542 0.223411 0.408375 0.363472
O12   O     O_3   0.930714 0.814072 0.684035 -0.620987
H6    H     H_    0.922460 0.776589 0.591626 0.363472
F5    F     F_    0.108245 0.108791 0.057866 -0.492420
F6    F     F_    0.891757 0.891208 0.942135 -0.492417
F7    F     F_    0.859167 0.388929 0.290142 -0.635770
F8    F     F_    0.140833 0.611070 0.709859 -0.635771
O13   O     O_3   0.333247 0.127864 0.333450 -0.666006
H7    H     H_    0.285530 0.069549 0.270905 0.436706
O14   O     O_3   0.666752 0.872138 0.666551 -0.666021
H8    H     H_    0.714461 0.930450 0.729092 0.436714
O15   O     O_3   0.313953 0.867403 0.347788 -0.667695
H9    H     H_    0.294645 0.787265 0.392599 0.336664
O16   O     O_3   0.686047 0.132595 0.652213 -0.667692
H10   H     H_    0.705353 0.212735 0.607403 0.336666
F9    F     F_    0.583117 0.707012 0.144908 -0.518928
F10   F     F_    0.416883 0.292988 0.855092 -0.518928

loop_
_geom_bond_atom_site_label_1
_geom_bond_atom_site_label_2
_ccdc_geom_bond_type
C13   N2    A    
C30   F2    S    
O11   H5    S    
C9    O15   S    
N2    Zn2   S    
C31   F7    S    
C18   O8    A    
C27   C29   A    
O5    Zn1   S    
C2    O2    A    
C26   C28   A    
C13   C15   A    
C1    O1    A    
C5    C32   A    
C20   H2    S    
C28   F6    S    
C6    C31   A    
C32   F8    S    
C8    O14   S    
C20   C30   A    
O10   H4    S    
C16   N2    A    
C2    C11   S    
C3    C31   A    
C9    C11   A    
C24   C26   A    
C7    O13   S    
O12   H6    S    
C4    C32   A    
C1    C12   S    
C10   C12   A    
C29   F1    S    
C8    C11   A    
C6    C23   S    
C28   C30   A    
C19   C21   A    
C20   C22   A    
O3    Zn2   S    
C22   O10   S    
C22   C24   A    
C25   O11   S    
C15   F3    S    
C21   C23   A    
C19   H1    S    
O16   H10   S    
C26   O12   S    
C14   C16   A    
C7    C12   A    
O7    Zn2   S    
C17   O5    A    
O2    Zn2   S    
C4    C17   S    
O1    Zn1   S    
O15   H9    S    
N1    Zn1   S    
C10   O16   S    
C2    O4    A    
C21   O9    S    
C23   C25   A    
O4    Zn1   S    
C3    C18   S    
C4    C6    A    
O14   H8    S    
O6    Zn2   S    
C15   N1    A    
C17   O7    A    
C7    C9    A    
C1    O3    A    
C5    C24   S    
C27   F5    S    
C13   F9    S    
C18   O6    A    
C14   F10   S    
C14   N1    A    
C8    C10   A    
O8    Zn1   S    
O9    H3    S    
C16   F4    S    
O13   H7    S    
C3    C5    A    
C25   C27   A    
C19   C29   A    
