data_mof_unit_720.cif
_audit_creation_date              2012-12-11T14:13:21-0500
_audit_creation_method            fapswitch 2.2
_symmetry_space_group_name_H-M    P1
_symmetry_Int_Tables_number       1
_space_group_crystal_system       triclinic
_cell_length_a                    17.446247
_cell_length_b                    17.26448
_cell_length_c                    17.383121
_cell_angle_alpha                 89.160476
_cell_angle_beta                  88.814094
_cell_angle_gamma                 90.143345
_cell_volume                      5234.09868449

loop_
_atom_site_label
_atom_site_type_symbol
_atom_type_description
_atom_site_fract_x
_atom_site_fract_y
_atom_site_fract_z
_atom_type_partial_charge
C1    C     C_R   0.604797 0.303549 0.104801 0.252476
C2    C     C_R   0.188895 0.102331 0.617873 0.227375
C3    C     C_3   0.331686 0.133803 0.618021 -0.909330
C4    C     C_3   0.922117 0.270358 0.620695 -0.381460
C5    C     C_3   0.952068 0.298435 0.697498 -0.932178
C6    C     C_3   0.736833 0.923003 0.633700 -0.412396
C7    C     C_3   0.695557 0.845396 0.626527 -0.919280
C8    C     C_3   0.079011 0.272628 0.389130 -0.415731
C9    C     C_3   0.148593 0.317359 0.416895 -0.886500
C10   C     C_3   0.274332 0.924268 0.416579 -0.387062
C11   C     C_3   0.325895 0.938374 0.345357 -0.965203
C12   C     C_3   0.924229 0.723546 0.423345 -0.409807
C13   C     C_R   0.900718 0.186158 0.624915 0.217511
C14   C     C_3   0.873551 0.682557 0.484423 -0.898603
C15   C     C_3   0.734772 0.074916 0.370147 -0.388692
C16   C     C_3   0.711932 0.039950 0.293624 -0.920554
C17   C     C_3   0.806841 0.761717 0.957802 -0.310880
C18   C     C_3   0.873664 0.715847 0.990245 -0.967532
C19   C     C_3   0.420365 0.660878 0.673024 -0.355190
C20   C     C_3   0.401920 0.574803 0.665493 -0.876556
C21   C     C_3   0.148035 0.292546 0.900167 -0.383613
C22   C     C_3   0.090412 0.348229 0.864963 -0.926584
C23   C     C_3   0.684423 0.137485 0.906603 -0.347823
C24   C     C_R   0.822651 0.913094 0.637501 0.206645
C25   C     C_3   0.624836 0.093997 0.860521 -0.934562
C26   C     C_3   0.855714 0.299012 0.076265 -0.342299
C27   C     C_3   0.910325 0.358429 0.109413 -0.957152
C28   C     C_3   0.177388 0.139424 0.086012 -0.383938
C29   C     C_3   0.202833 0.055214 0.092120 -0.880201
C30   C     C_3   0.321497 0.581313 0.291185 -0.323914
C31   C     C_3   0.406412 0.597234 0.302162 -0.923419
C32   C     C_3   0.593461 0.647522 0.327598 -0.354052
C33   C     C_3   0.622438 0.588387 0.386209 -0.929568
C34   C     C_3   0.316388 0.169700 0.247367 -0.342859
C35   C     C_R   0.097811 0.188557 0.376597 0.213712
C36   C     C_3   0.355169 0.098999 0.212578 -0.937656
C37   C     C_3   0.922067 0.162032 0.176926 -0.354208
C38   C     C_3   0.903998 0.076316 0.166490 -0.891014
C39   C     C_3   0.645048 0.797485 0.413710 -0.359936
C40   C     C_3   0.592958 0.855794 0.373924 -0.942827
C41   C     C_3   0.166726 0.635855 0.374746 -0.340025
C42   C     C_3   0.108315 0.608439 0.316685 -0.937252
C43   C     C_3   0.367418 0.833960 0.624053 -0.334461
C44   C     C_3   0.371464 0.889464 0.691558 -0.921092
C45   C     C_3   0.935881 0.753064 0.811865 -0.316027
C46   C     C_R   0.196033 0.893693 0.397876 0.214060
C47   C     C_3   0.001060 0.809953 0.826933 -0.916450
C48   C     C_3   0.825297 0.073303 0.809027 -0.334285
C49   C     C_3   0.911612 0.084014 0.816981 -0.902796
C50   C     C_3   0.109302 0.144326 0.802472 -0.365151
C51   C     C_3   0.148814 0.078329 0.845217 -0.916367
C52   C     C_R   0.894573 0.802683 0.401256 0.207657
C53   C     C_R   0.818218 0.096263 0.370244 0.224633
C54   C     C_R   0.586857 0.681216 0.131552 -0.254080
C55   C     C_R   0.307179 0.600560 0.111958 -0.239852
C56   C     C_R   0.393522 0.302428 0.100291 -0.220607
C57   C     C_R   0.681974 0.595399 0.129473 0.254757
C58   C     C_R   0.695250 0.393053 0.101436 -0.216596
C59   C     C_R   0.606307 0.305162 0.894784 -0.233991
C60   C     C_R   0.306599 0.394738 0.893512 -0.227459
C61   C     C_R   0.414898 0.678830 0.863925 -0.234513
C62   C     C_R   0.694548 0.605480 0.893264 -0.208652
C63   C     C_R   0.097621 0.191929 0.613907 -0.248561
C64   C     C_R   0.812981 0.093037 0.624888 -0.235090
C65   C     C_R   0.923489 0.835250 0.646462 -0.234470
C66   C     C_R   0.195632 0.894284 0.600675 -0.234528
C67   C     C_R   0.102941 0.807058 0.388870 -0.238416
C68   C     C_R   0.396395 0.691573 0.115106 0.216345
C69   C     C_R   0.805633 0.893621 0.396315 -0.212261
C70   C     C_R   0.913699 0.182072 0.367591 -0.237585
C71   C     C_R   0.180359 0.091431 0.365260 -0.218418
C72   C     C_R   0.681056 0.316248 0.117921 0.100919
C73   C     C_R   0.652268 0.659461 0.166755 0.097142
C74   C     C_R   0.324182 0.670004 0.142230 0.135845
C75   C     C_R   0.316417 0.311823 0.114417 0.113926
C76   C     C_R   0.680376 0.680415 0.873244 0.126583
C77   C     C_R   0.683391 0.318219 0.881943 0.117988
C78   C     C_R   0.322450 0.319103 0.875224 0.131019
C79   C     C_R   0.303480 0.390588 0.101711 0.213406
C80   C     C_R   0.348448 0.657261 0.829548 0.131123
C81   C     C_R   0.184579 0.816252 0.613206 0.147729
C82   C     C_R   0.166429 0.174802 0.643634 0.145383
C83   C     C_R   0.833689 0.159007 0.660096 0.134581
C84   C     C_R   0.859931 0.862699 0.687368 0.153922
C85   C     C_R   0.160325 0.163230 0.333822 0.137672
C86   C     C_R   0.180488 0.818392 0.377188 0.133269
C87   C     C_R   0.820295 0.816826 0.381624 0.137713
C88   C     C_R   0.849101 0.160305 0.331470 0.139765
C89   C     C_2   0.799961 0.757711 0.870637 0.164416
C90   C     C_R   0.605845 0.696724 0.895277 0.206425
C91   C     C_2   0.349824 0.706711 0.696918 0.214294
C92   C     C_2   0.199377 0.256690 0.838943 0.230467
C93   C     C_2   0.737117 0.186310 0.854760 0.212017
C94   C     C_2   0.810732 0.255765 0.138779 0.217306
C95   C     C_2   0.231670 0.193612 0.126946 0.235252
C96   C     C_2   0.277577 0.655981 0.275756 0.225861
C97   C     C_2   0.657388 0.701790 0.300335 0.241604
C98   C     C_2   0.239079 0.185034 0.211947 0.267092
C99   C     C_2   0.849994 0.207585 0.197594 0.237100
C100  C     C_2   0.693819 0.753919 0.355601 0.237402
C101  C     C_R   0.696338 0.394895 0.896758 0.247465
C102  C     C_2   0.227613 0.687451 0.336872 0.194539
C103  C     C_2   0.317517 0.764389 0.643753 0.176569
C104  C     C_2   0.858657 0.792191 0.817575 0.236180
C105  C     C_2   0.785171 0.150234 0.793653 0.228726
C106  C     C_2   0.166706 0.207358 0.779414 0.242009
C107  C     C_2   0.737122 0.729812 0.836152 -0.311443
C108  C     C_2   0.314891 0.699868 0.766696 -0.253667
C109  C     C_2   0.275819 0.265285 0.834496 -0.299185
C110  C     C_2   0.743721 0.263679 0.860187 -0.338206
C111  C     C_2   0.733567 0.255557 0.143047 -0.337648
C112  C     C_R   0.396532 0.304122 0.895074 0.208823
C113  C     C_2   0.264569 0.251824 0.085869 -0.315003
C114  C     C_2   0.283368 0.698125 0.209019 -0.259389
C115  C     C_2   0.685314 0.703679 0.227092 -0.312801
C116  C     C_2   0.173707 0.190150 0.253971 -0.335866
C117  C     C_2   0.817439 0.204644 0.269247 -0.294725
C118  C     C_2   0.770691 0.757895 0.350815 -0.320406
C119  C     C_2   0.238330 0.763018 0.351487 -0.313060
C120  C     C_2   0.242126 0.755733 0.628859 -0.294800
C121  C     C_2   0.832430 0.845761 0.766798 -0.295725
C122  C     C_2   0.792061 0.189504 0.725261 -0.275754
C123  C     C_R   0.317481 0.595218 0.870793 0.220636
C124  C     C_2   0.194519 0.217933 0.706698 -0.310169
C125  C     C_3   0.571314 0.223718 0.099129 -0.414978
C126  C     C_3   0.537842 0.195712 0.176463 -0.909241
C127  C     C_3   0.764510 0.571843 0.132342 -0.385901
C128  C     C_3   0.782736 0.531968 0.208836 -0.910017
C129  C     C_3   0.419242 0.774877 0.101557 -0.401089
C130  C     C_3   0.428959 0.818243 0.176935 -0.920855
C131  C     C_3   0.226334 0.430328 0.104678 -0.390319
C132  C     C_3   0.155523 0.379355 0.119345 -0.926841
C133  C     C_3   0.572479 0.776498 0.907199 -0.393371
C134  C     C_R   0.107493 0.802517 0.599332 0.199619
C135  C     C_3   0.621308 0.828754 0.956591 -0.926183
C136  C     C_3   0.774698 0.430189 0.904474 -0.415701
C137  C     C_3   0.804847 0.462039 0.826906 -0.915521
C138  C     C_3   0.433011 0.225067 0.902076 -0.405838
C139  C     C_3   0.380509 0.158063 0.928279 -0.913699
C140  C     C_3   0.233606 0.575316 0.873890 -0.382261
C141  C     C_3   0.206631 0.542030 0.798009 -0.921588
C142  C     C_3   0.072661 0.723541 0.587572 -0.404211
C143  C     C_3   0.068808 0.673001 0.660798 -0.953135
C144  C     C_3   0.269472 0.071373 0.616601 -0.392952
H1    H     H_    0.555213 0.732598 0.143363 0.166538
H2    H     H_    0.757954 0.066159 0.631028 0.115683
H3    H     H_    0.355620 0.994976 0.350033 0.269386
H4    H     H_    0.268073 0.978871 0.448648 0.183436
H5    H     H_    0.302526 0.881916 0.454989 0.185350
H6    H     H_    0.861015 0.721711 0.533203 0.263373
H7    H     H_    0.818871 0.662650 0.459936 0.264530
H8    H     H_    0.903903 0.630759 0.506904 0.251292
H9    H     H_    0.930213 0.687056 0.371487 0.189844
H10   H     H_    0.980510 0.729501 0.449032 0.188033
H11   H     H_    0.719767 0.082782 0.245943 0.264847
H12   H     H_    0.746852 0.988149 0.280045 0.262543
H13   H     H_    0.967428 0.798403 0.666900 0.172507
H14   H     H_    0.650418 0.023568 0.296533 0.253829
H15   H     H_    0.719899 0.036369 0.419653 0.178094
H16   H     H_    0.700567 0.128389 0.379012 0.184674
H17   H     H_    0.872853 0.655303 0.969474 0.258713
H18   H     H_    0.929018 0.744418 0.975259 0.272670
H19   H     H_    0.868915 0.714809 0.053951 0.248069
H20   H     H_    0.813144 0.823393 0.973953 0.181327
H21   H     H_    0.754129 0.739514 0.987318 0.204347
H22   H     H_    0.385507 0.548505 0.722071 0.267447
H23   H     H_    0.354315 0.566723 0.624866 0.251013
H24   H     H_    0.249145 0.923083 0.595610 0.133679
H25   H     H_    0.453283 0.544013 0.642969 0.247330
H26   H     H_    0.442371 0.681823 0.616007 0.174577
H27   H     H_    0.467113 0.668973 0.714503 0.190929
H28   H     H_    0.120106 0.390398 0.825885 0.266313
H29   H     H_    0.059989 0.380218 0.911337 0.259305
H30   H     H_    0.047400 0.315794 0.832151 0.261979
H31   H     H_    0.116688 0.246282 0.932791 0.182329
H32   H     H_    0.181208 0.324124 0.942903 0.194592
H33   H     H_    0.592986 0.134425 0.822697 0.259255
H34   H     H_    0.653138 0.049500 0.824291 0.254306
H35   H     H_    0.071124 0.756475 0.375382 0.137891
H36   H     H_    0.583411 0.064510 0.900571 0.258078
H37   H     H_    0.718445 0.095159 0.940007 0.173421
H38   H     H_    0.655865 0.172617 0.951332 0.183634
H39   H     H_    0.878636 0.398070 0.148084 0.269271
H40   H     H_    0.956032 0.329131 0.142403 0.258261
H41   H     H_    0.937680 0.392910 0.061867 0.258953
H42   H     H_    0.888638 0.257598 0.040431 0.178405
H43   H     H_    0.816825 0.327677 0.035868 0.184068
H44   H     H_    0.198175 0.034307 0.152726 0.259846
H45   H     H_    0.165091 0.018646 0.056888 0.248771
H46   H     H_    0.750133 0.919646 0.397160 0.154895
H47   H     H_    0.262784 0.049069 0.070370 0.262158
H48   H     H_    0.118444 0.144607 0.110630 0.186620
H49   H     H_    0.173593 0.154711 0.023976 0.181289
H50   H     H_    0.433413 0.621699 0.248990 0.266279
H51   H     H_    0.413767 0.638479 0.349904 0.253924
H52   H     H_    0.436104 0.542336 0.316902 0.256203
H53   H     H_    0.300372 0.552380 0.344767 0.175471
H54   H     H_    0.313443 0.538541 0.245250 0.189694
H55   H     H_    0.668643 0.552709 0.359929 0.266381
H56   H     H_    0.574591 0.549532 0.405002 0.257977
H57   H     H_    0.945253 0.234086 0.355367 0.118486
H58   H     H_    0.644850 0.617626 0.437604 0.253421
H59   H     H_    0.546193 0.681633 0.353807 0.187821
H60   H     H_    0.568791 0.614847 0.279618 0.212244
H61   H     H_    0.316385 0.048246 0.216329 0.267771
H62   H     H_    0.371068 0.110494 0.151265 0.267496
H63   H     H_    0.407843 0.085187 0.244673 0.256005
H64   H     H_    0.353982 0.220856 0.237647 0.184703
H65   H     H_    0.311564 0.161390 0.310668 0.190372
H66   H     H_    0.882399 0.049486 0.221130 0.270975
H67   H     H_    0.860285 0.069282 0.121521 0.251866
H68   H     H_    0.224422 0.053832 0.343703 0.167268
H69   H     H_    0.956934 0.045434 0.148228 0.250691
H70   H     H_    0.949331 0.183847 0.122808 0.181293
H71   H     H_    0.966055 0.168789 0.221553 0.187588
H72   H     H_    0.627163 0.894339 0.334909 0.268862
H73   H     H_    0.562919 0.891502 0.417710 0.258941
H74   H     H_    0.549341 0.825434 0.339726 0.256035
H75   H     H_    0.609109 0.755905 0.447881 0.189226
H76   H     H_    0.680354 0.827404 0.456232 0.198584
H77   H     H_    0.083485 0.658301 0.284878 0.258232
H78   H     H_    0.136089 0.568972 0.274650 0.260067
H79   H     H_    0.733898 0.731066 0.773919 0.133134
H80   H     H_    0.061273 0.576431 0.347291 0.256165
H81   H     H_    0.193541 0.584361 0.401599 0.172747
H82   H     H_    0.137718 0.664330 0.423355 0.178153
H83   H     H_    0.313281 0.903644 0.714083 0.258851
H84   H     H_    0.404400 0.862585 0.738973 0.255676
H85   H     H_    0.400938 0.943759 0.672641 0.256760
H86   H     H_    0.426681 0.814379 0.610595 0.172023
H87   H     H_    0.349936 0.863200 0.570663 0.170525
H88   H     H_    0.003408 0.857114 0.782936 0.267068
H89   H     H_    0.992836 0.836360 0.884374 0.257547
H90   H     H_    0.262435 0.731390 0.779786 0.129798
H91   H     H_    0.056709 0.778987 0.826156 0.244193
H92   H     H_    0.939673 0.704672 0.853934 0.193932
H93   H     H_    0.942333 0.722922 0.756849 0.170109
H94   H     H_    0.938286 0.105640 0.762397 0.264121
H95   H     H_    0.923460 0.125580 0.863476 0.250953
H96   H     H_    0.938294 0.027532 0.831784 0.255674
H97   H     H_    0.803803 0.045452 0.862958 0.179292
H98   H     H_    0.813467 0.031353 0.763165 0.185959
H99   H     H_    0.192778 0.051263 0.807134 0.262025
H100  H     H_    0.105808 0.033624 0.862843 0.257661
H101  H     H_    0.308871 0.230220 0.794400 0.137547
H102  H     H_    0.176863 0.099959 0.897457 0.258950
H103  H     H_    0.063207 0.168787 0.839577 0.189763
H104  H     H_    0.080351 0.119525 0.752314 0.204505
H105  H     H_    0.250342 0.577688 0.109132 0.114290
H106  H     H_    0.794196 0.290751 0.834005 0.141687
H107  H     H_    0.705747 0.209626 0.176452 0.144879
H108  H     H_    0.253068 0.256546 0.025090 0.142072
H109  H     H_    0.252728 0.752394 0.201761 0.126575
H110  H     H_    0.731147 0.743153 0.209211 0.134349
H111  H     H_    0.122574 0.210904 0.225508 0.116310
H112  H     H_    0.766716 0.238011 0.284192 0.129932
H113  H     H_    0.801370 0.714968 0.316890 0.135547
H114  H     H_    0.291175 0.789249 0.330005 0.158222
H115  H     H_    0.218154 0.698998 0.641594 0.152461
H116  H     H_    0.416056 0.246782 0.085530 0.159219
H117  H     H_    0.777902 0.872871 0.781384 0.127760
H118  H     H_    0.763821 0.244686 0.715519 0.129107
H119  H     H_    0.233735 0.265135 0.691906 0.136437
H120  H     H_    0.583143 0.190343 0.220030 0.254502
H121  H     H_    0.493839 0.236363 0.198589 0.267765
H122  H     H_    0.511782 0.137765 0.169184 0.260572
H123  H     H_    0.529001 0.222284 0.054001 0.177456
H124  H     H_    0.615929 0.181935 0.080403 0.187653
H125  H     H_    0.774812 0.572820 0.257025 0.262819
H126  H     H_    0.745146 0.480958 0.219877 0.266785
H127  H     H_    0.750939 0.418719 0.096681 0.153359
H128  H     H_    0.843489 0.513267 0.208077 0.248792
H129  H     H_    0.780691 0.536464 0.082148 0.171843
H130  H     H_    0.800394 0.624794 0.127159 0.189723
H131  H     H_    0.372102 0.833294 0.202141 0.260687
H132  H     H_    0.460449 0.782905 0.219745 0.253393
H133  H     H_    0.461038 0.872963 0.165470 0.260894
H134  H     H_    0.472066 0.778829 0.065389 0.190605
H135  H     H_    0.373888 0.804145 0.067948 0.189899
H136  H     H_    0.144185 0.341909 0.069719 0.261355
H137  H     H_    0.161982 0.343904 0.172571 0.263865
H138  H     H_    0.579181 0.250369 0.890448 0.136455
H139  H     H_    0.104529 0.416954 0.127588 0.255399
H140  H     H_    0.227571 0.468386 0.155236 0.186336
H141  H     H_    0.218440 0.464119 0.050608 0.184878
H142  H     H_    0.635597 0.798930 0.011427 0.258343
H143  H     H_    0.674127 0.847139 0.924857 0.263649
H144  H     H_    0.588504 0.881934 0.970651 0.254546
H145  H     H_    0.563830 0.805111 0.850390 0.187401
H146  H     H_    0.516627 0.770940 0.938121 0.188621
H147  H     H_    0.821374 0.414106 0.788240 0.253635
H148  H     H_    0.760767 0.497165 0.797396 0.264684
H149  H     H_    0.251103 0.420797 0.892875 0.158783
H150  H     H_    0.856321 0.498496 0.835924 0.252570
H151  H     H_    0.773522 0.474291 0.949955 0.174071
H152  H     H_    0.816169 0.386250 0.924226 0.190003
H153  H     H_    0.344354 0.174418 0.978205 0.267378
H154  H     H_    0.344189 0.137597 0.881164 0.265423
H155  H     H_    0.416364 0.108149 0.946220 0.250168
H156  H     H_    0.461182 0.210227 0.846386 0.190747
H157  H     H_    0.475579 0.229014 0.947028 0.186029
H158  H     H_    0.210070 0.586551 0.751477 0.262262
H159  H     H_    0.242020 0.491842 0.780231 0.262646
H160  H     H_    0.449678 0.727385 0.846193 0.114596
H161  H     H_    0.145844 0.523701 0.804545 0.254539
H162  H     H_    0.220236 0.536037 0.923236 0.174350
H163  H     H_    0.200743 0.629171 0.885210 0.184576
H164  H     H_    0.110858 0.625039 0.656896 0.255884
H165  H     H_    0.080545 0.706949 0.712918 0.271208
H166  H     H_    0.011222 0.645858 0.667252 0.255947
H167  H     H_    0.013910 0.730521 0.566580 0.205913
H168  H     H_    0.106205 0.693071 0.542757 0.184680
H169  H     H_    0.320711 0.179843 0.574320 0.259201
H170  H     H_    0.334791 0.159418 0.675961 0.257447
H171  H     H_    0.751305 0.582973 0.897864 0.155367
H172  H     H_    0.388259 0.107275 0.604692 0.251900
H173  H     H_    0.276491 0.031662 0.666625 0.196085
H174  H     H_    0.278704 0.040101 0.562213 0.183713
H175  H     H_    0.904037 0.305283 0.739582 0.258181
H176  H     H_    0.993298 0.256524 0.722128 0.258294
H177  H     H_    0.980814 0.355464 0.689112 0.260038
H178  H     H_    0.963332 0.281590 0.572505 0.175668
H179  H     H_    0.870275 0.304563 0.606472 0.185697
H180  H     H_    0.725310 0.808337 0.583642 0.259214
H181  H     H_    0.692943 0.814673 0.682753 0.255080
H182  H     H_    0.071450 0.247759 0.614841 0.163249
H183  H     H_    0.635804 0.855344 0.607949 0.252553
H184  H     H_    0.714557 0.953144 0.685530 0.179316
H185  H     H_    0.723160 0.957336 0.581191 0.193309
H186  H     H_    0.170350 0.290452 0.470634 0.258767
H187  H     H_    0.195015 0.318129 0.372165 0.258581
H188  H     H_    0.131939 0.378109 0.428870 0.250532
H189  H     H_    0.059327 0.299449 0.334528 0.186198
H190  H     H_    0.033273 0.277481 0.434216 0.189966
H191  H     H_    0.370957 0.893223 0.341369 0.262234
H192  H     H_    0.292440 0.938163 0.291706 0.257769
N1    N     N_R   0.574080 0.369570 0.076720 -0.065369
N2    N     N_R   0.130430 0.074080 0.576720 -0.074146
N3    N     N_R   0.925920 0.130430 0.576720 -0.070010
N4    N     N_R   0.869570 0.925920 0.576720 -0.058592
N5    N     N_R   0.074080 0.130430 0.423280 -0.059423
N6    N     N_R   0.130430 0.925920 0.423280 -0.066078
N7    N     N_R   0.925920 0.869570 0.423280 -0.064087
N8    N     N_R   0.869570 0.074080 0.423280 -0.070003
N9    N     N_R   0.574050 0.630410 0.076720 -0.050866
N10   N     N_R   0.369590 0.574050 0.076720 -0.051703
N11   N     N_R   0.425950 0.369590 0.076720 -0.050091
N12   N     N_R   0.630430 0.574080 0.076720 -0.070285
N13   N     N_R   0.630410 0.425950 0.076720 -0.057926
N14   N     N_R   0.574050 0.369590 0.923280 -0.060722
N15   N     N_R   0.369590 0.425950 0.923280 -0.052930
N16   N     N_R   0.425950 0.630410 0.923280 -0.057350
N17   N     N_R   0.630410 0.574050 0.923280 -0.053168
N18   N     N_R   0.074050 0.130410 0.576720 -0.052497
N19   N     N_R   0.869590 0.074050 0.576720 -0.056971
N20   N     N_R   0.925950 0.869590 0.576720 -0.053410
N21   N     N_R   0.130410 0.925950 0.576720 -0.058401
N22   N     N_R   0.074050 0.869590 0.423280 -0.057297
N23   N     N_R   0.425920 0.630430 0.076720 -0.068428
N24   N     N_R   0.869590 0.925950 0.423280 -0.052549
N25   N     N_R   0.925950 0.130410 0.423280 -0.057259
N26   N     N_R   0.130410 0.074050 0.423280 -0.053809
N27   N     N_R   0.369570 0.425920 0.076720 -0.069605
N28   N     N_R   0.574080 0.630430 0.923280 -0.065269
N29   N     N_R   0.630430 0.425920 0.923280 -0.063546
N30   N     N_R   0.425920 0.369570 0.923280 -0.068488
N31   N     N_R   0.369570 0.574080 0.923280 -0.069117
N32   N     N_R   0.074080 0.869570 0.576720 -0.068180
Ni1   Ni    Ni4+2 0.500000 0.370760 0.000000 0.190318
Ni2   Ni    Ni4+2 0.629240 0.500000 0.000000 0.190123
Ni3   Ni    Ni4+2 0.500000 0.629240 0.000000 0.190070
Ni4   Ni    Ni4+2 0.370760 0.500000 0.000000 0.186327
Ni5   Ni    Ni4+2 0.000000 0.870760 0.500000 0.190268
Ni6   Ni    Ni4+2 0.129240 0.000000 0.500000 0.187130
Ni7   Ni    Ni4+2 0.000000 0.129240 0.500000 0.189893
Ni8   Ni    Ni4+2 0.870760 0.000000 0.500000 0.189993

loop_
_geom_bond_atom_site_label_1
_geom_bond_atom_site_label_2
_ccdc_geom_bond_type
C96   C102  S    
C62   N17   A    
N2    N18   A    
C77   C101  A    
C51   H100  S    
C81   C134  A    
C113  H108  S    
C117  H112  S    
C92   C109  D    
C2    N2    A    
C33   H55   S    
C61   C80   A    
C74   C114  S    
C94   C111  D    
C31   H51   S    
C30   C96   S    
N19   Ni8   S    
N17   N28   A    
C19   C20   S    
C14   H7    S    
C55   H105  S    
N16   Ni3   S    
C86   C119  S    
C97   C115  D    
C42   H77   S    
C93   C110  D    
C132  H137  S    
C90   N28   A    
C21   C22   S    
C96   C114  D    
C56   H116  S    
C50   H104  S    
C82   C124  S    
C47   H91   S    
C45   C47   S    
C11   H192  S    
C16   H14   S    
C3    H170  S    
C112  C138  S    
N18   Ni7   S    
C17   C89   S    
C140  C141  S    
C23   H38   S    
C91   C103  S    
C131  H141  S    
C25   H34   S    
C122  H118  S    
N11   Ni1   S    
C8    C35   S    
C133  H145  S    
N23   Ni3   S    
C43   C44   S    
C37   C38   S    
C17   H20   S    
N1    N13   A    
C18   H19   S    
C48   C105  S    
N4    Ni8   S    
C16   H11   S    
N6    Ni6   S    
C36   H62   S    
N9    N12   A    
C6    H184  S    
C54   H1    S    
C92   C106  S    
C59   H138  S    
C76   C107  S    
C29   H45   S    
C138  H156  S    
C143  H166  S    
C15   C53   S    
C37   H70   S    
C5    H175  S    
C141  H159  S    
C41   H82   S    
C28   C29   S    
C64   H2    S    
C128  H126  S    
C56   N11   A    
C12   H10   S    
C4    C5    S    
N15   N30   A    
C6    C7    S    
C29   H44   S    
C138  H157  S    
C15   H16   S    
C133  H146  S    
C8    H190  S    
C32   H59   S    
C25   H33   S    
C44   H83   S    
C45   H93   S    
C132  H139  S    
C106  C124  D    
C133  C135  S    
C17   H21   S    
C75   C79   A    
C102  C119  D    
C10   H4    S    
C47   H89   S    
C21   C92   S    
C140  H162  S    
C2    C144  S    
C45   H92   S    
C49   H95   S    
C43   H86   S    
C79   N27   A    
C88   C117  S    
C60   C78   A    
C89   C104  S    
C39   H75   S    
C57   N12   A    
C10   H5    S    
C18   H17   S    
C68   C74   A    
C41   C102  S    
C27   H41   S    
C69   N24   A    
N3    Ni7   S    
C136  H152  S    
C52   N7    A    
C65   N20   A    
C21   H31   S    
C29   H47   S    
C75   C113  S    
N10   Ni4   S    
C13   N3    A    
C36   H61   S    
C24   N4    A    
C6    C24   S    
C56   C75   A    
N26   Ni6   S    
C128  H128  S    
C127  H129  S    
C42   H80   S    
C17   C18   S    
C53   N8    A    
C27   H39   S    
C132  H136  S    
C108  H90   S    
C1    C72   A    
C63   C82   A    
N11   N27   A    
C139  H154  S    
C48   H98   S    
C39   C40   S    
C85   C116  S    
C65   C84   A    
C47   H88   S    
C9    H187  S    
C84   C121  S    
C23   C93   S    
C67   N22   A    
C137  H148  S    
C44   H85   S    
C7    H181  S    
C45   C104  S    
C99   C117  D    
C60   H149  S    
C79   C131  S    
C40   H72   S    
C142  H167  S    
C129  H134  S    
C126  H121  S    
C38   H66   S    
N30   Ni1   S    
N31   Ni4   S    
C30   H54   S    
C7    H183  S    
N2    Ni6   S    
C130  H132  S    
C22   H29   S    
C129  C130  S    
C20   H23   S    
C34   H65   S    
C51   H99   S    
C136  C137  S    
C69   H46   S    
C57   C127  S    
C80   C108  S    
C130  H133  S    
C55   C74   A    
C26   H42   S    
C63   H182  S    
C105  C122  D    
C78   C109  S    
C34   C36   S    
C83   C122  S    
C144  H173  S    
C54   N9    A    
C5    H177  S    
C14   H8    S    
C126  H122  S    
C135  H144  S    
C42   H78   S    
C111  H107  S    
N12   Ni2   S    
C80   C123  A    
C26   C94   S    
N9    Ni3   S    
C40   H73   S    
C41   C42   S    
C103  C120  D    
C19   H26   S    
C97   C100  S    
C110  H106  S    
C26   C27   S    
C11   H191  S    
C3    H169  S    
N28   Ni3   S    
C137  H150  S    
C23   H37   S    
C30   C31   S    
C43   H87   S    
C33   H58   S    
C125  H123  S    
C62   H171  S    
C70   N25   A    
C16   H12   S    
C4    H179  S    
C69   C87   A    
C20   H25   S    
C72   C111  S    
C62   C76   A    
C143  H165  S    
C12   C52   S    
C64   N19   A    
C141  H158  S    
N16   N31   A    
C41   H81   S    
C25   H36   S    
N4    N20   A    
C60   N15   A    
C65   H13   S    
C90   C133  S    
C33   H56   S    
C34   H64   S    
C58   H127  S    
C46   N6    A    
C32   H60   S    
C64   C83   A    
C139  H155  S    
C134  C142  S    
C54   C73   A    
C68   N23   A    
C89   C107  D    
C119  H114  S    
C61   N16   A    
C126  H120  S    
C135  H142  S    
C44   H84   S    
C87   C118  S    
C48   C49   S    
C9    H188  S    
C63   N18   A    
C125  C126  S    
C2    C82   A    
C100  C118  D    
C38   H69   S    
C127  C128  S    
C114  H109  S    
C67   C86   A    
C7    H180  S    
C91   C108  D    
C3    C144  S    
C19   H27   S    
C49   H94   S    
C131  C132  S    
N7    Ni5   S    
C120  H115  S    
C20   H22   S    
C13   C83   A    
N14   N29   A    
C73   C115  S    
C66   H24   S    
C32   C33   S    
C67   H35   S    
C143  H164  S    
C66   C81   A    
N8    N25   A    
C18   H18   S    
C11   H3    S    
N32   Ni5   S    
C115  H110  S    
C141  H161  S    
C101  N29   A    
C34   C98   S    
N13   Ni2   S    
C43   C103  S    
N27   Ni4   S    
C19   C91   S    
C138  C139  S    
C71   H68   S    
C50   C106  S    
C142  C143  S    
C78   C112  A    
N20   Ni5   S    
N17   Ni2   S    
C134  N32   A    
C37   H71   S    
C5    H176  S    
C76   C90   A    
C116  H111  S    
C35   C85   A    
C128  H125  S    
C12   H9    S    
C70   C88   A    
C59   C77   A    
C95   C98   S    
C118  H113  S    
N21   N32   A    
C15   H15   S    
C81   C120  S    
C61   H160  S    
C28   C95   S    
N21   Ni6   S    
C1    C125  S    
C139  H153  S    
C123  N31   A    
C8    H189  S    
C9    H186  S    
C57   C73   A    
C15   C16   S    
C32   C97   S    
C6    H185  S    
N5    Ni7   S    
C4    C13   S    
C137  H147  S    
C27   H40   S    
C121  H117  S    
C71   C85   A    
C8    C9    S    
C10   C46   S    
C142  H168  S    
C38   H67   S    
N8    Ni8   S    
C93   C105  S    
C70   H57   S    
N3    N19   A    
C4    H178  S    
C35   N5    A    
C14   H6    S    
C68   C129  S    
C49   H96   S    
C28   H48   S    
C131  H140  S    
C22   H30   S    
N14   Ni1   S    
C50   C51   S    
C107  H79   S    
C39   H76   S    
C51   H102  S    
C10   C11   S    
C71   N26   A    
C31   H52   S    
C104  C121  D    
C123  C140  S    
C36   H63   S    
C136  H151  S    
C26   H43   S    
C98   C116  D    
N15   Ni4   S    
C21   H32   S    
C30   H53   S    
C28   H49   S    
N22   Ni5   S    
C144  H174  S    
N29   Ni2   S    
C58   N13   A    
C12   C14   S    
C55   N10   A    
C125  H124  S    
C135  H143  S    
C127  H130  S    
C1    N1    A    
N5    N26   A    
N6    N22   A    
C37   C99   S    
C101  C136  S    
C40   H74   S    
C52   C87   A    
C48   H97   S    
C31   H50   S    
C59   N14   A    
C3    H172  S    
C24   C84   A    
C66   N21   A    
C58   C72   A    
C39   C100  S    
C94   C99   S    
C95   C113  D    
C129  H135  S    
C53   C88   A    
C112  N30   A    
C23   C25   S    
C77   C110  S    
N10   N23   A    
C124  H119  S    
C109  H101  S    
N7    N24   A    
C140  H163  S    
N1    Ni1   S    
N25   Ni7   S    
N24   Ni8   S    
C130  H131  S    
C22   H28   S    
C50   H103  S    
C46   C86   A    
