data_mof_unit_3587.cif
_audit_creation_date              2012-10-26T19:30:38-0400
_audit_creation_method            fapswitch 2.2
_symmetry_space_group_name_H-M    P1
_symmetry_Int_Tables_number       1
_space_group_crystal_system       triclinic
_cell_length_a                    19.272829
_cell_length_b                    11.221235
_cell_length_c                    9.798534
_cell_angle_alpha                 86.93419
_cell_angle_beta                  87.852681
_cell_angle_gamma                 90.853413
_cell_volume                      2114.25736452

loop_
_atom_site_label
_atom_site_type_symbol
_atom_type_description
_atom_site_fract_x
_atom_site_fract_y
_atom_site_fract_z
_atom_type_partial_charge
C1    C     C_R   0.503105 0.259909 0.503220 0.593148
C2    C     C_3   0.529674 0.045966 0.389059 0.202082
C3    C     C_3   0.502142 0.606719 0.042562 0.314283
C4    C     C_3   0.498442 0.393681 0.958061 0.293624
C5    C     C_3   0.446426 0.555057 0.952532 0.292736
C6    C     C_3   0.554032 0.444819 0.047968 0.311455
C7    C     C_3   0.553616 0.550239 0.942171 0.102263
C8    C     C_3   0.446684 0.448179 0.057814 0.092415
C9    C     C_R   0.367852 0.498433 0.502488 0.552333
C10   C     C_R   0.631861 0.499000 0.497885 0.596361
C11   C     C_R   0.250277 0.448652 0.622835 0.118036
C12   C     C_R   0.494336 0.739249 0.497613 0.595946
C13   C     C_R   0.749145 0.554765 0.390358 0.104935
C14   C     C_R   0.177328 0.461554 0.627298 0.217402
C15   C     C_R   0.821718 0.538510 0.380527 0.208817
C16   C     C_R   0.144469 0.505718 0.509127 -0.010002
C17   C     C_R   0.853704 0.470618 0.485697 -0.005762
C18   C     C_R   0.184158 0.550040 0.393246 0.167572
C19   C     C_R   0.812840 0.407824 0.589322 0.178985
C20   C     C_R   0.256536 0.547805 0.395004 -0.113868
C21   C     C_R   0.740564 0.417098 0.590225 -0.132213
C22   C     C_R   0.290557 0.497540 0.507823 -0.002409
C23   C     C_3   0.532595 0.021948 0.610922 0.026863
C24   C     C_R   0.708407 0.491333 0.493009 0.018537
C25   C     C_R   0.929306 0.477755 0.495584 0.412922
C26   C     C_R   0.068858 0.496492 0.503157 0.419792
C27   C     C_3   0.460306 0.974752 0.393707 0.027997
C28   C     C_3   0.557901 0.949581 0.490828 0.231003
C29   C     C_3   0.435292 0.048865 0.513520 0.236559
C30   C     C_3   0.488683 0.876718 0.494507 -0.070630
C31   C     C_3   0.504936 0.121413 0.509781 -0.068343
C32   C     C_3   0.463331 0.952224 0.614438 0.208144
Cu1   Cu    Cu3+1 0.500020 0.499990 0.643150 1.152703
Cu2   Cu    Cu3+1 0.499980 0.500010 0.356850 1.187643
H1    H     H_    0.286743 0.584248 0.306692 0.202262
H2    H     H_    0.407271 0.320164 0.195397 0.307056
H3    H     H_    0.035621 0.485294 0.885536 0.421521
H4    H     H_    0.929490 0.773957 0.206291 0.408796
H5    H     H_    0.217855 0.739031 0.158767 0.350858
H6    H     H_    0.789136 0.344206 0.903250 0.392303
H7    H     H_    0.746516 0.951902 0.535385 0.394231
H8    H     H_    0.247184 0.049085 0.461996 0.388031
H9    H     H_    0.550213 0.019277 0.815620 0.322031
H10   H     H_    0.613967 0.093093 0.710012 0.314075
H11   H     H_    0.429775 0.989969 0.194988 0.313855
H12   H     H_    0.708997 0.367354 0.668106 0.193479
H13   H     H_    0.387255 0.878387 0.296565 0.290850
H14   H     H_    0.365776 0.975746 0.939623 0.377502
H15   H     H_    0.623258 0.032551 0.058833 0.373571
H16   H     H_    0.308437 0.770974 0.974824 0.387089
H17   H     H_    0.692150 0.226354 0.035360 0.396417
H18   H     H_    0.616004 0.831778 0.954876 0.384750
H19   H     H_    0.486592 0.080037 0.014727 0.405079
H20   H     H_    0.326688 0.342458 0.692955 0.292181
H21   H     H_    0.251050 0.305566 0.758048 0.291165
H22   H     H_    0.714627 0.617993 0.208277 0.328398
H23   H     H_    0.748837 0.721961 0.304853 0.308125
H24   H     H_    0.645359 0.547364 0.830323 0.288415
H25   H     H_    0.597045 0.666339 0.795250 0.307366
H26   H     H_    0.362570 0.334886 0.053528 0.300775
N1    N     N_R   0.029118 0.593523 0.519935 -0.092824
N2    N     N_3   0.387579 0.383437 0.125834 -0.481529
N3    N     N_3   0.579193 0.020869 0.723818 -0.489787
N4    N     N_3   0.408484 0.964789 0.290797 -0.486577
N5    N     N_R   0.969070 0.380534 0.479216 -0.101740
N6    N     N_R   0.960397 0.584249 0.516034 -0.117781
N7    N     N_R   0.037859 0.389750 0.483491 -0.128581
N8    N     N_3   0.500050 0.499970 0.858290 -0.340344
N9    N     N_3   0.499950 0.500030 0.141710 -0.329050
N10   N     N_3   0.282118 0.380996 0.731782 -0.446093
N11   N     N_3   0.717263 0.645410 0.307331 -0.471561
N12   N     N_3   0.614370 0.610881 0.875243 -0.509885
O1    O     O_R   0.500030 0.316850 0.620870 -0.426388
O2    O     O_2   0.169762 0.425328 0.904198 -0.149272
O3    O     O_3   0.059738 0.513118 0.798331 -0.450143
O4    O     O_2   0.936501 0.535565 0.211512 -0.200739
O5    O     O_2   0.831963 0.616332 0.112370 -0.226119
O6    O     O_3   0.896737 0.744628 0.281378 -0.470683
O7    O     O_2   0.103948 0.506882 0.184049 -0.151067
O8    O     O_2   0.094926 0.703637 0.277815 -0.225484
O9    O     O_3   0.203547 0.660795 0.125759 -0.427393
O10   O     O_2   0.879680 0.208080 0.658716 -0.157178
O11   O     O_2   0.908951 0.385112 0.781066 -0.220471
O12   O     O_R   0.499970 0.683150 0.379130 -0.434970
O13   O     O_3   0.791671 0.275684 0.843721 -0.469871
O14   O     O_2   0.646650 0.774802 0.565999 -0.298555
O15   O     O_2   0.665387 0.873479 0.337994 -0.182726
O16   O     O_3   0.700410 0.988773 0.546497 -0.457697
O17   O     O_2   0.326290 0.130396 0.663331 -0.216990
O18   O     O_2   0.347357 0.222442 0.432670 -0.314321
O19   O     O_3   0.292686 0.009236 0.458960 -0.450374
O20   O     O_2   0.342220 0.861624 0.707614 -0.197851
O21   O     O_2   0.447767 0.805965 0.830096 -0.198632
O22   O     O_3   0.395512 0.013029 0.863996 -0.427866
O23   O     O_R   0.500000 0.316860 0.379090 -0.459054
O24   O     O_2   0.552450 0.204056 0.186716 -0.220281
O25   O     O_2   0.654793 0.128204 0.300678 -0.192093
O26   O     O_3   0.593608 0.993642 0.133537 -0.441406
O27   O     O_2   0.305202 0.515824 0.967620 -0.184040
O28   O     O_2   0.349786 0.642975 0.776693 -0.195109
O29   O     O_3   0.346633 0.726995 0.018465 -0.488268
O30   O     O_2   0.696354 0.482363 0.038053 -0.295360
O31   O     O_2   0.650850 0.355462 0.227821 -0.208528
O32   O     O_3   0.655594 0.271504 0.987773 -0.466701
O33   O     O_2   0.473035 0.809857 0.144401 -0.260458
O34   O     O_R   0.500000 0.683140 0.620910 -0.458843
O35   O     O_2   0.589252 0.732664 0.184423 -0.203593
O36   O     O_3   0.564983 0.829103 0.946033 -0.484027
O37   O     O_2   0.421387 0.252918 0.814460 -0.219078
O38   O     O_2   0.547152 0.219264 0.836257 -0.300112
O39   O     O_3   0.460055 0.151851 0.036447 -0.497350
O40   O     O_R   0.400160 0.499980 0.620930 -0.457502
O41   O     O_R   0.599840 0.500020 0.379070 -0.423275
O42   O     O_R   0.400130 0.499990 0.379150 -0.498309
O43   O     O_R   0.599870 0.500010 0.620850 -0.546676
O44   O     O_2   0.099028 0.295299 0.769767 -0.211417
S1    S     S_3+6 0.126749 0.420297 0.779766 0.112080
S2    S     S_3+6 0.641226 0.390836 0.080654 0.095068
S3    S     S_3+6 0.532937 0.747984 0.083784 0.129160
S4    S     S_3+6 0.481109 0.250410 0.907728 0.077565
S5    S     S_3+6 0.872657 0.606880 0.240195 0.072063
S6    S     S_3+6 0.144190 0.606138 0.243354 0.109014
S7    S     S_3+6 0.850809 0.317811 0.719720 0.104364
S8    S     S_3+6 0.644286 0.891378 0.483866 0.104944
S9    S     S_3+6 0.348814 0.107996 0.519165 0.088638
S10   S     S_3+6 0.410519 0.904183 0.757453 0.116280
S11   S     S_3+6 0.584689 0.096463 0.249764 0.106497
S12   S     S_3+6 0.359666 0.608228 0.923689 0.144836

loop_
_geom_bond_atom_site_label_1
_geom_bond_atom_site_label_2
_ccdc_geom_bond_type
C6    N9    S    
C12   O34   A    
C29   S9    S    
C27   C29   S    
O3    S1    S    
C4    C8    S    
O33   S3    D    
C11   N10   S    
H9    N3    S    
O17   S9    D    
Cu2   O41   S    
C19   S7    S    
C8    N9    S    
Cu1   N8    S    
H14   O22   S    
C9    O42   A    
C19   C21   A    
C26   N1    A    
C29   C32   S    
C3    C7    S    
O15   S8    D    
C11   C14   A    
C9    C22   S    
C1    C31   S    
O29   S12   S    
O44   S1    D    
C12   O12   A    
H26   N2    S    
H8    O19   S    
C32   S10   S    
O2    S1    D    
O6    S5    S    
O21   S10   D    
H15   O26   S    
C20   H1    S    
N1    N6    A    
O37   S4    D    
N5    N7    A    
C2    C27   S    
C15   S5    S    
O30   S2    D    
O16   S8    S    
H25   N12   S    
C12   C30   S    
C2    S11   S    
H19   O39   S    
C9    O40   A    
C23   N3    S    
H3    O3    S    
C27   C30   S    
O36   S3    S    
Cu2   O12   S    
C5    N8    S    
H2    N2    S    
O35   S3    D    
O32   S2    S    
O22   S10   S    
H10   N3    S    
C16   C26   S    
O7    S6    D    
Cu1   O43   S    
C25   N6    A    
C25   N5    A    
Cu2   O23   S    
H5    O9    S    
C4    C6    S    
O38   S4    D    
C7    N12   S    
C4    N8    S    
C7    N8    S    
O8    S6    D    
C11   C22   A    
H4    O6    S    
C10   C24   S    
H17   O32   S    
O24   S11   D    
O39   S4    S    
C23   C31   S    
H6    O13   S    
H20   N10   S    
C1    O23   A    
C14   S1    S    
Cu1   Cu2   S    
Cu1   O40   S    
C23   C28   S    
H23   N11   S    
Cu2   N9    S    
O27   S12   D    
C10   O41   A    
C3    S3    S    
C18   S6    S    
Cu1   O1    S    
O26   S11   S    
C20   C22   A    
C13   C15   A    
O14   S8    D    
C13   C24   A    
C14   C16   A    
O31   S2    D    
O4    S5    D    
O10   S7    D    
H13   N4    S    
C21   H12   S    
O25   S11   D    
C15   C17   A    
H7    O16   S    
O19   S9    S    
C3    N9    S    
O28   S12   D    
C4    S4    S    
Cu1   O34   S    
C3    C5    S    
O20   S10   D    
C5    C8    S    
C28   S8    S    
C26   N7    A    
C6    C7    S    
Cu2   O42   S    
C13   N11   S    
H11   N4    S    
O9    S6    S    
C17   C25   S    
C23   C32   S    
C28   C30   S    
C1    O1    A    
C29   C31   S    
C30   C32   S    
H24   N12   S    
C5    S12   S    
C17   C19   A    
O18   S9    D    
O13   S7    S    
C18   C20   A    
H21   N10   S    
O5    S5    D    
C27   N4    S    
H18   O36   S    
H16   O29   S    
C16   C18   A    
C21   C24   A    
C2    C31   S    
C2    C28   S    
O11   S7    D    
C6    S2    S    
C10   O43   A    
H22   N11   S    
C8    N2    S    
