data_mof_unit_2323.cif
_audit_creation_date              2013-03-05T15:45:11-0500
_audit_creation_method            fapswitch 2.2
_symmetry_space_group_name_H-M    P1
_symmetry_Int_Tables_number       1
_space_group_crystal_system       triclinic
_cell_length_a                    10.829571
_cell_length_b                    11.032933
_cell_length_c                    9.821843
_cell_angle_alpha                 111.031631
_cell_angle_beta                  97.726372
_cell_angle_gamma                 92.362614
_cell_volume                      1080.32003018

loop_
_atom_site_label
_atom_site_type_symbol
_atom_site_description
_atom_site_fract_x
_atom_site_fract_y
_atom_site_fract_z
_atom_type_partial_charge
O1    O     O_R   0.511700 0.332330 0.577400 -0.581280
O2    O     O_R   0.474680 0.295500 0.332650 -0.548760
C1    C     C_R   0.497611 0.254537 0.440579 0.940856
O3    O     O_R   0.338160 0.518420 0.622400 -0.569881
O4    O     O_R   0.301140 0.481590 0.377650 -0.568756
C2    C     C_R   0.262109 0.490096 0.499108 0.867194
Cu1   Cu    Cu3+1 0.521920 0.521810 0.644910 0.963958
Cu2   Cu    Cu3+1 0.478080 0.478190 0.355090 0.975010
O5    O     O_R   0.525320 0.704500 0.667350 -0.577851
O6    O     O_R   0.488300 0.667670 0.422600 -0.576757
O7    O     O_R   0.698860 0.518410 0.622350 -0.576353
O8    O     O_R   0.661840 0.481580 0.377600 -0.600675
C3    C     C_R   0.510340 0.746019 0.559452 0.862084
C4    C     C_R   0.737101 0.495928 0.497175 0.761366
H1    H     H_    0.143036 0.649156 0.696022 0.158148
C5    C     C_R   0.086359 0.258639 0.287375 0.349129
C6    C     C_R   0.002515 0.173552 0.165761 -0.169571
H2    H     H_    0.033420 0.087775 0.087388 0.177372
C7    C     C_R   0.875999 0.189100 0.152518 -0.222073
H3    H     H_    0.811322 0.118639 0.062400 0.157603
C8    C     C_R   0.831044 0.288362 0.261273 -0.184938
H4    H     H_    0.730744 0.286320 0.251215 0.171852
C9    C     C_R   0.913820 0.383534 0.378543 0.061474
C10   C     C_R   0.044734 0.373128 0.387336 -0.010883
C11   C     C_R   0.127553 0.475060 0.499226 -0.081487
C12   C     C_R   0.080606 0.572678 0.609422 -0.199630
H5    H     H_    0.919624 0.653802 0.693728 0.152913
C13   C     C_R   0.953290 0.576376 0.606952 -0.184426
C14   C     C_R   0.869666 0.485380 0.491312 -0.070825
H6    H     H_    0.499947 0.865132 0.368888 0.180247
H7    H     H_    0.528546 0.136267 0.631782 0.178721
C15   C     C_2   0.499976 0.115354 0.407271 -0.250505
C16   C     C_2   0.515656 0.070341 0.516785 -0.139797
H8    H     H_    0.530418 0.951878 0.707799 0.151427
C17   C     C_2   0.518486 0.885679 0.593037 -0.343910
C18   C     C_2   0.511306 0.931049 0.483798 -0.139554
H9    H     H_    0.486577 0.049065 0.292485 0.160515
H10   H     H_    0.414215 0.417022 0.846564 0.175695
H11   H     H_    0.585521 0.583240 0.153499 0.160697
N1    N     N_2   0.445130 0.445430 0.137370 -0.283960
C19   C     C_2   0.511340 0.510637 0.081052 -0.075806
H12   H     H_    0.625562 0.621888 0.933713 0.193717
N2    N     N_2   0.554930 0.554500 0.862630 -0.289145
C20   C     C_2   0.488644 0.489344 0.918944 -0.061484
H13   H     H_    0.375221 0.377176 0.066099 0.210522
N3    N     N_R   0.203384 0.212807 0.322929 0.096901
O9    O     O_R   0.234472 0.213278 0.455871 -0.401669
O10   O     O_R   0.255565 0.135338 0.216751 -0.397427

loop_
_geom_bond_atom_site_label_1
_geom_bond_atom_site_label_2
_geom_bond_distance
_ccdc_geom_bond_type
C6    H2    1.082901 S    
O4    Cu2   1.958670 S    
N2    C20   1.299082 D    
H7    C16   1.088046 S    
H10   C20   1.085132 S    
Cu1   N2    2.015173 S    
Cu2   O8    1.969816 S    
C12   C13   1.378279 A    
C7    H3    1.083006 S    
H6    C18   1.088116 S    
C9    C10   1.420654 A    
C15   C16   1.331808 D    
O2    C1    1.293058 A    
Cu1   Cu2   2.682246 S    
C5    C10   1.427755 A    
O1    Cu1   1.946391 S    
C15   H9    1.087402 S    
Cu1   O7    1.958670 S    
C1    C15   1.452808 S    
O3    Cu1   1.969816 S    
O4    C2    1.291929 A    
C9    C14   1.418243 A    
Cu2   O6    1.946391 S    
N1    C19   1.299010 D    
C7    C8    1.386183 A    
O8    C4    1.291206 A    
C3    C17   1.451551 S    
C8    C9    1.417565 A    
N1    H13   1.030730 S    
O7    C4    1.292693 A    
N3    O10   1.302286 A    
C2    C11   1.459993 S    
C19   C20   1.507391 S    
C4    C14   1.452264 S    
C16   C18   1.449642 S    
C10   C11   1.428848 A    
H11   C19   1.085101 S    
O3    C2    1.296672 A    
H8    C17   1.087572 S    
H12   N2    1.030652 S    
C5    N3    1.429812 S    
H5    C13   1.084294 S    
Cu1   O5    1.945620 S    
O5    C3    1.291349 A    
N3    O9    1.301960 A    
C13   C14   1.395744 A    
H1    C12   1.084312 S    
Cu2   N1    2.014994 S    
C6    C7    1.382393 A    
C11   C12   1.395098 A    
C8    H4    1.075935 S    
O2    Cu2   1.945620 S    
C17   C18   1.331933 D    
C5    C6    1.402049 A    
O1    C1    1.293065 A    
O6    C3    1.293696 A    
