data_mof_unit_4496.cif
_audit_creation_date              2012-12-11T14:15:39-0500
_audit_creation_method            fapswitch 2.2
_symmetry_space_group_name_H-M    P1
_symmetry_Int_Tables_number       1
_space_group_crystal_system       triclinic
_cell_length_a                    11.159857
_cell_length_b                    12.691714
_cell_length_c                    23.535261
_cell_angle_alpha                 90.06711
_cell_angle_beta                  96.191828
_cell_angle_gamma                 68.668576
_cell_volume                      3084.38720195

loop_
_atom_site_label
_atom_site_type_symbol
_atom_type_description
_atom_site_fract_x
_atom_site_fract_y
_atom_site_fract_z
_atom_type_partial_charge
C1    C     C_R   0.149508 0.617174 0.428903 0.543510
C2    C     C_R   0.600542 0.600991 0.320947 -0.129925
C3    C     C_R   0.719666 0.728109 0.320611 -0.133476
C4    C     C_R   0.690031 0.746643 0.261563 0.039868
C5    C     C_R   0.615094 0.689300 0.233146 0.026199
C6    C     C_R   0.591198 0.697630 0.174886 -0.123153
C7    C     C_R   0.709453 0.823462 0.169812 -0.115283
C8    C     C_R   0.737436 0.816073 0.229881 -0.005769
C9    C     C_1   0.234323 0.162344 0.122781 -0.002691
C10   C     C_2   0.175577 0.233725 0.225746 -0.118386
C11   C     C_2   0.166186 0.160967 0.264773 -0.128812
C12   C     C_R   0.747413 0.606157 0.405271 0.544887
C13   C     C_1   0.138434 0.196432 0.321789 -0.049607
C14   C     C_1   0.207529 0.197491 0.169277 -0.047478
C15   C     C_1   0.118726 0.230949 0.369032 -0.003760
C16   C     C_1   0.167173 0.748344 0.123498 -0.016791
C17   C     C_2   0.148775 0.679196 0.227346 -0.131748
C18   C     C_2   0.227405 0.691259 0.272057 -0.138556
C19   C     C_1   0.214014 0.660151 0.329366 -0.058988
C20   C     C_1   0.156793 0.716302 0.170367 -0.061468
C21   C     C_1   0.193230 0.637667 0.376265 -0.010915
C22   C     C_1   0.627561 0.758775 0.864406 -0.006791
C23   C     C_R   0.101619 0.282309 0.423499 0.539812
C24   C     C_2   0.696905 0.718544 0.759969 -0.128525
C25   C     C_2   0.613209 0.701818 0.718898 -0.127773
C26   C     C_1   0.651471 0.668828 0.662912 -0.059064
C27   C     C_1   0.662229 0.741697 0.817283 -0.052272
C28   C     C_1   0.690132 0.639195 0.617371 -0.013331
C29   C     C_R   0.212489 0.166918 0.849234 0.009152
C30   C     C_R   0.110677 0.209690 0.636765 0.014590
C31   C     C_R   0.997478 0.186266 0.715567 -0.148853
C32   C     C_R   0.997071 0.209311 0.657664 -0.150312
C33   C     C_R   0.227927 0.171768 0.672974 0.003223
C34   C     C_R   0.149970 0.616574 0.590739 0.545640
C35   C     C_R   0.219629 0.177432 0.731765 0.057782
C36   C     C_R   0.106525 0.176403 0.753468 0.039013
C37   C     C_R   0.105848 0.165318 0.812543 -0.126838
C38   C     C_R   0.310440 0.193793 0.826846 -0.124043
C39   C     C_R   0.317299 0.193489 0.768770 -0.140821
C40   C     C_R   0.129111 0.752108 0.850732 -0.007742
C41   C     C_R   0.192132 0.637615 0.649047 0.006547
C42   C     C_R   0.302121 0.563371 0.742602 -0.137307
C43   C     C_R   0.290753 0.553666 0.683510 -0.132570
C44   C     C_R   0.110906 0.733783 0.673653 -0.129111
C45   C     C_R   0.749634 0.602126 0.566075 0.544102
C46   C     C_R   0.111048 0.738908 0.732576 0.041286
C47   C     C_R   0.210453 0.653468 0.767404 0.034028
C48   C     C_R   0.219090 0.661157 0.826388 -0.131325
C49   C     C_R   0.020682 0.827092 0.816791 -0.109182
C50   C     C_R   0.011966 0.825157 0.757213 -0.011150
C51   C     C_R   0.265519 0.109843 0.069421 0.543966
C52   C     C_R   0.594870 0.776298 0.082262 0.541956
C53   C     C_R   0.189459 0.787577 0.069782 0.542994
C54   C     C_R   0.242930 0.113463 0.906575 0.544234
C55   C     C_R   0.573840 0.776880 0.917995 0.548125
C56   C     C_R   0.100335 0.275555 0.584166 0.538352
C57   C     C_R   0.164229 0.786870 0.907062 0.544060
C58   C     C_R   0.639078 0.762699 0.142859 0.001539
C59   C     C_R   0.681892 0.650246 0.349284 0.011555
C60   C     C_R   0.566787 0.620875 0.262865 -0.146498
Cr1   Cr    Cr6+3 0.189770 0.415650 0.511620 1.017199
Cr2   Cr    Cr6+3 0.930400 0.667320 0.496770 1.009045
Cr3   Cr    Cr6+3 0.879870 0.417010 0.491650 1.018796
Cr4   Cr    Cr6+3 0.149500 0.973980 0.985330 1.020412
Cr5   Cr    Cr6+3 0.457000 0.976510 0.994660 1.023979
Cr6   Cr    Cr6+3 0.411170 0.724270 0.995270 1.020925
H1    H     H_    0.531387 0.654135 0.154504 0.142370
H2    H     H_    0.076297 0.643024 0.233435 0.138216
H3    H     H_    0.517208 0.708482 0.727795 0.143342
H4    H     H_    0.793393 0.710736 0.751283 0.142318
H5    H     H_    0.026608 0.150272 0.829447 0.114205
H6    H     H_    0.390267 0.202765 0.854326 0.136315
H7    H     H_    0.909368 0.188087 0.731384 0.110843
H8    H     H_    0.398027 0.207696 0.753054 0.095016
H9    H     H_    0.906408 0.233113 0.630077 0.131892
H10   H     H_    0.300971 0.601095 0.852892 0.126576
H11   H     H_    0.740868 0.875720 0.143372 0.118737
H12   H     H_    0.949296 0.893050 0.837292 0.134635
H13   H     H_    0.378451 0.497868 0.769007 0.106330
H14   H     H_    0.354701 0.478664 0.665162 0.126385
H15   H     H_    0.039061 0.799998 0.646217 0.126580
H16   H     H_    0.508221 0.578181 0.240711 0.114716
H17   H     H_    0.569578 0.542122 0.342990 0.137868
H18   H     H_    0.781291 0.766307 0.343859 0.127169
H19   H     H_    0.182909 0.073626 0.254547 0.129513
H20   H     H_    0.160366 0.320736 0.236188 0.137305
H21   H     H_    0.297600 0.729949 0.266124 0.139411
O1    O     O_R   0.196340 0.303200 0.448500 -0.510557
O2    O     O_R   0.811960 0.658090 0.547150 -0.497951
O3    O     O_R   0.757930 0.506140 0.547110 -0.510128
O4    O     O_R   0.988670 0.321620 0.556040 -0.504905
O5    O     O_3   0.000020 0.499990 0.500010 -0.240606
O6    O     O_R   0.113660 0.883270 0.047820 -0.508984
O7    O     O_R   0.186930 0.068530 0.043990 -0.495816
O8    O     O_R   0.377770 0.089040 0.054220 -0.508744
O9    O     O_R   0.562800 0.872960 0.056970 -0.499723
O10   O     O_R   0.555390 0.700940 0.062700 -0.523164
O11   O     O_R   0.295020 0.731920 0.049950 -0.500251
O12   O     O_R   0.199310 0.519670 0.454880 -0.491206
O13   O     O_R   0.094290 0.884230 0.921550 -0.523493
O14   O     O_R   0.168980 0.069410 0.926940 -0.499902
O15   O     O_R   0.358400 0.089990 0.927950 -0.521337
O16   O     O_R   0.544850 0.873850 0.939920 -0.494114
O17   O     O_R   0.536020 0.701900 0.936430 -0.507810
O18   O     O_R   0.277070 0.732810 0.932890 -0.501744
O19   O     O_3   0.339220 0.891590 0.991750 -0.245576
O20   O     O_R   0.045660 0.691380 0.441680 -0.516780
O21   O     O_R   0.811930 0.659460 0.430950 -0.511228
O22   O     O_R   0.757900 0.507620 0.421760 -0.513956
O23   O     O_R   0.988630 0.322990 0.439840 -0.495734
O24   O     O_R   0.196380 0.301720 0.573850 -0.521802
O25   O     O_R   0.199350 0.518300 0.571080 -0.498895
O26   O     O_R   0.045700 0.689900 0.567030 -0.525606
C61   C     C_3   0.359002 0.119203 0.650194 -0.254552
C62   C     C_3   0.358865 0.029596 0.606114 -0.291972
C63   C     C_3   0.494249 0.966345 0.589287 -0.448738
H22   H     H_    0.533614 0.026702 0.571796 0.151354
H23   H     H_    0.560217 0.918309 0.626938 0.157375
H24   H     H_    0.489690 0.905348 0.556032 0.149822
H25   H     H_    0.323178 0.967240 0.624403 0.164971
H26   H     H_    0.293589 0.070231 0.566864 0.172584
H27   H     H_    0.389179 0.185068 0.632096 0.167419
H28   H     H_    0.433927 0.074623 0.685897 0.136933
C64   C     C_3   0.901616 0.914768 0.719642 -0.264620
C65   C     C_3   0.798433 0.003279 0.750734 -0.304453
C66   C     C_3   0.697231 0.088574 0.707975 -0.461658
H29   H     H_    0.742487 0.135369 0.683169 0.146829
H30   H     H_    0.650804 0.044268 0.677649 0.151797
H31   H     H_    0.622200 0.150326 0.731072 0.134085
H32   H     H_    0.749098 0.960562 0.775917 0.168365
H33   H     H_    0.844150 0.050332 0.779942 0.155002
H34   H     H_    0.944822 0.961079 0.693198 0.148587
H35   H     H_    0.851445 0.870563 0.690692 0.144951
C67   C     C_3   0.816654 0.879642 0.260527 -0.261180
C68   C     C_3   0.856416 0.956665 0.222352 -0.301028
C69   C     C_3   0.934080 0.016032 0.257631 -0.440934
H36   H     H_    0.876550 0.067939 0.290272 0.159091
H37   H     H_    0.025405 0.952879 0.279236 0.160742
H38   H     H_    0.958465 0.072721 0.228915 0.153609
H39   H     H_    0.917383 0.905677 0.190447 0.173570
H40   H     H_    0.768455 0.022247 0.199607 0.167921
H41   H     H_    0.758649 0.933241 0.292634 0.145714
H42   H     H_    0.906211 0.816503 0.283550 0.152228

loop_
_geom_bond_atom_site_label_1
_geom_bond_atom_site_label_2
_ccdc_geom_bond_type
C57   O18   A    
C1    C21   S    
C66   H29   S    
C62   H26   S    
C34   O25   A    
C6    C58   A    
C54   O14   A    
C35   C36   A    
C9    C51   S    
C24   C27   S    
Cr4   O14   S    
C4    C8    A    
C1    O12   A    
C32   H9    S    
C61   C62   S    
C24   H4    S    
C7    C8    A    
C63   H22   S    
C34   O26   A    
C33   C61   S    
C64   H35   S    
Cr6   O10   S    
C36   C37   A    
C19   C21   T    
Cr4   O6    S    
C5    C6    A    
C2    C60   A    
C31   H7    S    
Cr2   O21   S    
C29   C54   S    
C40   C49   A    
Cr2   O2    S    
C55   O16   A    
C52   O10   A    
C17   C20   S    
C49   H12   S    
C64   H34   S    
C18   C19   S    
C39   H8    S    
C48   H10   S    
C16   C53   S    
C67   H42   S    
C12   C59   S    
C60   H16   S    
C65   H32   S    
C56   O4    A    
C31   C32   A    
Cr2   O5    S    
C29   C38   A    
C45   O2    A    
C56   O24   A    
C5    C60   A    
Cr1   O5    S    
C7    H11   S    
C15   C23   S    
C42   H13   S    
C41   C43   A    
C2    H17   S    
Cr1   O12   S    
C34   C41   S    
Cr5   O15   S    
Cr6   O19   S    
C69   H38   S    
C12   O22   A    
C44   C46   A    
Cr5   O9    S    
C68   H39   S    
C38   H6    S    
C28   C45   S    
Cr5   O8    S    
C53   O6    A    
Cr6   O17   S    
C68   C69   S    
C50   C64   S    
C24   C25   D    
Cr2   O26   S    
C69   H37   S    
C44   H15   S    
C10   C14   S    
C12   O21   A    
C2    C59   A    
C69   H36   S    
Cr2   O20   S    
C66   H31   S    
C43   H14   S    
C57   O13   A    
C8    C67   S    
C55   O17   A    
Cr3   O5    S    
C35   C39   A    
C9    C14   T    
Cr1   O1    S    
C67   H41   S    
C65   H33   S    
C47   C48   A    
Cr4   O13   S    
C16   C20   T    
C17   C18   D    
C45   O3    A    
C22   C55   S    
C52   C58   S    
C1    O20   A    
C61   H28   S    
C6    H1    S    
C62   H25   S    
C22   C27   T    
C37   H5    S    
C65   C66   S    
C41   C44   A    
C25   H3    S    
C42   C43   A    
Cr5   O16   S    
Cr6   O18   S    
Cr3   O4    S    
C3    C4    A    
Cr1   O24   S    
Cr5   O19   S    
C40   C48   A    
C23   O23   A    
C46   C47   A    
C10   H20   S    
C17   H2    S    
C66   H30   S    
C40   C57   S    
C7    C58   A    
C30   C33   A    
C54   O15   A    
C4    C5    A    
Cr4   O19   S    
C67   C68   S    
C53   O11   A    
C46   C50   A    
C26   C28   T    
C18   H21   S    
C63   H24   S    
C23   O1    A    
Cr6   O11   S    
Cr3   O23   S    
C13   C15   T    
C25   C26   S    
Cr4   O7    S    
C30   C32   A    
C11   C13   S    
C38   C39   A    
C30   C56   S    
C11   H19   S    
Cr3   O3    S    
C33   C35   A    
C63   H23   S    
C52   O9    A    
C42   C47   A    
C10   C11   D    
C51   O7    A    
C61   H27   S    
C68   H40   S    
C49   C50   A    
C29   C37   A    
C3    H18   S    
C31   C36   A    
C64   C65   S    
Cr1   O25   S    
C62   C63   S    
C51   O8    A    
Cr3   O22   S    
C3    C59   A    
