data_mof_unit_4395.cif
_audit_creation_date              2012-12-10T16:49:30-0500
_audit_creation_method            fapswitch 2.2
_symmetry_space_group_name_H-M    P1
_symmetry_Int_Tables_number       1
_space_group_crystal_system       triclinic
_cell_length_a                    7.804468
_cell_length_b                    8.555415
_cell_length_c                    12.708196
_cell_angle_alpha                 89.925696
_cell_angle_beta                  87.243547
_cell_angle_gamma                 93.101442
_cell_volume                      846.302488813

loop_
_atom_site_label
_atom_site_type_symbol
_atom_type_description
_atom_site_fract_x
_atom_site_fract_y
_atom_site_fract_z
_atom_type_partial_charge
C1    C     C_R   0.455207 0.205595 0.497360 0.964160
C2    C     C_R   0.596625 0.325543 0.143838 -0.045306
C3    C     C_R   0.496393 0.406730 0.870603 -0.247417
C4    C     C_R   0.503628 0.593266 0.129397 -0.247430
C5    C     C_R   0.517529 0.427447 0.976711 0.157399
C6    C     C_R   0.482487 0.572549 0.023289 0.157413
C7    C     C_2   0.431641 0.042281 0.495226 -0.350488
C8    C     C_2   0.568359 0.957718 0.504776 -0.350541
C9    C     C_2   0.650766 0.190711 0.205678 0.886150
C10   C     C_2   0.349146 0.809244 0.794329 0.886172
C11   C     C_R   0.544793 0.794405 0.502640 0.964132
C12   C     C_R   0.465896 0.511071 0.699312 0.891295
C13   C     C_R   0.534103 0.488924 0.300689 0.891333
C14   C     C_R   0.556585 0.470677 0.189489 -0.113911
C15   C     C_R   0.443414 0.529311 0.810513 -0.113895
C16   C     C_R   0.424008 0.694203 0.963693 -0.224849
C17   C     C_R   0.575989 0.305787 0.036309 -0.224845
C18   C     C_R   0.403351 0.674436 0.856166 -0.045309
H1    H     H_    0.471545 0.702780 0.166747 0.174356
H2    H     H_    0.035391 0.605351 0.324860 0.194558
H3    H     H_    0.967159 0.248853 0.587027 0.166687
H4    H     H_    0.964603 0.394714 0.675153 0.194583
H5    H     H_    0.528486 0.297220 0.833251 0.174340
H6    H     H_    0.395925 0.804709 0.000804 0.185506
H7    H     H_    0.604057 0.195278 0.999198 0.185508
H8    H     H_    0.302238 0.992162 0.485639 0.169531
H9    H     H_    0.697762 0.007837 0.514362 0.169533
H10   H     H_    0.795498 0.112299 0.319877 0.335176
H11   H     H_    0.204307 0.887599 0.680165 0.335178
H12   H     H_    0.032832 0.751172 0.413015 0.166695
N1    N     N_2   0.054030 0.541640 0.471970 0.008018
N2    N     N_2   0.945970 0.458360 0.528030 0.008020
N3    N     N_3   0.984814 0.637177 0.398869 -0.303540
N4    N     N_3   0.015181 0.362854 0.601151 -0.303525
O1    O     O_R   0.609680 0.261530 0.506880 -0.607540
O2    O     O_R   0.766880 0.213826 0.285213 -0.774750
O3    O     O_2   0.401638 0.942170 0.815824 -0.651599
O4    O     O_R   0.232965 0.786089 0.714834 -0.774742
O5    O     O_R   0.390320 0.738470 0.493120 -0.607567
O6    O     O_R   0.323330 0.288220 0.488910 -0.620962
O7    O     O_R   0.676670 0.711780 0.511090 -0.620957
O8    O     O_R   0.619510 0.488830 0.661140 -0.631260
O9    O     O_R   0.380490 0.511170 0.338860 -0.631260
O10   O     O_R   0.333160 0.515520 0.643180 -0.561246
O11   O     O_R   0.666840 0.484480 0.356820 -0.561245
O12   O     O_2   0.598279 0.057795 0.184152 -0.651609
Zn1   Zn    Zn3+2 0.691200 0.482180 0.511990 1.000029
Zn2   Zn    Zn3+2 0.308800 0.517820 0.488010 1.000023

loop_
_geom_bond_atom_site_label_1
_geom_bond_atom_site_label_2
_ccdc_geom_bond_type
H11   O4    S    
C15   C18   A    
C13   O11   A    
N1    N3    S    
C9    O2    S    
O9    Zn2   S    
C3    H5    S    
N1    N2    D    
C1    O6    A    
C12   C15   S    
C8    C11   S    
C10   O4    S    
C17   H7    S    
C13   O9    A    
O7    Zn1   S    
O1    Zn1   S    
C7    C8    D    
C16   H6    S    
C13   C14   S    
C2    C17   A    
C11   O5    A    
C2    C9    S    
H10   O2    S    
C5    C6    A    
C7    H8    S    
C10   C18   S    
C10   O3    D    
H4    N4    S    
H2    N3    S    
C16   C18   A    
C11   O7    A    
O8    Zn1   S    
O11   Zn1   S    
C4    C14   A    
N1    Zn2   S    
C2    C14   A    
N2    Zn1   S    
C5    C17   A    
C6    C16   A    
C9    O12   D    
C3    C15   A    
C1    O1    A    
C4    C6    A    
O6    Zn2   S    
C8    H9    S    
C12   O10   A    
C12   O8    A    
H3    N4    S    
H12   N3    S    
C1    C7    S    
C4    H1    S    
O10   Zn2   S    
O5    Zn2   S    
C3    C5    A    
N2    N4    S    
