data_mof_unit_295.cif
_audit_creation_date              2012-12-10T19:46:23-0500
_audit_creation_method            fapswitch 2.2
_symmetry_space_group_name_H-M    P1
_symmetry_Int_Tables_number       1
_space_group_crystal_system       triclinic
_cell_length_a                    10.855601
_cell_length_b                    10.856734
_cell_length_c                    10.421341
_cell_angle_alpha                 90.868293
_cell_angle_beta                  90.497549
_cell_angle_gamma                 90.272589
_cell_volume                      1228.01942577

loop_
_atom_site_label
_atom_site_type_symbol
_atom_type_description
_atom_site_fract_x
_atom_site_fract_y
_atom_site_fract_z
_atom_type_partial_charge
C1    C     C_R   0.495830 0.261509 0.498770 0.800814
C2    C     C_R   0.503414 0.738539 0.501248 0.798578
C3    C     C_R   0.872018 0.493223 0.501703 -0.081360
C4    C     C_R   0.128024 0.504709 0.498006 -0.077076
C5    C     C_R   0.940194 0.453809 0.609594 0.003712
C6    C     C_R   0.059905 0.543353 0.389899 0.000241
C7    C     C_R   0.258737 0.179797 0.123917 0.557372
C8    C     C_R   0.728466 0.804298 0.878209 0.565335
C9    C     C_R   0.302481 0.141170 0.243587 -0.208246
C10   C     C_R   0.687083 0.844015 0.756393 -0.239257
C11   C     C_R   0.427208 0.112542 0.261830 0.053731
C12   C     C_R   0.566610 0.887850 0.740111 0.077891
C13   C     C_R   0.509615 0.125245 0.160024 -0.131077
C14   C     C_R   0.486165 0.890030 0.844629 -0.151200
C15   C     C_R   0.467986 0.168606 0.041915 -0.214831
C16   C     C_R   0.525001 0.846647 0.963601 -0.237060
C17   C     C_R   0.343758 0.196886 0.023700 -0.229829
C18   C     C_R   0.644896 0.803304 0.979891 -0.176159
C19   C     C_R   0.475576 0.931350 0.388526 -0.252568
C20   C     C_R   0.521221 0.068721 0.611876 -0.260158
C21   C     C_R   0.504372 0.872098 0.503213 -0.087629
C22   C     C_R   0.493728 0.127979 0.496974 -0.085707
C23   C     C_R   0.261543 0.503491 0.499286 0.796957
C24   C     C_R   0.738455 0.495854 0.500681 0.797211
C25   C     C_R   0.528264 0.941666 0.616494 0.024529
C26   C     C_R   0.468647 0.058451 0.384066 0.024799
C27   C     C_1   0.500031 0.500020 0.071925 0.096232
C28   C     C_1   0.500007 0.500013 0.928074 0.093137
C29   C     C_R   0.223182 0.762761 0.168388 -0.126959
C30   C     C_R   0.769733 0.237992 0.829606 -0.164840
C31   C     C_R   0.172461 0.712699 0.279107 -0.104312
C32   C     C_R   0.819879 0.288261 0.718693 -0.106766
C33   C     C_R   0.117184 0.595464 0.274130 0.119227
C34   C     C_R   0.883197 0.401379 0.725495 0.110779
C35   C     C_R   0.113505 0.529138 0.157437 -0.119449
C36   C     C_R   0.896545 0.462481 0.844534 -0.125449
C37   C     C_R   0.165947 0.578712 0.047458 -0.122295
C38   C     C_R   0.844109 0.413235 0.954602 -0.103040
C39   C     C_R   0.220398 0.695598 0.052830 -0.128361
C40   C     C_R   0.780796 0.301041 0.947162 -0.141564
C41   C     C_R   0.932496 0.536108 0.392882 -0.239494
C42   C     C_R   0.067653 0.461367 0.606610 -0.254519
Cu1   Cu    Cu3+1 0.500000 0.500000 0.625300 0.979694
Cu2   Cu    Cu3+1 0.500000 0.500000 0.374700 0.982469
H1    H     H_    0.259895 0.734263 0.967285 0.121572
H2    H     H_    0.741919 0.262204 0.032896 0.131815
H3    H     H_    0.605684 0.101199 0.172120 0.135622
H4    H     H_    0.393666 0.925683 0.833959 0.131919
H5    H     H_    0.531692 0.179252 0.963682 0.154000
H6    H     H_    0.462666 0.848031 0.043959 0.154278
H7    H     H_    0.455382 0.878425 0.301762 0.157771
H8    H     H_    0.540060 0.121667 0.698878 0.159599
H9    H     H_    0.264086 0.853833 0.171997 0.117484
H10   H     H_    0.723219 0.149709 0.824785 0.122405
H11   H     H_    0.175248 0.765418 0.368177 0.103277
H12   H     H_    0.810516 0.238763 0.628079 0.109035
H13   H     H_    0.070421 0.439122 0.152031 0.172509
H14   H     H_    0.947547 0.548113 0.851722 0.172100
H15   H     H_    0.163948 0.526750 0.957984 0.124012
H16   H     H_    0.853408 0.461505 0.045826 0.139537
H17   H     H_    0.880251 0.567822 0.310622 0.160294
H18   H     H_    0.120088 0.429624 0.688739 0.149845
H19   H     H_    0.314541 0.231559 0.931609 0.135521
H20   H     H_    0.673841 0.770568 0.073003 0.150530
H21   H     H_    0.238186 0.129296 0.321441 0.137869
H22   H     H_    0.747640 0.842699 0.674485 0.119630
N1    N     N_1   0.500010 0.499990 0.186410 -0.141046
N2    N     N_1   0.499990 0.500010 0.813590 -0.141567
O1    O     O_R   0.499990 0.319650 0.605810 -0.586885
O2    O     O_R   0.500010 0.680350 0.394190 -0.585779
O3    O     O_R   0.499990 0.319640 0.394190 -0.566455
O4    O     O_R   0.500010 0.680360 0.605810 -0.567640
O5    O     O_R   0.319640 0.500010 0.605810 -0.591945
O6    O     O_R   0.680360 0.499990 0.394190 -0.588216
O7    O     O_R   0.319650 0.500010 0.394190 -0.561973
O8    O     O_R   0.680350 0.499990 0.605810 -0.559152
O9    O     O_3   0.133772 0.204548 0.111764 -0.599541
C43   C     C_3   0.085821 0.160906 0.993048 -0.357202
H23   H     H_    0.100147 0.230371 0.917354 0.170333
H24   H     H_    0.985167 0.147264 0.003122 0.207962
H25   H     H_    0.124824 0.070040 0.963652 0.149082
O10   O     O_3   0.846431 0.760261 0.902288 -0.593680
C44   C     C_3   0.937099 0.822901 0.831830 -0.386412
H26   H     H_    0.027943 0.807241 0.878114 0.197335
H27   H     H_    0.921949 0.924343 0.831460 0.156114
H28   H     H_    0.942208 0.784614 0.732587 0.172543

loop_
_geom_bond_atom_site_label_1
_geom_bond_atom_site_label_2
_ccdc_geom_bond_type
Cu1   O5    S    
C30   C32   A    
C5    C42   A    
Cu1   O4    S    
C41   H17   S    
C18   H20   S    
C28   N2    T    
O9    C43   S    
C40   H2    S    
C30   H10   S    
C1    O3    A    
C4    C42   A    
C8    O10   S    
C19   C21   A    
C16   H6    S    
C36   H14   S    
C43   H24   S    
C20   C25   A    
Cu2   O3    S    
C7    C9    A    
C19   C26   A    
Cu1   N2    S    
C7    C17   A    
C6    C41   A    
C31   C33   A    
Cu2   O2    S    
C42   H18   S    
C39   H1    S    
C1    C22   S    
Cu1   O1    S    
C3    C24   S    
C23   O5    A    
C2    O4    A    
C9    H21   S    
C10   H22   S    
C4    C6    A    
C23   O7    A    
C13   H3    S    
C4    C23   S    
C43   H23   S    
C24   O8    A    
C14   H4    S    
C11   C26   S    
C8    C18   A    
C32   C34   A    
Cu2   O7    S    
Cu1   Cu2   S    
C44   H26   S    
C29   C31   A    
C5    C34   S    
C29   C39   A    
C2    C21   S    
C30   C40   A    
Cu2   O6    S    
C9    C11   A    
C37   H15   S    
C10   C12   A    
C38   H16   S    
C16   C18   A    
C44   H27   S    
C12   C14   A    
O10   C44   S    
C13   C15   A    
C14   C16   A    
Cu1   O8    S    
C15   C17   A    
C21   C25   A    
C3    C41   A    
C35   C37   A    
C20   C22   A    
C3    C5    A    
C6    C33   S    
C7    O9    S    
C12   C25   S    
C20   H8    S    
C36   C38   A    
C37   C39   A    
C17   H19   S    
C38   C40   A    
C11   C13   A    
C43   H25   S    
C24   O6    A    
C29   H9    S    
C33   C35   A    
C34   C36   A    
C15   H5    S    
C1    O1    A    
C27   N1    T    
C19   H7    S    
C44   H28   S    
C8    C10   A    
C35   H13   S    
C22   C26   A    
C27   C28   S    
Cu2   N1    S    
C31   H11   S    
C2    O2    A    
C32   H12   S    
