data_mof_unit_442.cif
_audit_creation_date              2012-12-11T15:56:40-0500
_audit_creation_method            fapswitch 2.2
_symmetry_space_group_name_H-M    P1
_symmetry_Int_Tables_number       1
_space_group_crystal_system       triclinic
_cell_length_a                    14.654539
_cell_length_b                    7.166713
_cell_length_c                    13.594727
_cell_angle_alpha                 89.999877
_cell_angle_beta                  99.904221
_cell_angle_gamma                 90.000113
_cell_volume                      1406.50574436

loop_
_atom_site_label
_atom_site_type_symbol
_atom_type_description
_atom_site_fract_x
_atom_site_fract_y
_atom_site_fract_z
_atom_type_partial_charge
O1    O     O_R   0.336930 0.638190 0.166330 -0.539758
O2    O     O_R   0.663070 0.361810 0.833670 -0.544557
O3    O     O_R   0.163070 0.138190 0.333670 -0.539759
O4    O     O_R   0.836930 0.861810 0.666330 -0.544560
O5    O     O_R   0.147900 0.305430 0.139630 -0.531003
O6    O     O_R   0.852100 0.694570 0.860370 -0.525985
O7    O     O_R   0.352100 0.805430 0.360370 -0.531003
O8    O     O_R   0.647900 0.194570 0.639630 -0.525986
C1    C     C_R   0.115094 0.477588 0.113115 0.734978
C2    C     C_R   0.884919 0.522410 0.886871 0.729736
C3    C     C_R   0.384906 0.977588 0.386885 0.734971
C4    C     C_R   0.615081 0.022410 0.613129 0.729727
O9    O     O_R   0.335280 0.308290 0.154310 -0.529936
O10   O     O_R   0.664720 0.691710 0.845690 -0.526331
O11   O     O_R   0.164720 0.808290 0.345690 -0.529938
O12   O     O_R   0.835280 0.191710 0.654310 -0.526327
O13   O     O_R   0.351790 0.140890 0.348460 -0.536216
O14   O     O_R   0.648210 0.859110 0.651540 -0.538690
O15   O     O_R   0.148210 0.640890 0.151540 -0.536215
O16   O     O_R   0.851790 0.359110 0.848460 -0.538692
C5    C     C_R   0.362123 0.477248 0.130882 0.722327
C6    C     C_R   0.637904 0.522769 0.869167 0.714976
C7    C     C_R   0.137877 0.977247 0.369118 0.722317
C8    C     C_R   0.862095 0.022770 0.630832 0.714969
O17   O     O_3   0.255200 0.472570 0.313680 -0.374058
O18   O     O_3   0.744800 0.527430 0.686320 -0.371565
O19   O     O_3   0.244800 0.972570 0.186320 -0.374056
O20   O     O_3   0.755200 0.027430 0.813680 -0.371567
V1    V     V_3+5 0.249040 0.196590 0.238190 1.486863
V2    V     V_3+5 0.750960 0.803410 0.761810 1.501351
V3    V     V_3+5 0.250960 0.696590 0.261810 1.486864
V4    V     V_3+5 0.749040 0.303410 0.738190 1.501358
C9    C     C_R   0.066196 0.854591 0.515490 0.008154
C10   C     C_R   0.933931 0.145728 0.484439 0.007627
C11   C     C_R   0.433793 0.354610 0.984499 0.008142
C12   C     C_R   0.566078 0.645708 0.015570 0.007625
C13   C     C_R   0.995750 0.866995 0.573670 -0.167190
C14   C     C_R   0.004258 0.133133 0.426246 -0.154603
C15   C     C_R   0.504239 0.367012 0.926318 -0.167188
C16   C     C_R   0.495751 0.633117 0.073763 -0.154625
H1    H     H_    0.994733 0.766384 0.633046 0.148883
H2    H     H_    0.005378 0.233890 0.366960 0.148026
H3    H     H_    0.505249 0.266415 0.866934 0.148873
H4    H     H_    0.494638 0.733860 0.133056 0.148023
C17   C     C_R   0.930004 0.011913 0.560651 -0.133111
C18   C     C_R   0.069958 0.988170 0.439245 -0.126246
C19   C     C_R   0.569995 0.511911 0.939348 -0.133090
C20   C     C_R   0.430042 0.488172 0.060754 -0.126232
C21   C     C_1   0.533905 0.008205 0.533143 -0.148836
C22   C     C_1   0.466064 0.991780 0.466888 -0.154026
C23   C     C_1   0.966095 0.508205 0.966857 -0.148834
C24   C     C_1   0.033936 0.491780 0.033112 -0.154027
C25   C     C_2   0.137598 0.707509 0.541294 0.776068
O21   O     O_2   0.115144 0.552271 0.565979 -0.550723
O22   O     O_R   0.230948 0.748060 0.541257 -0.663856
H5    H     H_    0.272801 0.636623 0.560662 0.295133
C26   C     C_2   0.863769 0.295154 0.458944 0.764300
O23   O     O_2   0.781816 0.263284 0.459152 -0.562933
O24   O     O_R   0.891309 0.471224 0.430651 -0.657386
H6    H     H_    0.837534 0.561487 0.414579 0.298633
C27   C     C_2   0.362382 0.207546 0.958687 0.776051
O25   O     O_2   0.384825 0.052314 0.933982 -0.550730
O26   O     O_R   0.269037 0.248108 0.958741 -0.663858
H7    H     H_    0.227177 0.136683 0.939328 0.295133
C28   C     C_2   0.636253 0.795106 0.041077 0.764285
O27   O     O_2   0.718203 0.763215 0.040861 -0.562939
O28   O     O_R   0.608731 0.971171 0.069394 -0.657395
H8    H     H_    0.662515 0.061409 0.085475 0.298637

loop_
_geom_bond_atom_site_label_1
_geom_bond_atom_site_label_2
_ccdc_geom_bond_type
O2    C6    A    
C10   C26   S    
C11   C15   A    
O22   H5    S    
O1    C5    A    
O14   V2    S    
O19   V1    S    
C9    C25   S    
O13   V1    S    
O3    C7    A    
O1    V3    S    
O8    C4    A    
C5    C20   S    
O15   V3    S    
O11   C7    A    
O10   C6    A    
O20   V2    S    
C6    C19   S    
O9    C5    A    
O24   H6    S    
O12   C8    A    
C10   C17   A    
C25   O21   D    
O18   V4    S    
C9    C18   A    
O3    V1    S    
C26   O23   D    
C1    C24   S    
C2    O16   A    
O10   V2    S    
C11   C20   A    
O2    V4    S    
O6    V2    S    
C8    C17   S    
C4    C21   S    
O5    V1    S    
C25   O22   S    
C13   H1    S    
C27   O25   D    
O4    C8    A    
C21   C22   T    
C9    C13   A    
C12   C16   A    
C14   C18   A    
C26   O24   S    
O12   V4    S    
O6    C2    A    
C2    C23   S    
C13   C17   A    
C23   C24   T    
O8    V4    S    
C14   H2    S    
C16   H4    S    
C7    C18   S    
O7    V3    S    
O11   V3    S    
C12   C19   A    
C11   C27   S    
C28   O27   D    
O16   V4    S    
C4    O14   A    
C16   C20   A    
C3    C22   S    
C12   C28   S    
C3    O13   A    
O7    C3    A    
C15   H3    S    
C10   C14   A    
C15   C19   A    
O17   V3    S    
C1    O15   A    
C27   O26   S    
O4    V2    S    
O28   H8    S    
O9    V1    S    
O5    C1    A    
O26   H7    S    
C28   O28   S    
