data_mof_unit_3260.cif
_audit_creation_date              2012-12-10T17:23:09-0500
_audit_creation_method            fapswitch 2.2
_symmetry_space_group_name_H-M    P1
_symmetry_Int_Tables_number       1
_space_group_crystal_system       triclinic
_cell_length_a                    15.841314
_cell_length_b                    10.780796
_cell_length_c                    9.653081
_cell_angle_alpha                 89.394555
_cell_angle_beta                  89.60928
_cell_angle_gamma                 95.145357
_cell_volume                      1641.78751814

loop_
_atom_site_label
_atom_site_type_symbol
_atom_type_description
_atom_site_fract_x
_atom_site_fract_y
_atom_site_fract_z
_atom_type_partial_charge
C1    C     C_R   0.495691 0.262445 0.500793 0.775011
C2    C     C_3   0.083174 0.503878 0.501544 0.128900
C3    C     C_3   0.979178 0.620624 0.520280 -0.110764
C4    C     C_3   0.917448 0.503901 0.499908 0.122168
C5    C     C_3   0.033842 0.578817 0.398169 -0.215062
C6    C     C_3   0.970445 0.462373 0.376995 -0.248674
C7    C     C_1   0.174815 0.502150 0.501791 -0.020975
C8    C     C_1   0.825645 0.503299 0.499180 -0.039781
C9    C     C_R   0.366494 0.109175 0.663292 -0.273440
C10   C     C_R   0.307644 0.035334 0.743399 -0.176931
C11   C     C_R   0.308027 0.906032 0.746220 0.502185
C12   C     C_R   0.340031 0.499389 0.500412 0.788902
C13   C     C_R   0.366262 0.850659 0.660857 -0.301545
C14   C     C_R   0.428447 0.923908 0.582882 0.047994
C15   C     C_R   0.428744 0.055101 0.584322 0.105869
C16   C     C_R   0.489425 0.127714 0.502000 -0.071822
C17   C     C_R   0.545657 0.071198 0.416567 -0.206214
C18   C     C_R   0.545264 0.943483 0.415645 -0.180933
C19   C     C_R   0.488858 0.869624 0.499429 -0.072165
C20   C     C_R   0.614468 0.685610 0.129601 0.265493
C21   C     C_R   0.660896 0.777518 0.045345 0.220445
C22   C     C_R   0.659819 0.766660 0.902954 0.350790
C23   C     C_R   0.496352 0.736670 0.499665 0.816816
C24   C     C_R   0.609272 0.671473 0.845114 -0.236521
C25   C     C_R   0.553893 0.586512 0.921548 0.056433
C26   C     C_R   0.554709 0.589572 0.070866 0.126674
C27   C     C_R   0.448528 0.418002 0.075356 -0.062640
C28   C     C_R   0.448373 0.418360 0.928054 -0.037433
C29   C     C_R   0.659986 0.500351 0.499696 0.851004
C30   C     C_3   0.966608 0.428980 0.604184 -0.242728
C31   C     C_3   0.020411 0.389782 0.481657 0.516468
C32   C     C_1   0.250349 0.500734 0.501400 -0.173601
C33   C     C_1   0.749912 0.501989 0.499044 -0.177493
C34   C     C_3   0.030066 0.545686 0.623671 -0.203989
Cu1   Cu    Cu3+1 0.499990 0.499990 0.640660 0.937954
Cu2   Cu    Cu3+1 0.500010 0.500010 0.359340 0.978919
H1    H     H_    0.360918 0.750663 0.653042 0.149264
H2    H     H_    0.591029 0.902011 0.352348 0.170061
H3    H     H_    0.406118 0.350560 0.131232 0.138305
H4    H     H_    0.616402 0.670211 0.736742 0.252465
H5    H     H_    0.405796 0.351118 0.874784 0.123946
H6    H     H_    0.937729 0.367083 0.687598 0.139440
H7    H     H_    0.944925 0.426855 0.276718 0.140736
H8    H     H_    0.062865 0.640598 0.314704 0.150464
H9    H     H_    0.960489 0.716217 0.536372 0.146632
H10   H     H_    0.056064 0.580515 0.723944 0.154894
H11   H     H_    0.591665 0.126507 0.352631 0.158031
H12   H     H_    0.361445 0.208467 0.662505 0.161510
H13   H     H_    0.260923 0.079231 0.803660 0.154339
N1    N     N_R   0.500800 0.501210 0.147910 -0.163356
N2    N     N_R   0.500830 0.501290 0.852040 -0.169774
O1    O     O_R   0.499990 0.319640 0.618810 -0.576362
O2    O     O_R   0.500000 0.319660 0.381240 -0.580704
O3    O     O_R   0.379070 0.499980 0.618770 -0.600439
O4    O     O_R   0.379080 0.500000 0.381190 -0.578594
O5    O     O_R   0.500000 0.680340 0.618760 -0.610078
O6    O     O_R   0.500010 0.680360 0.381190 -0.515020
O7    O     O_R   0.620920 0.500000 0.618810 -0.592535
O8    O     O_R   0.620930 0.500020 0.381230 -0.515226
O9    O     O_3   0.047444 0.270101 0.460854 -0.614489
C35   C     C_3   0.977078 0.180113 0.449974 0.044778
H14   H     H_    0.984919 0.127420 0.353129 0.170319
H15   H     H_    0.914423 0.219645 0.442854 0.128050
C36   C     C_3   0.975948 0.089599 0.573217 -0.344405
H16   H     H_    0.036374 0.044543 0.575322 0.234682
H17   H     H_    0.970412 0.141677 0.671088 0.216709
C37   C     C_3   0.901956 0.989063 0.564553 -0.883651
H18   H     H_    0.840721 0.031857 0.566198 0.267756
H19   H     H_    0.903405 0.924425 0.654666 0.266142
H20   H     H_    0.906555 0.934884 0.467960 0.250197
O10   O     O_3   0.245989 0.837571 0.824959 -0.619691
C38   C     C_3   0.278300 0.735155 0.893143 0.052506
H21   H     H_    0.278232 0.655268 0.821126 0.159272
H22   H     H_    0.343791 0.759361 0.932464 0.146186
C39   C     C_3   0.220882 0.695273 0.016568 -0.342699
H23   H     H_    0.217939 0.775029 0.087974 0.227005
H24   H     H_    0.155753 0.667436 0.979233 0.221423
C40   C     C_3   0.253584 0.586198 0.095728 -0.890930
H25   H     H_    0.256569 0.504877 0.026705 0.248973
H26   H     H_    0.210155 0.558788 0.183745 0.259546
H27   H     H_    0.317738 0.613307 0.137288 0.273283
O11   O     O_3   0.632913 0.690323 0.266707 -0.698217
H28   H     H_    0.695232 0.706463 0.277856 0.317397
O12   O     O_3   0.711503 0.875819 0.100581 -0.752584
H29   H     H_    0.691268 0.894028 0.194434 0.331418
O13   O     O_3   0.707761 0.847316 0.814568 -0.724039
H30   H     H_    0.742274 0.910825 0.868103 0.377751

loop_
_geom_bond_atom_site_label_1
_geom_bond_atom_site_label_2
_ccdc_geom_bond_type
C20   O11   S    
C2    C7    S    
C4    C8    S    
Cu2   O8    S    
C23   O5    A    
Cu1   O7    S    
C26   N1    A    
C5    C6    S    
C28   N2    A    
C11   O10   S    
C15   C16   A    
C29   C33   S    
C28   H5    S    
C18   C19   A    
C35   H15   S    
C1    O2    A    
Cu2   O2    S    
C29   O8    A    
C27   H3    S    
C16   C17   A    
C34   H10   S    
C9    C10   A    
C13   H1    S    
C27   N1    A    
C2    C34   S    
C6    C31   S    
C21   C22   A    
C12   C32   S    
Cu1   O3    S    
C38   C39   S    
C1    O1    A    
C30   C34   S    
C37   H18   S    
C36   C37   S    
C24   C25   A    
C4    C6    S    
Cu2   O6    S    
O13   H30   S    
C3    C34   S    
C25   C26   A    
C3    H9    S    
O9    C35   S    
C37   H19   S    
Cu1   Cu2   S    
C36   H17   S    
C31   O9    S    
C35   C36   S    
C19   C23   S    
C39   H23   S    
C25   N2    A    
C21   O12   S    
C17   C18   A    
C1    C16   S    
O12   H29   S    
C39   H24   S    
C38   H22   S    
C5    H8    S    
C6    H7    S    
Cu1   N2    S    
C22   C24   A    
C2    C5    S    
C3    C4    S    
Cu1   O1    S    
Cu2   N1    S    
C29   O7    A    
C23   O6    A    
C7    C32   T    
Cu1   O5    S    
C40   H25   S    
C14   C19   A    
C30   H6    S    
C17   H11   S    
C38   H21   S    
C3    C5    S    
C37   H20   S    
C36   H16   S    
C9    C15   A    
O10   C38   S    
Cu2   O4    S    
C11   C13   A    
C40   H27   S    
C30   C31   S    
C20   C26   A    
C24   H4    S    
C40   H26   S    
C8    C33   T    
C22   O13   S    
C18   H2    S    
C35   H14   S    
C39   C40   S    
C4    C30   S    
C12   O4    A    
C10   C11   A    
C20   C21   A    
C9    H12   S    
O11   H28   S    
C27   C28   A    
C14   C15   A    
C2    C31   S    
C13   C14   A    
C10   H13   S    
C12   O3    A    
