data_mof_unit_361.cif
_audit_creation_date              2012-12-10T18:35:06-0500
_audit_creation_method            fapswitch 2.2
_symmetry_space_group_name_H-M    P1
_symmetry_Int_Tables_number       1
_space_group_crystal_system       triclinic
_cell_length_a                    18.727189
_cell_length_b                    18.989367
_cell_length_c                    18.808598
_cell_angle_alpha                 109.769802
_cell_angle_beta                  109.12737
_cell_angle_gamma                 109.628478
_cell_volume                      5141.67522385

loop_
_atom_site_label
_atom_site_type_symbol
_atom_type_description
_atom_site_fract_x
_atom_site_fract_y
_atom_site_fract_z
_atom_type_partial_charge
C1    C     C_R   0.381341 0.500308 0.381061 0.784080
C2    C     C_R   0.807522 0.754931 0.817183 -0.121985
C3    C     C_R   0.018167 0.781797 0.994549 -0.206059
C4    C     C_R   0.989451 0.752909 0.044440 -0.087798
C5    C     C_R   0.044920 0.794248 0.134575 0.073120
C6    C     C_R   0.293193 0.551495 0.996020 -0.195206
C7    C     C_R   0.214932 0.487802 0.917593 0.463380
C8    C     C_R   0.173595 0.401816 0.901715 0.020937
C9    C     C_R   0.216586 0.381378 0.961592 -0.163115
C10   C     C_R   0.294247 0.445537 0.039200 -0.090435
C11   C     C_R   0.331902 0.530689 0.056892 -0.133533
C12   C     C_R   0.087707 0.267332 0.754367 0.378813
C13   C     C_R   0.828801 0.811304 0.574103 -0.213820
C14   C     C_R   0.006624 0.191428 0.686793 -0.190233
C15   C     C_R   0.928076 0.179657 0.686215 -0.033016
C16   C     C_R   0.929367 0.242921 0.751442 -0.135367
C17   C     C_R   0.007853 0.317548 0.818680 -0.143704
C18   C     C_R   0.088561 0.330077 0.822314 -0.046519
C19   C     C_R   0.793059 0.076420 0.539253 0.012527
C20   C     C_R   0.718646 0.994780 0.479870 -0.110727
C21   C     C_R   0.696328 0.933144 0.505123 -0.116838
C22   C     C_R   0.748108 0.953404 0.590055 -0.108112
C23   C     C_R   0.822342 0.034722 0.649393 -0.129242
C24   C     C_R   0.812441 0.810817 0.495494 -0.065657
C25   C     C_R   0.845377 0.096601 0.624337 0.068338
C26   C     C_R   0.730898 0.746850 0.418303 0.028563
C27   C     C_R   0.670795 0.682439 0.421969 -0.262143
C28   C     C_R   0.687130 0.684411 0.500633 -0.082891
C29   C     C_R   0.765667 0.750170 0.577725 -0.027554
C30   C     C_R   0.622053 0.733701 0.286570 -0.249642
C31   C     C_R   0.592760 0.723057 0.203112 -0.197760
C32   C     C_R   0.644842 0.721753 0.164241 0.506622
C33   C     C_R   0.619857 0.618413 0.500870 0.788334
C34   C     C_R   0.727470 0.733103 0.210368 -0.198436
C35   C     C_R   0.756860 0.744054 0.294004 -0.174863
C36   C     C_R   0.704320 0.743654 0.332838 0.136959
C37   C     C_R   0.430558 0.796658 0.526048 -0.135207
C38   C     C_R   0.364314 0.718427 0.449582 0.388363
C39   C     C_R   0.386446 0.664785 0.398921 0.033356
C40   C     C_R   0.474694 0.691922 0.425256 -0.171371
C41   C     C_R   0.539789 0.768094 0.503146 -0.130623
C42   C     C_R   0.518185 0.821025 0.553257 -0.159752
C43   C     C_R   0.256267 0.575078 0.251977 -0.164371
C44   C     C_R   0.616087 0.497923 0.618954 0.812708
C45   C     C_R   0.185519 0.495599 0.181004 -0.067574
C46   C     C_R   0.177383 0.417170 0.176967 0.018068
C47   C     C_R   0.244830 0.421458 0.242209 -0.235118
C48   C     C_R   0.314978 0.501068 0.313826 -0.081684
C49   C     C_R   0.318655 0.578904 0.320856 0.038762
C50   C     C_R   0.059556 0.272055 0.131292 -0.191354
C51   C     C_R   0.989232 0.188783 0.067769 -0.146507
C52   C     C_R   0.958094 0.162239 0.979331 0.434187
C53   C     C_R   0.997556 0.219839 0.955360 -0.198663
C54   C     C_R   0.067506 0.303220 0.019233 -0.173743
C55   C     C_R   0.379585 0.381593 0.498895 0.795101
C56   C     C_R   0.099938 0.330112 0.107882 0.105862
C57   C     C_R   0.241534 0.529848 0.542306 -0.031499
C58   C     C_R   0.261467 0.468541 0.553908 -0.111048
C59   C     C_R   0.216069 0.382898 0.484823 0.000013
C60   C     C_R   0.146457 0.358187 0.405361 0.371806
C61   C     C_R   0.126848 0.420001 0.394353 -0.139232
C62   C     C_R   0.174614 0.505685 0.462491 -0.052940
C63   C     C_R   0.175464 0.251449 0.496404 -0.053214
C64   C     C_R   0.187016 0.183061 0.498458 -0.068002
C65   C     C_R   0.263281 0.181423 0.503302 0.006656
C66   C     C_R   0.768679 0.799641 0.791194 -0.025049
C67   C     C_R   0.325492 0.248083 0.504069 -0.234445
C68   C     C_R   0.313132 0.315746 0.500533 -0.077741
C69   C     C_R   0.237467 0.317982 0.497123 0.025628
C70   C     C_R   0.354968 0.127945 0.572055 -0.160584
C71   C     C_R   0.371843 0.061268 0.570929 0.423151
C72   C     C_R   0.312920 0.976433 0.501597 -0.073581
C73   C     C_R   0.237177 0.958211 0.433526 -0.120196
C74   C     C_R   0.220104 0.024676 0.434440 -0.146030
C75   C     C_R   0.278742 0.110011 0.503940 0.064627
C76   C     C_R   0.512355 0.563992 0.798148 -0.075963
C77   C     C_R   0.756856 0.799971 0.713966 -0.035960
C78   C     C_R   0.588988 0.569505 0.799031 0.029002
C79   C     C_R   0.592878 0.493806 0.762798 0.167315
C80   C     C_R   0.519500 0.412831 0.726137 -0.121540
C81   C     C_R   0.443218 0.407722 0.726131 -0.091018
C82   C     C_R   0.439568 0.483206 0.761713 -0.081422
C83   C     C_R   0.738912 0.502124 0.826591 0.364721
C84   C     C_R   0.812305 0.502876 0.817982 -0.184137
C85   C     C_R   0.817578 0.500721 0.743912 0.039332
C86   C     C_R   0.751121 0.496948 0.679537 -0.156970
C87   C     C_R   0.680179 0.496954 0.687154 -0.130579
C88   C     C_R   0.783310 0.754791 0.662021 0.083212
C89   C     C_R   0.672615 0.499193 0.759989 -0.128207
C90   C     C_R   0.963000 0.576933 0.760984 -0.245673
C91   C     C_R   0.019475 0.582050 0.727491 -0.202214
C92   C     C_R   0.002568 0.508444 0.658120 0.363411
C93   C     C_R   0.929424 0.427510 0.624295 0.282956
C94   C     C_R   0.872754 0.421541 0.659640 0.325423
C95   C     C_R   0.888523 0.497937 0.726501 -0.059177
C96   C     C_R   0.996600 0.878003 0.381459 0.750495
C97   C     C_R   0.880568 0.879620 0.498069 0.760575
C98   C     C_R   0.003136 0.121518 0.618953 0.873512
C99   C     C_R   0.822293 0.710098 0.688367 -0.149456
C100  C     C_R   0.119164 0.116175 0.497752 0.837155
C101  C     C_R   0.003047 0.381909 0.883492 0.790268
C102  C     C_R   0.118792 0.497878 0.116498 0.763916
C103  C     C_R   0.999474 0.618936 0.118514 0.826796
C104  C     C_R   0.880650 0.501222 0.882607 0.874176
C105  C     C_R   0.017113 0.725233 0.521475 -0.153255
C106  C     C_R   0.035085 0.744687 0.461622 0.464285
C107  C     C_R   0.966002 0.711081 0.377873 -0.012809
C108  C     C_R   0.880740 0.653033 0.353670 -0.243454
C109  C     C_R   0.863304 0.634434 0.413953 -0.092058
C110  C     C_R   0.834476 0.710547 0.765881 -0.150274
C111  C     C_R   0.931325 0.671177 0.498062 -0.194330
C112  C     C_R   0.980398 0.668997 0.245965 -0.151998
C113  C     C_R   0.997969 0.685788 0.184632 -0.052873
C114  C     C_R   0.015878 0.766535 0.189663 0.036868
C115  C     C_R   0.010863 0.826057 0.252834 -0.242374
C116  C     C_R   0.995443 0.810004 0.314877 -0.062213
C117  C     C_R   0.981950 0.731483 0.313132 0.045698
C118  C     C_R   0.128441 0.865890 0.174100 -0.254041
C119  C     C_R   0.156589 0.895699 0.124288 0.419014
C120  C     C_R   0.101383 0.852871 0.034113 -0.137934
Cu1   Cu    Cu3+1 0.499980 0.561800 0.561790 0.953781
Cu2   Cu    Cu3+1 0.500020 0.438200 0.438210 1.040352
Cu3   Cu    Cu3+1 0.061810 0.999960 0.561770 1.093747
Cu4   Cu    Cu3+1 0.938190 0.999990 0.438190 1.035949
Cu5   Cu    Cu3+1 0.061800 0.561770 0.999960 1.057708
Cu6   Cu    Cu3+1 0.938200 0.438190 0.000000 1.090435
H1    H     H_    0.816348 0.754274 0.876741 0.145450
H2    H     H_    0.768953 0.732721 0.181633 0.187861
H3    H     H_    0.820661 0.753024 0.328461 0.131352
H4    H     H_    0.569288 0.880531 0.613404 0.185212
H5    H     H_    0.414116 0.837823 0.565362 0.196929
H6    H     H_    0.492898 0.652184 0.386939 0.108365
H7    H     H_    0.606896 0.784891 0.524767 0.135379
H8    H     H_    0.260678 0.634827 0.255767 0.174040
H9    H     H_    0.241292 0.362066 0.238671 0.173134
H10   H     H_    0.747140 0.833459 0.830515 0.182287
H11   H     H_    0.082653 0.292011 0.199085 0.203011
H12   H     H_    0.959537 0.145319 0.087785 0.213946
H13   H     H_    0.974063 0.200077 0.887254 0.162555
H14   H     H_    0.095799 0.347242 0.999791 0.111846
H15   H     H_    0.158535 0.552973 0.453981 0.212144
H16   H     H_    0.277363 0.595928 0.595530 0.173808
H17   H     H_    0.312206 0.487814 0.616761 0.155181
H18   H     H_    0.073892 0.401467 0.333289 0.175928
H19   H     H_    0.725602 0.833840 0.693878 0.137641
H20   H     H_    0.117091 0.252736 0.493473 0.201928
H21   H     H_    0.383800 0.246887 0.506687 0.170243
H22   H     H_    0.401097 0.193578 0.625781 0.158702
H23   H     H_    0.325811 0.924660 0.500304 0.192720
H24   H     H_    0.191968 0.892513 0.379914 0.177968
H25   H     H_    0.162018 0.010073 0.380633 0.109086
H26   H     H_    0.380289 0.479207 0.760786 0.153521
H27   H     H_    0.509361 0.622341 0.825634 0.154755
H28   H     H_    0.645019 0.632375 0.827181 0.127978
H29   H     H_    0.842079 0.674114 0.648438 0.121864
H30   H     H_    0.521416 0.354002 0.697393 0.148076
H31   H     H_    0.386680 0.345262 0.697924 0.176240
H32   H     H_    0.755783 0.495736 0.623115 0.161863
H33   H     H_    0.975064 0.635906 0.811097 0.172475
H34   H     H_    0.075128 0.644597 0.754196 0.211092
H35   H     H_    0.917786 0.656563 0.544648 0.143799
H36   H     H_    0.863637 0.675356 0.785438 0.122777
H37   H     H_    0.069795 0.751373 0.586024 0.178781
H38   H     H_    0.827447 0.623087 0.288278 0.168294
H39   H     H_    0.797030 0.591382 0.395373 0.164405
H40   H     H_    0.968428 0.607973 0.243440 0.169366
H41   H     H_    0.022516 0.887198 0.255743 0.155274
H42   H     H_    0.171386 0.898440 0.243684 0.163409
H43   H     H_    0.122512 0.874687 0.994583 0.179396
H44   H     H_    0.975765 0.749461 0.925232 0.138565
H45   H     H_    0.889909 0.861304 0.633667 0.177375
H46   H     H_    0.924304 0.698822 0.012898 0.163187
H47   H     H_    0.392025 0.580369 0.117236 0.144581
H48   H     H_    0.324988 0.617523 0.009720 0.152021
H49   H     H_    0.188778 0.315356 0.948647 0.162389
H50   H     H_    0.325217 0.429150 0.085718 0.155257
H51   H     H_    0.868426 0.233113 0.750411 0.205551
H52   H     H_    0.811829 0.122276 0.517793 0.201305
H53   H     H_    0.679188 0.978774 0.413892 0.153806
H54   H     H_    0.609442 0.631229 0.363243 0.148780
H55   H     H_    0.639625 0.869629 0.458305 0.137116
H56   H     H_    0.732506 0.906283 0.610332 0.139118
H57   H     H_    0.863154 0.048863 0.714210 0.196034
H58   H     H_    0.579984 0.733174 0.314739 0.143013
H59   H     H_    0.528975 0.714784 0.168306 0.162888
O1    O     O_R   0.409800 0.552190 0.462000 -0.571400
O2    O     O_R   0.947810 0.909820 0.357620 -0.587986
O3    O     O_R   0.962020 0.909790 0.552160 -0.589224
O4    O     O_R   0.857630 0.909810 0.447800 -0.583162
O5    O     O_R   0.052190 0.090130 0.642340 -0.535352
O6    O     O_R   0.947800 0.090160 0.537980 -0.585870
O7    O     O_R   0.142370 0.090140 0.552150 -0.531782
O8    O     O_R   0.037980 0.090170 0.447800 -0.571842
O9    O     O_R   0.052200 0.461970 0.909800 -0.541237
O10   O     O_R   0.947810 0.357610 0.909840 -0.592495
O11   O     O_R   0.142370 0.552160 0.090140 -0.594918
O12   O     O_R   0.409840 0.447810 0.357640 -0.579144
O13   O     O_R   0.037990 0.447800 0.090170 -0.578835
O14   O     O_R   0.052190 0.642350 0.090120 -0.588621
O15   O     O_R   0.947800 0.537990 0.090150 -0.548249
O16   O     O_R   0.962010 0.552150 0.909780 -0.588217
O17   O     O_R   0.857630 0.447800 0.909820 -0.494868
O18   O     O_R   0.590160 0.642370 0.552180 -0.586077
O19   O     O_R   0.590190 0.537990 0.447820 -0.579427
O20   O     O_R   0.590160 0.552190 0.642360 -0.601501
O21   O     O_R   0.590200 0.447810 0.538000 -0.559195
O22   O     O_R   0.409810 0.462010 0.552180 -0.605666
O23   O     O_R   0.409840 0.357630 0.447820 -0.558587
O24   O     O_R   0.052200 0.909800 0.461980 -0.551647
S1    S     S_3+6 0.604535 0.703395 0.057177 -0.001002
O25   O     O_2   0.579454 0.769864 0.052979 -0.295943
O26   O     O_2   0.672245 0.709576 0.029699 -0.261168
O27   O     O_3   0.515638 0.603808 0.989827 -0.513240
H60   H     H_    0.471139 0.610860 0.951350 0.363015
Cl1   Cl    Cl    0.255028 0.688443 0.421792 -0.634059
S2    S     S_3+6 0.870167 0.057421 0.898175 -0.023646
O28   O     O_2   0.903841 0.007028 0.852454 -0.290919
O29   O     O_2   0.828565 0.011650 0.937336 -0.286630
O30   O     O_3   0.795202 0.063505 0.825063 -0.537790
H61   H     H_    0.780862 0.102960 0.859896 0.360751
Cl2   Cl    Cl    0.080887 0.249621 0.319958 -0.641943
Cl3   Cl    Cl    0.467257 0.084177 0.656040 -0.538887
S3    S     S_3+6 0.728917 0.502617 0.918514 0.013652
O31   O     O_2   0.699550 0.413029 0.905555 -0.230029
O32   O     O_2   0.815853 0.564667 0.000186 -0.356648
O33   O     O_3   0.657228 0.531799 0.933213 -0.482716
H62   H     H_    0.658469 0.529212 0.985303 0.399438
S4    S     S_3+6 0.072325 0.519701 0.612885 0.083579
O34   O     O_2   0.149699 0.609958 0.665709 -0.288695
O35   O     O_2   0.104436 0.456707 0.610336 -0.154253
O36   O     O_3   0.015862 0.497750 0.510507 -0.493393
H63   H     H_    0.998418 0.542328 0.516566 0.336581
Cl4   Cl    Cl    0.906623 0.335256 0.534393 -0.402946
S5    S     S_3+6 0.778658 0.320317 0.615500 0.040129
O37   O     O_2   0.800888 0.249774 0.596408 -0.277099
O38   O     O_2   0.744158 0.321148 0.677365 -0.286841
O39   O     O_3   0.700824 0.299568 0.522291 -0.491935
H64   H     H_    0.649293 0.244825 0.502678 0.389773
Cl5   Cl    Cl    0.144830 0.807525 0.492103 -0.573808
S6    S     S_3+6 0.260884 0.986312 0.174905 0.039408
O40   O     O_2   0.323268 0.955371 0.166323 -0.216759
O41   O     O_2   0.257753 0.039387 0.131292 -0.262589
O42   O     O_3   0.296670 0.047774 0.281298 -0.503400
H65   H     H_    0.253946 0.067201 0.282560 0.343120
S7    S     S_3+6 0.175921 0.518608 0.840769 0.024787
O43   O     O_2   0.094371 0.443409 0.758794 -0.250913
O44   O     O_2   0.156940 0.588452 0.880159 -0.299007
O45   O     O_3   0.253125 0.557771 0.815641 -0.508108
H66   H     H_    0.298057 0.615829 0.867036 0.350195
S8    S     S_3+6 0.186815 0.283211 0.752540 0.031702
O46   O     O_2   0.214047 0.225681 0.778236 -0.228842
O47   O     O_2   0.170254 0.258639 0.661768 -0.349117
O48   O     O_3   0.270751 0.385416 0.819376 -0.504140
H67   H     H_    0.263249 0.414926 0.785391 0.378623

loop_
_geom_bond_atom_site_label_1
_geom_bond_atom_site_label_2
_ccdc_geom_bond_type
C8    C9    A    
C97   O3    A    
C79   C80   A    
C93   C94   A    
C34   H2    S    
C5    C114  S    
C73   C74   A    
Cu2   O21   S    
C13   H45   S    
C35   C36   A    
C111  H35   S    
S2    O30   S    
Cu1   O20   S    
C38   Cl1   S    
C98   O5    A    
C60   Cl2   S    
S4    O35   D    
C114  C115  A    
C110  H36   S    
S3    O33   S    
Cu3   Cu4   S    
C1    O1    A    
O45   H66   S    
C21   H55   S    
C55   O23   A    
C108  H38   S    
Cu5   O16   S    
C26   C27   A    
C57   H16   S    
C76   C78   A    
C13   C29   A    
C28   C29   A    
C103  C113  S    
C24   C26   A    
C11   H47   S    
C109  C111  A    
C85   C86   A    
C112  C117  A    
C73   H24   S    
C119  S6    S    
C15   C25   S    
C106  C107  A    
S8    O47   D    
O42   H65   S    
S4    O36   S    
C76   H27   S    
C52   S2    S    
C12   S8    S    
C108  C109  A    
C34   C35   A    
C41   C42   A    
Cu2   O19   S    
Cu3   O3    S    
C17   C101  S    
C118  C119  A    
C112  C113  A    
C29   C88   S    
C50   C51   A    
Cu1   O1    S    
C68   C69   A    
Cu6   O10   S    
S1    O25   D    
C54   H14   S    
C63   C69   A    
C77   C88   A    
C16   C17   A    
C65   C67   A    
C99   H29   S    
Cu4   O8    S    
C107  C108  A    
C105  H37   S    
C80   H30   S    
C70   C71   A    
C44   C87   S    
C50   C56   A    
C9    C10   A    
C35   H3    S    
C63   H20   S    
C61   C62   A    
C83   S3    S    
C2    H1    S    
Cu6   O13   S    
S8    O48   S    
C97   O4    A    
C105  C111  A    
C10   C11   A    
C59   C60   A    
C71   Cl3   S    
C53   H13   S    
C21   C22   A    
C98   O6    A    
S6    O41   D    
C27   H54   S    
C96   O2    A    
C100  O7    A    
S5    O38   D    
C19   C25   A    
C58   H17   S    
C41   H7    S    
Cu4   O4    S    
C14   C98   S    
C20   H53   S    
C54   C56   A    
C10   H50   S    
C83   C89   A    
C43   C49   A    
C50   H11   S    
C81   H31   S    
C74   C75   A    
C24   C97   S    
C78   H28   S    
C47   C48   A    
Cu2   O23   S    
C7    C8    A    
C84   C85   A    
Cu1   O18   S    
S3    O31   D    
C3    C120  A    
C76   C82   A    
C91   C92   A    
S7    O43   D    
C55   C68   S    
C78   C79   A    
C80   C81   A    
C6    H48   S    
Cu5   O11   S    
C57   C62   A    
S8    O46   D    
O27   H60   S    
C99   C110  A    
C33   O18   A    
S6    O42   S    
C81   C82   A    
C67   C68   A    
C13   C24   A    
C101  O9    A    
C60   C61   A    
S5    O39   S    
C104  O17   A    
C43   H8    S    
C23   H57   S    
C37   C38   A    
O48   H67   S    
C37   H5    S    
C32   S1    S    
C61   H18   S    
C83   C84   A    
C14   C15   A    
C64   C100  S    
C30   C31   A    
C94   S5    S    
C112  H40   S    
C31   H59   S    
C37   C42   A    
C44   O21   A    
C17   C18   A    
Cu1   Cu2   S    
C42   H4    S    
C103  O14   A    
S2    O28   D    
Cu3   O5    S    
C92   C93   A    
C86   H32   S    
C19   H52   S    
C92   S4    S    
C16   H51   S    
C109  H39   S    
C59   C69   S    
C66   H10   S    
C26   C36   S    
C48   C49   A    
C39   C49   S    
C12   C14   A    
C28   C33   S    
C72   H23   S    
S1    O26   D    
C106  Cl5   S    
S7    O44   D    
C1    C48   S    
C67   H21   S    
Cu5   Cu6   S    
C84   C104  S    
C74   H25   S    
C45   C46   A    
C70   H22   S    
S5    O37   D    
C90   H33   S    
C62   H15   S    
C90   C91   A    
C3    C4    A    
C77   H19   S    
C6    C11   A    
C52   C53   A    
C115  C116  A    
C113  C114  A    
Cu6   O15   S    
O30   H61   S    
C66   C77   A    
C46   C47   A    
C40   C41   A    
C96   O24   A    
C4    H46   S    
C47   H9    S    
C86   C87   A    
C30   H58   S    
C31   C32   A    
C1    O12   A    
S2    O29   D    
C72   C73   A    
C2    C66   A    
C102  O11   A    
Cu4   O2    S    
C119  C120  A    
S3    O32   D    
C3    H44   S    
C53   C54   A    
C6    C7    A    
S1    O27   S    
C55   O22   A    
C105  C106  A    
C7    S7    S    
C33   O19   A    
C65   C75   S    
C30   C36   A    
C5    C118  A    
C93   Cl4   S    
C104  O16   A    
C19   C20   A    
C87   C89   A    
C58   C59   A    
C101  O10   A    
C51   C52   A    
C43   C45   A    
C64   C65   A    
S6    O40   D    
C85   C95   S    
C91   H34   S    
C57   C58   A    
C38   C39   A    
Cu5   O9    S    
C116  C117  A    
Cu3   O24   S    
C118  H42   S    
C44   O20   A    
C102  O13   A    
C9    H49   S    
C103  O15   A    
Cu4   O6    S    
Cu2   O12   S    
C40   H6    S    
C94   C95   A    
C120  H43   S    
C8    C18   S    
C79   C89   S    
C88   C99   A    
C45   C102  S    
Cu6   O17   S    
S4    O34   D    
C63   C64   A    
C39   C40   A    
C51   H12   S    
C100  O8    A    
C4    C5    A    
C23   C25   A    
C71   C72   A    
C20   C21   A    
Cu5   O14   S    
C22   H56   S    
O33   H62   S    
S7    O45   S    
C12   C18   A    
O36   H63   S    
Cu1   O22   S    
C22   C23   A    
C96   C116  S    
C70   C75   A    
C46   C56   S    
Cu3   O7    S    
O39   H64   S    
C115  H41   S    
C107  C117  S    
C90   C95   A    
C82   H26   S    
C15   C16   A    
C32   C34   A    
C27   C28   A    
C2    C110  A    
