data_mof_unit_1666.cif
_audit_creation_date              2012-12-11T15:18:02-0500
_audit_creation_method            fapswitch 2.2
_symmetry_space_group_name_H-M    P1
_symmetry_Int_Tables_number       1
_space_group_crystal_system       triclinic
_cell_length_a                    15.743893
_cell_length_b                    15.720731
_cell_length_c                    34.471689
_cell_angle_alpha                 90.187945
_cell_angle_beta                  89.702682
_cell_angle_gamma                 119.739555
_cell_volume                      7408.08347398

loop_
_atom_site_label
_atom_site_type_symbol
_atom_type_description
_atom_site_fract_x
_atom_site_fract_y
_atom_site_fract_z
_atom_type_partial_charge
C1    C     C_R   0.578414 0.441493 0.554930 0.560273
C2    C     C_R   0.506010 0.003971 0.209769 0.372709
C3    C     C_R   0.498898 0.493115 0.209394 0.371186
C4    C     C_R   0.922768 0.468047 0.199117 0.368105
C5    C     C_R   0.008565 0.434276 0.853442 -0.112142
C6    C     C_R   0.566766 0.572574 0.853516 -0.112315
C7    C     C_R   0.426945 0.993291 0.853745 -0.112299
C8    C     C_R   0.439164 0.018010 0.351647 -0.112040
C9    C     C_R   0.582830 0.560501 0.350849 -0.116740
C10   C     C_R   0.838697 0.342049 0.335683 -0.110431
C11   C     C_R   0.041071 0.446487 0.891589 -0.125951
C12   C     C_R   0.558608 0.137104 0.554949 0.561365
C13   C     C_R   0.554283 0.593348 0.891680 -0.126262
C14   C     C_R   0.406501 0.960568 0.891912 -0.126055
C15   C     C_R   0.449299 0.045902 0.390414 -0.123974
C16   C     C_R   0.599777 0.550554 0.389679 -0.130883
C17   C     C_R   0.828186 0.332546 0.375828 -0.125862
C18   C     C_R   0.074953 0.614597 0.890473 -0.127728
C19   C     C_R   0.386853 0.459519 0.890705 -0.127887
C20   C     C_R   0.539547 0.924823 0.890237 -0.127695
C21   C     C_R   0.616622 0.078234 0.389442 -0.134946
C22   C     C_R   0.464527 0.383706 0.389254 -0.126568
C23   C     C_R   0.862822 0.421509 0.554960 0.572917
C24   C     C_R   0.827662 0.486101 0.379580 -0.127576
C25   C     C_R   0.042600 0.602451 0.852224 -0.111527
C26   C     C_R   0.399260 0.438854 0.852444 -0.111738
C27   C     C_R   0.559885 0.957365 0.851962 -0.111454
C28   C     C_R   0.606728 0.050905 0.350486 -0.116202
C29   C     C_R   0.447545 0.393659 0.350326 -0.110935
C30   C     C_R   0.839262 0.496214 0.339302 -0.110333
C31   C     C_R   0.013603 0.513575 0.832806 0.036361
C32   C     C_R   0.487800 0.498465 0.832934 0.036510
C33   C     C_R   0.500595 0.987299 0.832813 0.036415
C34   C     C_R   0.441389 0.578340 0.054830 0.557904
C35   C     C_R   0.519288 0.025021 0.330809 0.037754
C36   C     C_R   0.509438 0.480708 0.330356 0.036509
C37   C     C_R   0.845979 0.424716 0.316991 0.038274
C38   C     C_R   0.078924 0.538098 0.909745 0.022517
C39   C     C_R   0.462759 0.540172 0.909861 0.022394
C40   C     C_R   0.459530 0.921594 0.909781 0.022618
C41   C     C_R   0.539634 0.081047 0.409021 0.025113
C42   C     C_R   0.543717 0.460627 0.408666 0.023631
C43   C     C_R   0.824135 0.405083 0.398294 0.019224
C44   C     C_R   0.578387 0.442088 0.445436 0.543743
C45   C     C_R   0.137180 0.558777 0.055142 0.558241
C46   C     C_R   0.558075 0.135760 0.445523 0.545563
C47   C     C_R   0.809953 0.392008 0.440681 0.565374
C48   C     C_R   0.442363 0.577868 0.945622 0.553499
C49   C     C_R   0.135732 0.557834 0.945603 0.554623
C50   C     C_R   0.422123 0.864362 0.945613 0.554141
C51   C     C_R   0.916713 0.455250 0.591626 -0.040163
C52   C     C_R   0.544135 0.462224 0.591541 -0.040187
C53   C     C_R   0.538070 0.082766 0.591583 -0.040118
C54   C     C_R   0.456633 0.920636 0.090753 -0.040065
C55   C     C_R   0.463102 0.542572 0.090656 -0.039246
C56   C     C_R   0.421451 0.863253 0.054835 0.558483
C57   C     C_R   0.071781 0.533413 0.089156 -0.040935
C58   C     C_R   0.950999 0.398657 0.609972 -0.083983
C59   C     C_R   0.600364 0.552796 0.610019 -0.084887
C60   C     C_R   0.447738 0.049537 0.610279 -0.084627
C61   C     C_R   0.401221 0.957076 0.108835 -0.085164
C62   C     C_R   0.555268 0.596324 0.108004 -0.084989
C63   C     C_R   0.021803 0.436685 0.102838 -0.084534
C64   C     C_R   0.980275 0.416054 0.648601 0.392286
C65   C     C_R   0.582736 0.564789 0.648708 0.392108
C66   C     C_R   0.435787 0.020119 0.648923 0.392368
C67   C     C_R   0.987592 0.498143 0.711974 0.370924
C68   C     C_R   0.421303 0.991343 0.146864 0.392798
C69   C     C_R   0.569838 0.576138 0.145913 0.392258
C70   C     C_R   0.968672 0.413670 0.137448 0.391459
C71   C     C_R   0.975439 0.490700 0.669517 0.037186
C72   C     C_R   0.508264 0.485728 0.669499 0.037507
C73   C     C_R   0.514634 0.023734 0.669478 0.037416
C74   C     C_R   0.497316 0.989157 0.167434 0.039569
C75   C     C_R   0.491711 0.501703 0.167128 0.038672
C76   C     C_R   0.965283 0.487823 0.159439 0.036643
C77   C     C_R   0.950193 0.553194 0.649947 -0.161851
C78   C     C_R   0.501400 0.489916 0.711998 0.371045
C79   C     C_R   0.445794 0.398569 0.649752 -0.161695
C80   C     C_R   0.601676 0.047684 0.649534 -0.161942
C81   C     C_R   0.558724 0.961978 0.147893 -0.156985
C82   C     C_R   0.402479 0.441829 0.148321 -0.163534
C83   C     C_R   0.010938 0.583710 0.144471 -0.160725
C84   C     C_R   0.921007 0.535590 0.611301 -0.144641
C85   C     C_R   0.463608 0.386874 0.611054 -0.144482
C86   C     C_R   0.613339 0.077027 0.610884 -0.144917
C87   C     C_R   0.538511 0.927923 0.109844 -0.143228
C88   C     C_R   0.388261 0.462127 0.110376 -0.146321
C89   C     C_R   0.510167 0.011931 0.711946 0.370935
C90   C     C_R   0.063532 0.606239 0.109669 -0.147141
C91   C     C_R   0.998734 0.506385 0.790518 0.334258
C92   C     C_R   0.494580 0.491179 0.790592 0.334303
C93   C     C_R   0.508038 0.001850 0.790502 0.334247
C94   C     C_R   0.513723 0.013813 0.288337 0.333226
C95   C     C_R   0.503290 0.486036 0.287921 0.333300
C96   C     C_R   0.866286 0.438204 0.274856 0.335488
Cr1   Cr    Cr6+3 0.522350 0.263930 0.500020 1.024564
Cr2   Cr    Cr6+3 0.736070 0.258420 0.500020 1.024987
Cr3   Cr    Cr6+3 0.741580 0.477650 0.500020 1.029263
Cr4   Cr    Cr6+3 0.263930 0.522350 0.000020 1.031216
Cr5   Cr    Cr6+3 0.258420 0.736070 0.000020 1.032286
Cr6   Cr    Cr6+3 0.477650 0.741580 0.000020 1.031470
F1    F     F_    0.009169 0.357021 0.665751 -0.594128
F2    F     F_    0.641567 0.652241 0.666067 -0.594472
F3    F     F_    0.348493 0.992416 0.666454 -0.594138
F4    F     F_    0.363294 0.022070 0.163912 -0.594875
F5    F     F_    0.659029 0.632551 0.162203 -0.595070
F6    F     F_    0.923510 0.319248 0.149740 -0.597148
H1    H     H_    0.949934 0.337274 0.595146 0.162019
H2    H     H_    0.583178 0.901284 0.096365 0.157051
H3    H     H_    0.316678 0.418789 0.097481 0.156004
H4    H     H_    0.101007 0.681442 0.099668 0.155618
H5    H     H_    0.042128 0.385905 0.906011 0.135730
H6    H     H_    0.614460 0.655005 0.906058 0.135658
H7    H     H_    0.345269 0.960154 0.906569 0.135510
H8    H     H_    0.388258 0.045963 0.405036 0.137219
H9    H     H_    0.660768 0.611359 0.404079 0.135747
H10   H     H_    0.823667 0.268345 0.389316 0.127214
H11   H     H_    0.947002 0.612014 0.665088 0.171928
H12   H     H_    0.661768 0.612642 0.595282 0.161081
H13   H     H_    0.387027 0.336949 0.664803 0.172188
H14   H     H_    0.663162 0.049861 0.664390 0.171861
H15   H     H_    0.618555 0.960744 0.162735 0.172437
H16   H     H_    0.341397 0.383192 0.163661 0.168025
H17   H     H_    0.009420 0.642454 0.160371 0.171896
H18   H     H_    0.984739 0.364219 0.839519 0.147416
H19   H     H_    0.636598 0.618523 0.839508 0.147409
H20   H     H_    0.381213 0.017897 0.840031 0.147260
H21   H     H_    0.370060 0.996222 0.337530 0.147836
H22   H     H_    0.630587 0.629227 0.336455 0.146476
H23   H     H_    0.387994 0.051671 0.595737 0.161263
H24   H     H_    0.843155 0.285314 0.319436 0.147934
H25   H     H_    0.103089 0.685857 0.903945 0.133894
H26   H     H_    0.315736 0.416716 0.904240 0.133974
H27   H     H_    0.582120 0.895843 0.903499 0.134025
H28   H     H_    0.686599 0.103566 0.403370 0.122052
H29   H     H_    0.419911 0.313616 0.403276 0.134973
H30   H     H_    0.822033 0.541906 0.396042 0.138267
H31   H     H_    0.045942 0.664488 0.837250 0.147985
H32   H     H_    0.337547 0.380202 0.837510 0.147940
H33   H     H_    0.618128 0.953318 0.836753 0.148162
H34   H     H_    0.338870 0.954037 0.094355 0.160457
H35   H     H_    0.669268 0.055430 0.335342 0.141950
H36   H     H_    0.389524 0.331321 0.335415 0.147942
H37   H     H_    0.843630 0.560273 0.325709 0.147758
H38   H     H_    0.614750 0.657507 0.093021 0.160679
H39   H     H_    0.025816 0.378864 0.087222 0.160947
H40   H     H_    0.895627 0.580915 0.597714 0.157370
H41   H     H_    0.418435 0.316491 0.597326 0.157292
H42   H     H_    0.683570 0.101462 0.597006 0.156956
N1    N     N_R   0.985829 0.425634 0.771137 -0.215113
N2    N     N_R   0.429739 0.997041 0.230731 -0.112985
N3    N     N_R   0.570311 0.568207 0.229800 -0.111216
N4    N     N_R   0.893042 0.380074 0.216258 -0.104166
N5    N     N_R   0.999729 0.578753 0.731339 -0.218014
N6    N     N_R   0.421266 0.421654 0.731389 -0.217971
N7    N     N_R   0.578109 0.998902 0.731007 -0.217819
N8    N     N_R   0.586252 0.015458 0.228891 -0.214527
N9    N     N_R   0.429333 0.414377 0.229058 -0.220456
N10   N     N_R   0.921547 0.540279 0.220475 -0.216561
N11   N     N_R   0.005868 0.583063 0.769855 -0.213323
N12   N     N_R   0.574875 0.558798 0.771177 -0.215413
N13   N     N_R   0.417642 0.422705 0.769944 -0.213407
N14   N     N_R   0.576649 0.993272 0.769533 -0.213057
N15   N     N_R   0.590325 0.020982 0.267433 -0.215031
N16   N     N_R   0.431855 0.410606 0.267569 -0.214611
N17   N     N_R   0.893748 0.525641 0.257566 -0.208179
N18   N     N_R   0.440721 0.015644 0.771421 -0.215377
N19   N     N_R   0.433686 0.002338 0.269185 -0.216474
N20   N     N_R   0.572749 0.564566 0.268238 -0.217237
N21   N     N_R   0.865407 0.365437 0.253279 -0.210652
N22   N     N_R   0.979908 0.421440 0.732690 -0.111891
N23   N     N_R   0.578392 0.557840 0.732691 -0.112369
N24   N     N_R   0.442083 0.021064 0.732963 -0.112030
O1    O     O_R   0.498680 0.159540 0.541860 -0.515275
O2    O     O_R   0.358060 0.532760 0.040030 -0.500615
O3    O     O_R   0.174700 0.641940 0.040030 -0.499087
O4    O     O_R   0.467240 0.825300 0.040030 -0.499821
O5    O     O_R   0.498590 0.161190 0.456930 -0.518536
O6    O     O_R   0.838810 0.337400 0.456930 -0.508334
O7    O     O_R   0.662600 0.501410 0.456930 -0.533029
O8    O     O_R   0.161190 0.498590 0.956930 -0.519756
O9    O     O_R   0.337400 0.838810 0.956930 -0.520106
O10   O     O_R   0.501410 0.662600 0.956930 -0.519716
O11   O     O_R   0.532680 0.359580 0.461300 -0.504370
O12   O     O_R   0.840460 0.339140 0.541860 -0.511565
O13   O     O_R   0.640420 0.173100 0.461300 -0.523821
O14   O     O_R   0.826900 0.467320 0.461300 -0.494493
O15   O     O_R   0.359580 0.532680 0.961300 -0.503304
O16   O     O_R   0.173100 0.640420 0.961300 -0.503058
O17   O     O_R   0.467320 0.826900 0.961300 -0.502683
O18   O     O_3   0.666667 0.333333 0.499990 -0.273802
O19   O     O_3   0.333333 0.666667 0.999990 -0.246491
O20   O     O_R   0.660860 0.501320 0.541860 -0.516403
O21   O     O_R   0.159540 0.498680 0.041860 -0.517996
O22   O     O_R   0.339140 0.840460 0.041860 -0.518764
O23   O     O_R   0.501320 0.660860 0.041860 -0.518324
O24   O     O_R   0.532760 0.358060 0.540030 -0.497015
O25   O     O_R   0.641940 0.174700 0.540030 -0.499260
O26   O     O_R   0.825300 0.467240 0.540030 -0.493398

loop_
_geom_bond_atom_site_label_1
_geom_bond_atom_site_label_2
_ccdc_geom_bond_type
C25   C31   A    
C64   F1    S    
C4    N4    A    
Cr6   O19   S    
C26   C32   A    
C59   H12   S    
Cr1   O1    S    
C22   C29   A    
C16   C42   A    
C58   H1    S    
C6    C32   A    
C50   O9    A    
C34   O23   A    
C90   H4    S    
Cr1   O18   S    
C69   F5    S    
C38   C49   S    
C56   O4    A    
C9    H22   S    
N5    N11   A    
C19   H26   S    
Cr1   O11   S    
C79   H13   S    
C29   C36   A    
C45   C57   S    
C47   O6    A    
C68   F4    S    
Cr2   O25   S    
C81   H15   S    
C10   C37   A    
C52   C85   A    
C25   H31   S    
C9    C16   A    
C6    H19   S    
C5    C11   A    
C72   C79   A    
C26   H32   S    
C86   H42   S    
C94   N19   A    
C54   C87   A    
C20   C40   A    
C82   C88   A    
C64   C71   A    
Cr4   O15   S    
C10   C17   A    
C68   C74   A    
C14   H7    S    
C55   C62   A    
C3    N3    A    
C60   H23   S    
C18   H25   S    
C67   N5    A    
N10   N17   A    
C63   H39   S    
C55   C88   A    
C19   C26   A    
C80   C86   A    
C56   O22   A    
C88   H3    S    
C12   O25   A    
C7    C14   A    
C1    O24   A    
C93   N18   A    
C96   N21   A    
N3    N20   A    
Cr4   O2    S    
C9    C36   A    
C72   C78   S    
C41   C46   S    
C36   C95   S    
C53   C86   A    
C46   O13   A    
Cr4   O8    S    
C21   H28   S    
C13   H6    S    
C2    C74   S    
Cr5   O22   S    
C45   O3    A    
C44   O11   A    
Cr3   O26   S    
C60   C66   A    
C34   C55   S    
C3    N9    A    
Cr1   O5    S    
C7    C33   A    
C18   C25   A    
C42   C44   S    
C89   N24   A    
C83   H17   S    
Cr1   O24   S    
C94   N15   A    
C82   H16   S    
Cr3   O14   S    
C95   N20   A    
C53   C60   A    
Cr5   O19   S    
C57   C63   A    
C85   H41   S    
C84   H40   S    
C58   C64   A    
C54   C56   S    
C4    C76   S    
C57   C90   A    
Cr5   O3    S    
N6    N13   A    
Cr2   O18   S    
Cr5   O16   S    
Cr6   O23   S    
N12   N23   A    
C80   H14   S    
C49   O16   A    
C7    H20   S    
C77   C84   A    
C24   H30   S    
Cr4   O19   S    
C66   C73   A    
C23   O26   A    
C27   C33   A    
N1    N22   A    
C37   C96   S    
C8    C35   A    
C5    H18   S    
C11   C38   A    
N18   N24   A    
C17   C43   A    
Cr2   O13   S    
C52   C59   A    
C78   N23   A    
C23   C51   S    
C22   H29   S    
C63   C70   A    
C2    N8    A    
C2    N2    A    
Cr6   O17   S    
C96   N17   A    
C28   H35   S    
C50   O17   A    
N7    N14   A    
C15   C41   A    
C48   O15   A    
C81   C87   A    
C19   C39   A    
C17   H10   S    
C12   O1    A    
C21   C41   A    
C62   C69   A    
C92   N13   A    
C54   C61   A    
C21   C28   A    
C8    C15   A    
C31   C91   S    
C70   C76   A    
Cr6   O4    S    
C87   H2    S    
C24   C30   A    
C51   C58   A    
C74   C81   A    
Cr2   O6    S    
C95   N16   A    
C76   C83   A    
C79   C85   A    
C3    C75   S    
C30   H37   S    
C48   O10   A    
Cr4   O21   S    
C92   N12   A    
C28   C35   A    
C83   C90   A    
C45   O21   A    
C12   C53   S    
C77   H11   S    
C33   C93   S    
C4    N10   A    
C23   O12   A    
C75   C82   A    
C89   N7    A    
C20   C27   A    
C67   N22   A    
C65   C72   A    
C93   N14   A    
N9    N16   A    
Cr6   O10   S    
C35   C94   S    
C1    O20   A    
C18   C38   A    
C73   C89   S    
Cr2   O12   S    
C70   F6    S    
C16   H9    S    
C46   O5    A    
C6    C13   A    
C91   N1    A    
N2    N19   A    
C29   H36   S    
C61   C68   A    
C78   N6    A    
Cr3   O18   S    
C71   C77   A    
C40   C50   S    
C44   O7    A    
C27   H33   S    
C73   C80   A    
N4    N21   A    
C69   C75   A    
C67   C71   S    
C20   H27   S    
C11   H5    S    
C1    C52   S    
C10   H24   S    
C13   C39   A    
C34   O2    A    
C32   C92   S    
C14   C40   A    
C49   O8    A    
C61   H34   S    
Cr3   O20   S    
Cr5   O9    S    
C30   C37   A    
C62   H38   S    
C22   C42   A    
C8    H21   S    
C24   C43   A    
C15   H8    S    
C91   N11   A    
Cr3   O7    S    
C66   F3    S    
C65   F2    S    
C47   O14   A    
C43   C47   S    
C51   C84   A    
C59   C65   A    
N8    N15   A    
C39   C48   S    
C5    C31   A    
