data_mof_unit_2207.cif
_audit_creation_date              2012-12-11T16:25:36-0500
_audit_creation_method            fapswitch 2.2
_symmetry_space_group_name_H-M    P1
_symmetry_Int_Tables_number       1
_space_group_crystal_system       triclinic
_cell_length_a                    20.530247
_cell_length_b                    7.274218
_cell_length_c                    13.062699
_cell_angle_alpha                 89.913311
_cell_angle_beta                  103.508759
_cell_angle_gamma                 90.191225
_cell_volume                      1896.82137512

loop_
_atom_site_label
_atom_site_type_symbol
_atom_type_description
_atom_site_fract_x
_atom_site_fract_y
_atom_site_fract_z
_atom_type_partial_charge
O1    O     O_R   0.449520 0.506760 0.599710 -0.520418
O2    O     O_R   0.550480 0.006760 0.400290 -0.522515
O3    O     O_R   0.587930 0.180200 0.595790 -0.543878
O4    O     O_R   0.412070 0.680200 0.404210 -0.540135
C1    C     C_R   0.613047 0.344531 0.621569 0.865048
C2    C     C_R   0.386663 0.844038 0.379041 0.865985
O5    O     O_R   0.452350 0.177380 0.611700 -0.538071
O6    O     O_R   0.547650 0.677380 0.388300 -0.535953
O7    O     O_R   0.413930 0.001760 0.416320 -0.529948
O8    O     O_R   0.586070 0.501760 0.583680 -0.525613
C3    C     C_R   0.436120 0.345846 0.638726 0.738171
C4    C     C_R   0.564229 0.846164 0.361801 0.739944
O9    O     O_3   0.487550 0.337460 0.435880 -0.381590
O10   O     O_3   0.512450 0.837460 0.564120 -0.382506
V1    V     V_3+5 0.502310 0.064670 0.511900 1.500259
V2    V     V_3+5 0.497690 0.564670 0.488100 1.505654
C5    C     C_R   0.615357 0.975167 0.112541 -0.180376
C6    C     C_R   0.387335 0.463286 0.891836 -0.181029
H1    H     H_    0.524226 0.986185 0.164772 0.165750
H2    H     H_    0.478334 0.472570 0.839115 0.167916
H3    H     H_    0.698767 0.014763 0.986904 0.116124
H4    H     H_    0.304294 0.497459 0.019117 0.114737
H5    H     H_    0.592099 0.033102 0.036309 0.125790
H6    H     H_    0.411478 0.514372 0.969379 0.124528
C7    C     C_R   0.603819 0.860966 0.281502 -0.069404
C8    C     C_R   0.397012 0.359664 0.719784 -0.066849
C9    C     C_R   0.925852 0.782159 0.316548 0.212760
C10   C     C_R   0.075262 0.302578 0.681845 0.208457
C11   C     C_R   0.891489 0.779891 0.398757 0.256491
C12   C     C_R   0.109494 0.316476 0.599977 0.246525
C13   C     C_R   0.822473 0.821411 0.376920 0.256906
C14   C     C_R   0.178886 0.351840 0.623725 0.260673
C15   C     C_R   0.786677 0.854455 0.271332 -0.032497
C16   C     C_R   0.214695 0.366873 0.730529 -0.031342
C17   C     C_R   0.824317 0.884032 0.193266 -0.088312
C18   C     C_R   0.177323 0.386883 0.809606 -0.085361
C19   C     C_R   0.714962 0.869801 0.241390 0.154559
C20   C     C_R   0.286371 0.374405 0.760877 0.150443
C21   C     C_R   0.684258 0.937972 0.139685 0.149464
C22   C     C_R   0.317966 0.432016 0.864301 0.150386
C23   C     C_R   0.722353 0.969088 0.065805 -0.153436
C24   C     C_R   0.280186 0.458500 0.939162 -0.153563
C25   C     C_R   0.790962 0.939918 0.091401 -0.131006
C26   C     C_R   0.211221 0.432028 0.913086 -0.129756
C27   C     C_R   0.672038 0.816267 0.307333 -0.158287
C28   C     C_R   0.328170 0.322617 0.693177 -0.152811
C29   C     C_R   0.576202 0.944815 0.184806 -0.152891
C30   C     C_R   0.425901 0.435433 0.818411 -0.155577
C31   C     C_R   0.894409 0.852915 0.217600 -0.181918
C32   C     C_R   0.106975 0.357928 0.783938 -0.178947
H7    H     H_    0.689793 0.739996 0.379139 0.174647
H8    H     H_    0.308789 0.253304 0.619361 0.168386
H9    H     H_    0.817771 0.963746 0.030408 0.118171
H10   H     H_    0.184538 0.449990 0.974710 0.116206
C33   C     C_R   0.226932 0.902544 0.029047 -0.259195
C34   C     C_R   0.773338 0.406712 0.970506 -0.260388
C35   C     C_R   0.280263 0.918111 0.979490 0.356081
C36   C     C_R   0.720084 0.423486 0.020086 0.354276
C37   C     C_R   0.345211 0.894730 0.038587 -0.125271
C38   C     C_R   0.655087 0.397721 0.961439 -0.125746
C39   C     C_R   0.358125 0.857463 0.146265 0.210202
C40   C     C_R   0.642114 0.356957 0.854213 0.209247
C41   C     C_R   0.305132 0.857821 0.200591 -0.032407
C42   C     C_R   0.694909 0.358464 0.799578 -0.034603
C43   C     C_R   0.238104 0.873097 0.139108 0.002649
C44   C     C_R   0.761994 0.374733 0.860678 0.004282
C45   C     C_R   0.317062 0.847109 0.312893 -0.150192
C46   C     C_R   0.682647 0.349450 0.687253 -0.150385
C47   C     C_R   0.261984 0.844359 0.362686 0.026010
C48   C     C_R   0.737384 0.349788 0.636896 0.030522
C49   C     C_R   0.195222 0.856405 0.299393 -0.082267
C50   C     C_R   0.804367 0.354229 0.700089 -0.081835
C51   C     C_R   0.183200 0.862464 0.187517 -0.080656
C52   C     C_R   0.816736 0.361340 0.812129 -0.081132
C53   C     C_R   0.271446 0.830615 0.474695 0.310765
C54   C     C_R   0.727349 0.347193 0.524426 0.303967
C55   C     C_R   0.216294 0.839127 0.520422 -0.277040
C56   C     C_R   0.782419 0.350701 0.478578 -0.277196
C57   C     C_R   0.150687 0.859877 0.459136 0.545221
C58   C     C_R   0.848329 0.349872 0.539872 0.558857
C59   C     C_R   0.141296 0.867473 0.349533 -0.182387
C60   C     C_R   0.858217 0.355889 0.649644 -0.190884
H11   H     H_    0.176745 0.916978 0.980487 0.116834
H12   H     H_    0.823576 0.422003 0.018848 0.118012
H13   H     H_    0.386325 0.898351 0.999533 0.151030
H14   H     H_    0.614071 0.401145 0.000684 0.149438
H15   H     H_    0.226133 0.830175 0.605154 0.126585
H16   H     H_    0.772632 0.355247 0.393672 0.123911
H17   H     H_    0.090790 0.886452 0.303349 0.171721
H18   H     H_    0.909001 0.364680 0.695944 0.174734
O11   O     O_R   0.913760 0.203480 0.916370 -0.533514
O12   O     O_R   0.086240 0.703480 0.083630 -0.532381
O13   O     O_R   0.047590 0.535230 0.888250 -0.547069
O14   O     O_R   0.952410 0.035230 0.111750 -0.547874
C61   C     C_R   0.066247 0.368510 0.864027 0.779842
C62   C     C_R   0.934365 0.867652 0.136697 0.781295
O15   O     O_R   0.912020 0.532880 0.904260 -0.539180
O16   O     O_R   0.087980 0.032880 0.095740 -0.540854
O17   O     O_R   0.949590 0.708460 0.099750 -0.527432
O18   O     O_R   0.050410 0.208460 0.900250 -0.528399
C63   C     C_R   0.886625 0.365082 0.879823 0.680402
C64   C     C_R   0.113424 0.865459 0.119841 0.682012
O19   O     O_3   0.012370 0.375360 0.064120 -0.377020
O20   O     O_3   0.987630 0.875360 0.935880 -0.377609
V3    V     V_3+5 0.997700 0.648160 0.988110 1.449082
V4    V     V_3+5 0.002300 0.148160 0.011890 1.445852
O21   O     O_3   0.270370 0.949894 0.872790 -0.646791
H19   H     H_    0.221685 0.962611 0.841728 0.279493
O22   O     O_3   0.730129 0.457236 0.126569 -0.647317
H20   H     H_    0.778859 0.469918 0.157492 0.279660
O23   O     O_3   0.422828 0.813013 0.194412 -0.678114
H21   H     H_    0.421274 0.683291 0.217105 0.276462
O24   O     O_3   0.577716 0.306979 0.807044 -0.679516
H22   H     H_    0.580396 0.178596 0.783072 0.277548
O25   O     O_3   0.334583 0.807595 0.539709 -0.638153
H23   H     H_    0.332013 0.798282 0.614420 0.299198
O26   O     O_3   0.663731 0.342160 0.458966 -0.639196
H24   H     H_    0.666033 0.338131 0.384003 0.296096
O27   O     O_3   0.990210 0.716099 0.330459 -0.639119
H25   H     H_    0.996030 0.612662 0.381021 0.314329
O28   O     O_3   0.011031 0.233546 0.664388 -0.642446
H26   H     H_    0.002572 0.153961 0.601167 0.340352
O29   O     O_3   0.791101 0.850393 0.458490 -0.658080
H27   H     H_    0.822055 0.828801 0.527713 0.339186
O30   O     O_3   0.211000 0.391501 0.544124 -0.657012
H28   H     H_    0.179985 0.380075 0.474026 0.338305
O31   O     O_3   0.923959 0.741554 0.501555 -0.637872
H29   H     H_    0.972623 0.755478 0.509712 0.330962
O32   O     O_3   0.075896 0.299576 0.496074 -0.640504
H30   H     H_    0.030565 0.350006 0.489634 0.321917
O33   O     O_3   0.093825 0.877724 0.500123 -0.533895
C65   C     C_3   0.105875 0.846352 0.609878 -0.218313
H31   H     H_    0.139856 0.952234 0.654873 0.125220
H32   H     H_    0.125401 0.705830 0.630533 0.137018
H33   H     H_    0.058303 0.857814 0.635320 0.162969
O34   O     O_3   0.905038 0.351855 0.497935 -0.539959
C66   C     C_3   0.892184 0.297511 0.391037 -0.233883
H34   H     H_    0.867704 0.409977 0.338583 0.129129
H35   H     H_    0.861924 0.169990 0.376415 0.145291
H36   H     H_    0.939963 0.266916 0.369326 0.167124

loop_
_geom_bond_atom_site_label_1
_geom_bond_atom_site_label_2
_ccdc_geom_bond_type
C12   C14   A    
C41   C43   A    
C9    C11   A    
C36   O22   S    
O23   H21   S    
O1    C3    A    
O2    C4    A    
C2    O7    A    
O3    V1    S    
O29   H27   S    
C21   C23   A    
C58   O34   S    
O5    C3    A    
C66   H35   S    
C5    H5    S    
C6    H6    S    
C42   C46   A    
C54   C56   A    
O24   H22   S    
C56   C58   A    
C32   C61   S    
C35   C37   A    
C27   H7    S    
C36   C38   A    
O25   H23   S    
C44   C52   A    
C62   O17   A    
C28   H8    S    
C43   C51   A    
C38   C40   A    
C5    C21   A    
C47   C49   A    
C6    C22   A    
C40   C42   A    
O13   V3    S    
C10   C32   A    
C25   H9    S    
O14   V4    S    
C65   H31   S    
C17   C31   A    
O21   H19   S    
C13   C15   A    
C17   C25   A    
C7    C29   A    
O12   C64   A    
C59   H17   S    
C22   C24   A    
O13   C61   A    
C16   C20   A    
C23   C25   A    
O11   V4    S    
C34   C44   A    
C24   C26   A    
O11   C63   A    
C1    C46   S    
O20   V3    S    
C33   C43   A    
C34   H12   S    
C55   C57   A    
O17   V3    S    
C66   H36   S    
C41   C45   A    
C37   C39   A    
C9    C31   A    
C8    C30   A    
C40   O24   S    
C58   C60   A    
C49   C51   A    
C38   H14   S    
C10   O28   S    
O5    V1    S    
C3    C8    S    
O16   C64   A    
C15   C19   A    
C6    C30   A    
C45   C47   A    
C42   C44   A    
C14   O30   S    
O4    V2    S    
C37   H13   S    
O6    C4    A    
C57   O33   S    
C39   C41   A    
H1    C29   S    
O1    V2    S    
O14   C62   A    
O2    V1    S    
C53   C55   A    
O28   H26   S    
H2    C30   S    
C52   C63   S    
H3    C23   S    
C50   C52   A    
C51   C64   S    
C35   O21   S    
C33   C35   A    
C48   C54   A    
O30   H28   S    
C18   C26   A    
O4    C2    A    
C53   O25   S    
C33   H11   S    
O33   C65   S    
C39   O23   S    
C7    C27   A    
C18   C32   A    
C57   C59   A    
O32   H30   S    
C56   H16   S    
C2    C45   S    
C61   O18   A    
C5    C29   A    
O34   C66   S    
O3    C1    A    
O16   V4    S    
O27   H25   S    
C9    O27   S    
C12   O32   S    
C66   H34   S    
O18   V4    S    
C54   O26   S    
C60   H18   S    
C4    C7    S    
C11   O31   S    
O7    V1    S    
O15   V3    S    
C1    O8    A    
C11   C13   A    
O8    V2    S    
O26   H24   S    
C20   C22   A    
H4    C24   S    
C65   H33   S    
C65   H32   S    
C10   C12   A    
C15   C17   A    
C34   C36   A    
C47   C53   A    
O19   V4    S    
C16   C18   A    
C31   C62   S    
C50   C60   A    
C20   C28   A    
C8    C28   A    
C13   O29   S    
C26   H10   S    
O12   V3    S    
C19   C21   A    
C55   H15   S    
O6    V2    S    
O9    V2    S    
C46   C48   A    
O10   V1    S    
C48   C50   A    
O22   H20   S    
C19   C27   A    
O15   C63   A    
O31   H29   S    
C14   C16   A    
C49   C59   A    
