data_mof_unit_3279.cif
_audit_creation_date              2013-03-05T15:42:51-0500
_audit_creation_method            fapswitch 2.2
_symmetry_space_group_name_H-M    P1
_symmetry_Int_Tables_number       1
_space_group_crystal_system       triclinic
_cell_length_a                    27.750054
_cell_length_b                    17.260982
_cell_length_c                    18.131146
_cell_angle_alpha                 90.230919
_cell_angle_beta                  137.913051
_cell_angle_gamma                 89.828024
_cell_volume                      5820.93570148

loop_
_atom_site_label
_atom_site_type_symbol
_atom_site_description
_atom_site_fract_x
_atom_site_fract_y
_atom_site_fract_z
_atom_type_partial_charge
C1    C     C_R   0.687308 0.898048 0.802728 -0.120863
C2    C     C_R   0.333688 0.077352 0.183862 -0.038186
C3    C     C_R   0.311614 0.896379 0.200879 -0.113385
C4    C     C_R   0.664785 0.076993 0.815573 -0.053931
C5    C     C_R   0.188296 0.396124 0.798711 -0.106821
C6    C     C_R   0.833249 0.576867 0.184005 -0.044685
C7    C     C_R   0.811741 0.396398 0.200777 -0.132532
C8    C     C_R   0.164634 0.576464 0.815595 -0.061058
H1    H     H_    0.739537 0.925178 0.857509 0.158455
H2    H     H_    0.287507 0.041865 0.118743 0.152216
H3    H     H_    0.259755 0.924288 0.146933 0.159102
H4    H     H_    0.710747 0.041686 0.881197 0.149418
H5    H     H_    0.240232 0.423839 0.852791 0.166101
H6    H     H_    0.785324 0.543301 0.118878 0.141035
H7    H     H_    0.759799 0.424072 0.146961 0.154501
H8    H     H_    0.210498 0.540799 0.880898 0.148841
N1    N     N_R   0.625380 0.928280 0.709340 -0.060081
N2    N     N_R   0.374620 0.071720 0.290660 -0.061541
N3    N     N_R   0.374620 0.928280 0.290660 -0.057843
N4    N     N_R   0.625380 0.071720 0.709340 -0.059086
N5    N     N_R   0.125380 0.428280 0.709340 -0.064518
N6    N     N_R   0.874620 0.571720 0.290660 -0.060124
N7    N     N_R   0.874620 0.428280 0.290660 -0.060528
N8    N     N_R   0.125380 0.571720 0.709340 -0.058522
C9    C     C_R   0.323465 0.101968 0.400375 -0.002229
C10   C     C_R   0.637030 0.932685 0.503187 -0.037614
C11   C     C_R   0.676976 0.102698 0.602534 -0.030169
C12   C     C_R   0.346021 0.916782 0.467369 -0.014747
C13   C     C_R   0.825309 0.601997 0.408408 -0.013791
C14   C     C_R   0.153620 0.416787 0.531918 0.006377
C15   C     C_R   0.176440 0.602067 0.599429 -0.003053
C16   C     C_R   0.843061 0.415002 0.460978 -0.013942
H9    H     H_    0.274188 0.069493 0.343721 0.165162
H10   H     H_    0.675945 0.973404 0.527324 0.168992
H11   H     H_    0.726550 0.070792 0.661435 0.173693
H12   H     H_    0.299019 0.949748 0.429157 0.168425
H13   H     H_    0.773757 0.575840 0.339427 0.158534
H14   H     H_    0.200545 0.449709 0.569989 0.166293
H15   H     H_    0.225781 0.569712 0.655708 0.165929
H16   H     H_    0.794797 0.447109 0.418212 0.173942
N9    N     N_R   0.386100 0.070250 0.452470 -0.065258
N10   N     N_R   0.613900 0.929750 0.547530 -0.062400
N11   N     N_R   0.613900 0.070250 0.547530 -0.068702
N12   N     N_R   0.386100 0.929750 0.452470 -0.073481
N13   N     N_R   0.886100 0.570250 0.452470 -0.070568
N14   N     N_R   0.113900 0.429750 0.547530 -0.071173
N15   N     N_R   0.113900 0.570250 0.547530 -0.067029
N16   N     N_R   0.886100 0.429750 0.452470 -0.072394
C17   C     C_R   0.433140 0.825949 0.562211 -0.046435
C18   C     C_R   0.596916 0.197348 0.519214 -0.038814
C19   C     C_R   0.555494 0.837953 0.417419 -0.016709
C20   C     C_R   0.402875 0.197208 0.481234 -0.043856
C21   C     C_R   0.930492 0.324224 0.557945 -0.054148
C22   C     C_R   0.096763 0.697173 0.518120 -0.042270
C23   C     C_R   0.066433 0.325946 0.436890 -0.048233
C24   C     C_R   0.908669 0.694563 0.503682 -0.031366
N17   N     N_R   0.437800 0.869550 0.507970 -0.071071
N18   N     N_R   0.562200 0.130450 0.492030 -0.065982
N19   N     N_R   0.562200 0.869550 0.492030 -0.064192
N20   N     N_R   0.437800 0.130450 0.507970 -0.068594
N21   N     N_R   0.937800 0.369550 0.507970 -0.065908
N22   N     N_R   0.062200 0.630450 0.492030 -0.067504
N23   N     N_R   0.062200 0.369550 0.492030 -0.065952
N24   N     N_R   0.937800 0.630450 0.507970 -0.073386
C25   C     C_R   0.581824 0.171179 0.723692 -0.015785
C26   C     C_R   0.395187 0.804801 0.291666 -0.030544
C27   C     C_R   0.417097 0.171013 0.275407 -0.016803
C28   C     C_R   0.602987 0.806611 0.712643 -0.058030
C29   C     C_R   0.082262 0.671126 0.724239 -0.023132
C30   C     C_R   0.895699 0.305011 0.291106 -0.072939
C31   C     C_R   0.916800 0.670493 0.274795 -0.013579
C32   C     C_R   0.104223 0.304925 0.708053 -0.083528
N25   N     N_R   0.573690 0.128980 0.653840 -0.070503
N26   N     N_R   0.426310 0.871020 0.346160 -0.065721
N27   N     N_R   0.426310 0.128980 0.346160 -0.071332
N28   N     N_R   0.573690 0.871020 0.653840 -0.068145
N29   N     N_R   0.073690 0.628980 0.653840 -0.069071
N30   N     N_R   0.926310 0.371020 0.346160 -0.066980
N31   N     N_R   0.926310 0.628980 0.346160 -0.062482
N32   N     N_R   0.073690 0.371020 0.653840 -0.067592
C33   C     C_R   0.673310 0.822861 0.806363 0.178326
C34   C     C_R   0.359374 0.139651 0.172762 0.123426
C35   C     C_R   0.323901 0.819283 0.200837 0.175011
C36   C     C_R   0.638637 0.139420 0.826204 0.122261
C37   C     C_R   0.175724 0.319093 0.798408 0.188877
C38   C     C_R   0.859203 0.638191 0.172799 0.133761
C39   C     C_R   0.824314 0.319500 0.200483 0.175878
C40   C     C_R   0.138511 0.638814 0.826513 0.122275
C41   C     C_R   0.330023 0.181750 0.406189 0.068511
C42   C     C_R   0.597537 0.879739 0.415979 0.090059
C43   C     C_R   0.669907 0.182293 0.595693 0.069086
C44   C     C_R   0.375761 0.852967 0.538354 0.148531
C45   C     C_R   0.836914 0.679727 0.438196 0.143740
C46   C     C_R   0.123635 0.353020 0.460414 0.143507
C47   C     C_R   0.169629 0.681915 0.593117 0.066500
C48   C     C_R   0.871098 0.350514 0.530032 0.140915
Ni1   Ni    Ni4+2 0.616560 0.000000 0.627280 0.275695
Ni2   Ni    Ni4+2 0.383440 0.000000 0.372720 0.273556
Ni3   Ni    Ni4+2 0.116560 0.500000 0.627280 0.276868
Ni4   Ni    Ni4+2 0.883440 0.500000 0.372720 0.263444
Ni5   Ni    Ni4+2 0.497990 0.870580 0.500000 0.268110
Ni6   Ni    Ni4+2 0.502010 0.129420 0.500000 0.271433
Ni7   Ni    Ni4+2 0.997990 0.370580 0.500000 0.267881
Ni8   Ni    Ni4+2 0.002010 0.629420 0.500000 0.282837
C49   C     C_3   0.666069 0.263239 0.943257 0.266644
C50   C     C_3   0.286644 0.683476 0.097958 0.263003
C51   C     C_3   0.332942 0.262409 0.056499 0.255277
C52   C     C_3   0.702859 0.701009 0.921221 0.262976
C53   C     C_3   0.165504 0.762430 0.943828 0.255451
C54   C     C_3   0.786882 0.183994 0.097631 0.256796
C55   C     C_3   0.835399 0.750891 0.047842 0.266467
C56   C     C_3   0.212273 0.183545 0.900216 0.242487
C57   C     C_3   0.198442 0.738377 0.055114 0.285358
C58   C     C_3   0.755173 0.208699 0.988291 0.275436
C59   C     C_3   0.783448 0.721840 0.929301 0.296032
C60   C     C_3   0.242856 0.208726 0.008868 0.274619
C61   C     C_3   0.698630 0.239188 0.054274 0.286523
C62   C     C_3   0.254419 0.708197 0.988269 0.273375
C63   C     C_3   0.301688 0.237826 0.946480 0.295200
C64   C     C_3   0.753968 0.730614 0.038065 0.307935
C65   C     C_3   0.272314 0.765173 0.111741 -0.222454
C66   C     C_3   0.680478 0.181326 0.928832 -0.211364
C67   C     C_3   0.723562 0.770255 0.896620 -0.220487
C68   C     C_3   0.317872 0.180932 0.070078 -0.198880
C69   C     C_3   0.772666 0.265685 0.111328 -0.215300
C70   C     C_3   0.179961 0.680585 0.929303 -0.214879
C71   C     C_3   0.227177 0.265042 0.887335 -0.208649
C72   C     C_3   0.814479 0.681678 0.072422 -0.220452
C73   C     C_3   0.739923 0.290816 0.999401 -0.318213
C74   C     C_3   0.212421 0.654799 0.041204 -0.285076
C75   C     C_3   0.258739 0.290547 0.998591 -0.323326
C76   C     C_3   0.762376 0.650747 0.953151 -0.309654
C77   C     C_3   0.239154 0.790261 0.999474 -0.290113
C78   C     C_3   0.712507 0.155550 0.040433 -0.279574
C79   C     C_3   0.775776 0.800713 0.015844 -0.330293
C80   C     C_3   0.287116 0.154567 0.959426 -0.282465
C81   C     C_R   0.597688 0.867787 0.334633 -0.136680
C82   C     C_R   0.269002 0.236896 0.330994 -0.113163
C83   C     C_R   0.354712 0.818128 0.585331 -0.216965
C84   C     C_R   0.730264 0.238075 0.670760 -0.094197
C85   C     C_R   0.144747 0.318055 0.413385 -0.217957
C86   C     C_R   0.779478 0.737764 0.387643 -0.195504
C87   C     C_R   0.847055 0.315781 0.572789 -0.208238
C88   C     C_R   0.230360 0.737559 0.667292 -0.107346
C89   C     C_R   0.236662 0.364746 0.339039 0.259092
C90   C     C_R   0.594883 0.750614 0.259912 0.257376
C91   C     C_R   0.753571 0.364541 0.645322 0.253827
C92   C     C_R   0.358001 0.705105 0.668824 0.290914
C93   C     C_R   0.739190 0.872763 0.348655 0.295496
C94   C     C_R   0.142081 0.204550 0.330481 0.286667
C95   C     C_R   0.262482 0.865287 0.659356 0.262822
C96   C     C_R   0.853620 0.205137 0.662621 0.287022
C97   C     C_R   0.280714 0.317562 0.343639 0.186329
C98   C     C_R   0.557571 0.805528 0.260466 0.162691
C99   C     C_R   0.715928 0.318042 0.653837 0.173408
C100  C     C_R   0.366022 0.737627 0.608153 0.192825
C101  C     C_R   0.786897 0.816594 0.374156 0.225034
C102  C     C_R   0.134393 0.237383 0.391707 0.181976
C103  C     C_R   0.218276 0.818259 0.654165 0.186978
C104  C     C_R   0.860612 0.236065 0.599919 0.179054
C105  C     C_R   0.202081 0.211569 0.280056 0.305113
C106  C     C_R   0.652224 0.898591 0.351316 0.349011
C107  C     C_R   0.796511 0.214307 0.717866 0.301128
C108  C     C_R   0.327604 0.864031 0.613033 0.364335
C109  C     C_R   0.715778 0.714201 0.351874 0.338612
C110  C     C_R   0.171196 0.363895 0.384924 0.362933
C111  C     C_R   0.297392 0.712303 0.718263 0.306720
C112  C     C_R   0.815956 0.361540 0.594123 0.353305
C113  C     C_R   0.175838 0.248132 0.313254 -0.221405
C114  C     C_R   0.684347 0.848864 0.334890 -0.215154
C115  C     C_R   0.818437 0.249119 0.677421 -0.223601
C116  C     C_R   0.305625 0.827689 0.653888 -0.189625
C117  C     C_R   0.664230 0.770108 0.312582 -0.200403
C118  C     C_R   0.193536 0.327307 0.344432 -0.188668
C119  C     C_R   0.323613 0.748699 0.685219 -0.225910
C120  C     C_R   0.796360 0.326560 0.639111 -0.187247
N33   N     N_R   0.739430 0.950741 0.321029 0.277007
O1    O     O_R   0.797590 0.992533 0.388168 -0.190233
O2    O     O_R   0.679487 0.982323 0.231461 -0.283861
N34   N     N_R   0.127312 0.123546 0.303722 0.282938
O3    O     O_R   0.178854 0.075598 0.346132 -0.325632
O4    O     O_R   0.061321 0.098616 0.230446 -0.186045
N35   N     N_R   0.268159 0.947165 0.679243 0.277511
O5    O     O_R   0.211694 0.991574 0.614858 -0.197107
O6    O     O_R   0.330981 0.977770 0.762837 -0.272425
N36   N     N_R   0.872497 0.125508 0.696329 0.284336
O7    O     O_R   0.823823 0.075629 0.660587 -0.321291
O8    O     O_R   0.939707 0.104626 0.771727 -0.185507
N37   N     N_R   0.231458 0.446647 0.320409 0.277314
O9    O     O_R   0.288050 0.490833 0.386727 -0.194295
O10   O     O_R   0.168955 0.477545 0.236400 -0.274552
N38   N     N_R   0.561726 0.678767 0.201886 0.294524
O11   O     O_R   0.536775 0.632571 0.224002 -0.197339
O12   O     O_R   0.556285 0.659476 0.126480 -0.224200
N39   N     N_R   0.752260 0.447352 0.650675 0.280459
O13   O     O_R   0.694164 0.486408 0.570263 -0.195343
O14   O     O_R   0.810872 0.484284 0.734569 -0.262281
N40   N     N_R   0.373235 0.624248 0.695960 0.282303
O15   O     O_R   0.321918 0.575997 0.653378 -0.323678
O16   O     O_R   0.439383 0.599777 0.769664 -0.188970
H17   H     H_    0.469366 0.779315 0.616519 0.159113
H18   H     H_    0.573047 0.253119 0.503494 0.161072
H19   H     H_    0.519065 0.791408 0.362834 0.151885
H20   H     H_    0.426445 0.252928 0.496490 0.167309
H21   H     H_    0.966182 0.277002 0.611757 0.157292
H22   H     H_    0.072808 0.752858 0.502042 0.167307
H23   H     H_    0.029997 0.279284 0.382238 0.155589
H24   H     H_    0.934952 0.750100 0.532455 0.169465
H25   H     H_    0.550966 0.222375 0.701306 0.165356
H26   H     H_    0.420563 0.748954 0.325611 0.153735
H27   H     H_    0.448535 0.221433 0.297553 0.164397
H28   H     H_    0.577760 0.750235 0.682903 0.153936
H29   H     H_    0.052645 0.723085 0.703078 0.160045
H30   H     H_    0.921293 0.249227 0.324639 0.167708
H31   H     H_    0.946695 0.722114 0.294870 0.154989
H32   H     H_    0.078080 0.249387 0.674450 0.168799
N41   N     N_R   0.171235 0.756059 0.097723 0.265649
O17   O     O_R   0.205282 0.730452 0.193983 -0.277134
O18   O     O_R   0.115628 0.800778 0.043315 -0.247635
N42   N     N_R   0.790121 0.192108 0.957885 0.269728
O19   O     O_R   0.802112 0.247982 0.925220 -0.311726
O20   O     O_R   0.822313 0.125925 0.985229 -0.278087
N43   N     N_R   0.796408 0.719044 0.864828 0.266666
O21   O     O_R   0.746694 0.692879 0.764424 -0.301793
O22   O     O_R   0.856341 0.744841 0.905467 -0.248105
N44   N     N_R   0.206994 0.192780 0.037754 0.269590
O23   O     O_R   0.195972 0.248695 0.072163 -0.314014
O24   O     O_R   0.173721 0.127182 0.008418 -0.266920
N45   N     N_R   0.671233 0.257078 0.096551 0.265628
O25   O     O_R   0.704947 0.231331 0.192581 -0.274267
O26   O     O_R   0.615849 0.302165 0.042157 -0.251510
N46   N     N_R   0.287582 0.691766 0.955004 0.278096
O27   O     O_R   0.288874 0.744790 0.905777 -0.288645
O28   O     O_R   0.324845 0.628654 0.988695 -0.252733
N47   N     N_R   0.333884 0.254207 0.911545 0.282009
O29   O     O_R   0.298885 0.294227 0.822922 -0.322807
O30   O     O_R   0.396254 0.225041 0.965630 -0.232006
N48   N     N_R   0.733575 0.736155 0.092463 0.278066
O31   O     O_R   0.718223 0.803611 0.103075 -0.297721
O32   O     O_R   0.715746 0.674099 0.108278 -0.348133
N49   N     N_R   0.599516 0.307117 0.860634 0.260676
O33   O     O_R   0.599460 0.373891 0.827618 -0.273703
O34   O     O_R   0.539963 0.279960 0.820198 -0.297430
N50   N     N_R   0.352681 0.638512 0.180373 0.262405
O35   O     O_R   0.352700 0.574995 0.218716 -0.266971
O36   O     O_R   0.410141 0.658032 0.209292 -0.292767
N51   N     N_R   0.399212 0.306773 0.139079 0.253647
O37   O     O_R   0.398920 0.373380 0.172515 -0.268208
O38   O     O_R   0.458534 0.281000 0.177384 -0.296358
N52   N     N_R   0.630250 0.674225 0.854990 0.259913
O39   O     O_R   0.610322 0.604854 0.813018 -0.264205
O40   O     O_R   0.586356 0.718074 0.842406 -0.330258
N53   N     N_R   0.098794 0.806098 0.861404 0.261659
O41   O     O_R   0.098451 0.873073 0.828432 -0.261317
O42   O     O_R   0.039316 0.778362 0.820694 -0.300302
N54   N     N_R   0.852911 0.139080 0.180137 0.262262
O43   O     O_R   0.853187 0.076148 0.219630 -0.269597
O44   O     O_R   0.909879 0.157712 0.207267 -0.297711
N55   N     N_R   0.908868 0.776296 0.117717 0.263242
O45   O     O_R   0.928255 0.846634 0.156249 -0.277617
O46   O     O_R   0.955917 0.727991 0.144508 -0.287295
N56   N     N_R   0.146447 0.138436 0.816685 0.264136
O47   O     O_R   0.146876 0.075482 0.777538 -0.258323
O48   O     O_R   0.089018 0.156688 0.788599 -0.294089
H33   H     H_    0.751114 0.345461 0.982046 0.225877
H34   H     H_    0.200756 0.600011 0.057477 0.228352
H35   H     H_    0.247414 0.345472 0.015705 0.227907
H36   H     H_    0.757737 0.589792 0.928720 0.223189
H37   H     H_    0.250220 0.844866 0.981862 0.234811
H38   H     H_    0.700644 0.100808 0.056477 0.231891
H39   H     H_    0.780968 0.861550 0.041197 0.229880
H40   H     H_    0.299253 0.099496 0.943945 0.231984
N57   N     N_R   0.679013 0.975253 0.394792 0.246294
O49   O     O_R   0.634459 0.032310 0.355019 -0.321159
O50   O     O_R   0.747632 0.986960 0.480447 -0.292274
N58   N     N_R   0.158257 0.158720 0.187992 0.282291
O51   O     O_R   0.088543 0.161833 0.114348 -0.227559
O52   O     O_R   0.185737 0.119017 0.165197 -0.315525
N59   N     N_R   0.316604 0.945278 0.590281 0.241387
O53   O     O_R   0.371354 0.991585 0.645431 -0.328215
O54   O     O_R   0.251767 0.972117 0.509124 -0.285192
N60   N     N_R   0.844478 0.165732 0.814031 0.285387
O55   O     O_R   0.913676 0.175106 0.886744 -0.235628
O56   O     O_R   0.820351 0.121878 0.839039 -0.301483
N61   N     N_R   0.180822 0.445440 0.406073 0.241792
O57   O     O_R   0.125269 0.490633 0.350307 -0.327552
O58   O     O_R   0.245128 0.473499 0.487509 -0.285458
N62   N     N_R   0.712634 0.640076 0.383806 0.237441
O59   O     O_R   0.676679 0.582906 0.314044 -0.285897
O60   O     O_R   0.741769 0.631774 0.481589 -0.252505
N63   N     N_R   0.798519 0.440874 0.560932 0.241601
O61   O     O_R   0.848947 0.493107 0.617243 -0.314458
O62   O     O_R   0.732860 0.459790 0.469528 -0.268901
N64   N     N_R   0.341674 0.660203 0.810806 0.285490
O63   O     O_R   0.411346 0.664273 0.884613 -0.227909
O64   O     O_R   0.314561 0.619954 0.833526 -0.307750
N65   N     N_R   0.480555 0.802583 0.183691 0.260280
O65   O     O_R   0.447603 0.860753 0.177293 -0.377659
O66   O     O_R   0.441610 0.751585 0.104854 -0.223814
N66   N     N_R   0.331718 0.350319 0.351077 0.257696
O67   O     O_R   0.337186 0.322109 0.290846 -0.342397
O68   O     O_R   0.380960 0.397792 0.430659 -0.255578
N67   N     N_R   0.375569 0.686893 0.556499 0.252325
O69   O     O_R   0.429494 0.639003 0.614584 -0.239792
O70   O     O_R   0.329997 0.688881 0.450316 -0.277951
N68   N     N_R   0.667825 0.350676 0.653173 0.254864
O71   O     O_R   0.662900 0.319326 0.712556 -0.350317
O72   O     O_R   0.621843 0.404012 0.582789 -0.261529
N69   N     N_R   0.126332 0.187077 0.445224 0.254481
O73   O     O_R   0.074057 0.137161 0.389084 -0.233541
O74   O     O_R   0.172014 0.191043 0.551376 -0.284903
N70   N     N_R   0.840745 0.839405 0.382890 0.251768
O75   O     O_R   0.845598 0.803848 0.325228 -0.352576
O76   O     O_R   0.891698 0.886882 0.460288 -0.258295
N71   N     N_R   0.871596 0.184422 0.550773 0.254903
O77   O     O_R   0.924824 0.135567 0.610354 -0.230873
O78   O     O_R   0.827824 0.186387 0.445097 -0.270360
N72   N     N_R   0.166157 0.851346 0.644317 0.258935
O79   O     O_R   0.159763 0.824283 0.703618 -0.333175
O80   O     O_R   0.116816 0.897728 0.563266 -0.255887

loop_
_geom_bond_atom_site_label_1
_geom_bond_atom_site_label_2
_geom_bond_distance
_ccdc_geom_bond_type
C52   C64   1.515499 S    
N43   O21   1.300266 A    
N67   O70   1.301350 A    
C84   C107  1.394705 A    
C85   C110  1.414209 A    
C28   C33   1.360858 A    
C109  N62   1.435796 S    
C83   C108  1.414194 A    
C106  N57   1.432745 S    
C75   H35   1.111043 S    
N52   O40   1.300768 A    
N50   O35   1.300366 A    
C14   H14   1.078034 S    
N11   N18   1.416799 A    
N4    Ni1   1.803494 S    
N63   O61   1.301173 A    
C98   N65   1.446490 S    
C54   N54   1.458994 S    
N1    N28   1.380241 A    
C113  C118  1.419218 A    
C27   H27   1.077773 S    
C4    H4    1.078237 S    
C91   C99   1.415850 A    
C5    H5    1.081793 S    
C116  C119  1.418491 A    
C7    H7    1.081664 S    
C47   C88   1.485469 S    
C8    H8    1.079444 S    
C50   C62   1.517196 S    
C20   C41   1.388203 A    
C51   C68   1.540306 S    
C49   N49   1.457024 S    
N34   O4    1.301054 A    
C18   H18   1.079269 S    
C24   C45   1.389872 A    
N16   Ni4   1.849807 S    
N48   O32   1.300221 A    
C110  C118  1.411245 A    
C59   C67   1.531442 S    
N32   Ni7   1.869792 S    
C53   C77   1.538568 S    
C30   H30   1.077456 S    
N10   Ni1   1.842442 S    
C9    N9    1.332165 A    
C91   C120  1.430239 A    
C11   H11   1.075118 S    
C12   N12   1.344618 A    
C13   N13   1.334903 A    
N35   O5    1.300232 A    
N45   O25   1.300121 A    
N67   O69   1.300846 A    
C4    C36   1.387796 A    
N12   N17   1.416801 A    
C79   H39   1.110634 S    
N68   O71   1.301668 A    
N60   O55   1.301625 A    
C80   H40   1.109985 S    
C103  N72   1.436109 S    
C29   C40   1.375905 A    
N26   Ni5   1.871333 S    
C63   N47   1.456817 S    
C3    C35   1.372880 A    
N66   O67   1.301509 A    
C50   C74   1.549974 S    
N11   Ni1   1.849806 S    
C110  N61   1.430206 S    
C58   N42   1.455029 S    
N55   O46   1.300453 A    
C49   C73   1.538987 S    
C10   C42   1.399550 A    
C63   C80   1.559192 S    
C64   C79   1.537141 S    
C14   C46   1.406225 A    
N4    N25   1.379883 A    
N59   O54   1.299208 A    
C71   C75   1.550126 S    
C3    H3    1.081735 S    
N39   O13   1.300733 A    
C4    N4    1.336796 A    
C69   C73   1.549180 S    
N8    N29   1.379883 A    
C5    N5    1.335795 A    
N61   O58   1.299126 A    
C41   C82   1.485391 S    
C60   N44   1.454927 S    
N40   O16   1.301031 A    
N36   O7    1.299586 A    
C44   C83   1.474098 S    
C45   C86   1.487794 S    
C95   C103  1.416545 A    
N2    N27   1.380243 A    
C29   N29   1.325887 A    
N15   N22   1.416799 A    
C31   N31   1.325472 A    
C32   C37   1.362186 A    
C87   C104  1.415790 A    
C33   C67   1.436790 S    
N63   O62   1.300722 A    
C19   C42   1.390141 A    
N53   O41   1.300388 A    
N5    Ni3   1.810705 S    
C26   N26   1.326213 A    
C17   N17   1.321219 A    
N70   O75   1.300464 A    
N49   O33   1.300370 A    
N37   O10   1.301014 A    
C66   C78   1.554933 S    
C56   C71   1.534274 S    
N72   O80   1.300647 A    
C20   N20   1.342597 A    
C104  N71   1.441057 S    
C21   N21   1.324258 A    
N33   O2    1.301393 A    
N54   O44   1.300812 A    
C24   N24   1.336499 A    
C11   C43   1.380243 A    
C26   H26   1.077650 S    
C54   C58   1.517109 S    
C5    C37   1.374609 A    
N7    Ni4   1.803493 S    
N65   O66   1.299523 A    
C56   C80   1.550776 S    
N20   Ni6   1.891583 S    
C30   C39   1.362242 A    
N42   O19   1.300244 A    
N22   Ni8   1.780299 S    
C59   C76   1.555213 S    
N69   O74   1.301568 A    
C17   H17   1.077210 S    
C57   C74   1.560194 S    
C88   C111  1.396792 A    
C55   N55   1.456393 S    
C96   N36   1.436786 S    
C25   C36   1.376372 A    
N41   O17   1.300139 A    
C43   C84   1.483372 S    
C67   C79   1.547636 S    
C8    C40   1.389080 A    
N38   O12   1.301188 A    
C6    H6    1.080245 S    
C31   C38   1.376712 A    
N59   O53   1.301171 A    
C3    N3    1.335735 A    
C22   C47   1.387683 A    
C54   C78   1.549648 S    
C27   N27   1.325517 A    
C13   H13   1.076254 S    
C28   H28   1.080445 S    
C56   C60   1.517833 S    
C10   N10   1.351825 A    
C111  C119  1.391374 A    
C112  C120  1.410634 A    
N46   O28   1.300070 A    
C14   N14   1.343969 A    
N9    N20   1.417168 A    
C50   N50   1.459407 S    
N10   N19   1.417167 A    
N43   O22   1.300060 A    
C95   N35   1.437059 S    
N56   O47   1.300372 A    
C62   C70   1.537017 S    
C28   N28   1.323355 A    
N17   Ni5   1.780300 S    
C115  C120  1.419707 A    
N13   N24   1.417168 A    
C1    N1    1.332450 A    
C6    C38   1.379837 A    
N14   N23   1.417167 A    
C32   N32   1.323915 A    
C93   C101  1.412008 A    
C31   H31   1.080863 S    
C61   N45   1.456900 S    
C8    N8    1.337618 A    
N50   O36   1.300680 A    
C49   C66   1.541490 S    
C52   C76   1.546561 S    
N6    Ni4   1.810701 S    
C108  C116  1.410974 A    
C18   C43   1.387083 A    
C57   C65   1.532424 S    
N58   O51   1.301623 A    
N44   O23   1.300332 A    
C55   C72   1.534730 S    
C61   C69   1.532199 S    
C9    H9    1.074412 S    
N39   O14   1.300717 A    
C63   C71   1.533976 S    
N14   Ni3   1.842442 S    
C101  N70   1.436934 S    
C59   N43   1.456585 S    
N21   Ni7   1.780300 S    
N6    N31   1.380243 A    
N64   O63   1.301388 A    
C52   C67   1.531802 S    
C30   N30   1.324490 A    
C70   C74   1.555068 S    
C1    C33   1.371587 A    
C6    N6    1.330798 A    
N24   Ni8   1.891583 S    
C34   C68   1.457258 S    
C26   C35   1.361176 A    
C7    C39   1.372422 A    
C19   H19   1.077214 S    
C22   H22   1.077747 S    
N68   O72   1.299925 A    
N47   O29   1.300370 A    
C108  N59   1.430133 S    
N18   Ni6   1.780299 S    
C107  C115  1.391762 A    
C111  N64   1.441989 S    
N71   O77   1.300549 A    
C15   N15   1.332910 A    
C21   C48   1.392062 A    
C16   N16   1.338155 A    
C49   C61   1.531465 S    
C23   C46   1.384898 A    
C61   C78   1.559700 S    
C51   C63   1.529335 S    
N66   O68   1.300540 A    
N51   O38   1.300493 A    
C68   C80   1.553724 S    
N19   Ni5   1.891582 S    
C1    H1    1.081707 S    
N23   Ni7   1.891582 S    
C22   N22   1.341252 A    
N52   O39   1.300291 A    
C38   C72   1.438358 S    
C20   H20   1.078161 S    
C18   N18   1.342285 A    
N61   O57   1.301142 A    
C106  C114  1.416861 A    
C107  N60   1.440557 S    
C29   H29   1.075794 S    
C88   C103  1.410983 A    
C82   C97   1.409408 A    
N25   Ni6   1.871331 S    
C32   H32   1.076996 S    
C58   C73   1.532774 S    
C2    C34   1.387152 A    
C78   H38   1.109967 S    
C17   C44   1.383767 A    
N36   O8    1.301104 A    
C73   H33   1.110992 S    
N34   O3    1.299084 A    
C94   N34   1.435686 S    
N48   O31   1.300420 A    
C94   C102  1.394540 A    
C89   N37   1.436563 S    
N60   O56   1.297386 A    
N3    N26   1.379886 A    
N13   Ni4   1.842441 S    
C64   C72   1.537648 S    
C9    C41   1.382944 A    
N45   O26   1.299883 A    
N62   O59   1.300711 A    
C48   C87   1.476289 S    
C13   C45   1.390728 A    
C55   C79   1.544161 S    
C15   C47   1.384204 A    
N5    N32   1.380241 A    
C53   N53   1.457025 S    
N46   O27   1.299948 A    
N70   O76   1.301060 A    
C81   C98   1.405721 A    
C82   C105  1.395963 A    
N7    N30   1.379886 A    
N37   O9    1.300306 A    
C84   C99   1.405922 A    
C74   H34   1.109945 S    
C11   N11   1.335110 A    
C85   C102  1.416474 A    
C12   H12   1.078162 S    
C112  N63   1.428972 S    
N33   O1    1.300334 A    
C52   N52   1.457876 S    
N29   Ni8   1.871331 S    
C92   C100  1.394238 A    
C36   C66   1.456445 S    
C114  C117  1.410049 A    
C96   C104  1.395709 A    
C2    N2    1.336212 A    
N8    Ni3   1.803494 S    
N65   O65   1.302207 A    
N42   O20   1.299976 A    
N15   Ni3   1.849806 S    
N69   O73   1.300607 A    
C51   N51   1.456870 S    
N62   O60   1.300479 A    
N35   O6    1.301049 A    
C81   C106  1.410176 A    
C7    N7    1.334628 A    
C94   C113  1.407611 A    
C109  C117  1.403450 A    
C90   C117  1.414929 A    
C25   N25   1.324684 A    
C40   C70   1.458976 S    
C24   H24   1.076332 S    
N57   O50   1.299662 A    
C10   H10   1.073463 S    
C60   C68   1.537687 S    
C62   N46   1.453282 S    
C90   C98   1.407161 A    
N27   Ni6   1.869793 S    
C21   H21   1.079135 S    
C100  N67   1.440289 S    
C91   N39   1.434488 S    
N40   O15   1.299137 A    
C25   H25   1.077684 S    
C53   C57   1.531743 S    
C89   C97   1.417005 A    
N47   O30   1.300106 A    
C90   N38   1.432137 S    
N12   Ni2   1.849807 S    
C72   C76   1.551307 S    
C57   N41   1.456849 S    
N3    Ni2   1.803493 S    
N71   O78   1.301400 A    
C92   C119  1.407190 A    
C93   C114  1.409898 A    
C51   C75   1.538674 S    
N53   O42   1.300724 A    
C96   C115  1.408656 A    
N56   O48   1.300807 A    
C95   C116  1.426641 A    
C23   N23   1.321919 A    
N49   O34   1.300722 A    
N72   O79   1.301330 A    
C105  N58   1.441798 S    
C76   H36   1.110044 S    
C53   C70   1.541608 S    
C77   H37   1.111011 S    
C99   N68   1.439074 S    
N54   O43   1.300339 A    
C93   N33   1.439808 S    
N57   O49   1.301411 A    
C12   C44   1.407249 A    
C35   C65   1.447300 S    
C62   C77   1.532660 S    
C97   N66   1.435976 S    
C16   C48   1.404326 A    
N58   O52   1.297847 A    
N44   O24   1.300006 A    
N31   Ni8   1.869793 S    
C37   C71   1.447730 S    
C19   N19   1.335341 A    
N55   O45   1.300304 A    
C2    H2    1.079161 S    
C39   C69   1.444713 S    
C42   C81   1.491508 S    
N28   Ni5   1.869792 S    
C89   C118  1.427652 A    
N30   Ni7   1.871333 S    
C46   C85   1.473022 S    
N51   O37   1.300398 A    
N41   O18   1.299895 A    
N2    Ni2   1.810701 S    
N38   O11   1.301536 A    
C105  C113  1.391326 A    
C23   H23   1.079034 S    
C86   C109  1.418217 A    
N64   O64   1.297658 A    
C92   N40   1.435937 S    
N16   N21   1.416801 A    
C60   C75   1.533411 S    
N1    Ni1   1.810705 S    
C83   C100  1.417663 A    
C50   C65   1.533129 S    
C102  N69   1.440729 S    
C15   H15   1.074305 S    
C16   H16   1.076920 S    
C87   C112  1.416753 A    
C54   C69   1.531272 S    
C58   C66   1.538493 S    
C27   C34   1.376523 A    
C64   N48   1.459293 S    
N9    Ni2   1.842441 S    
C55   C59   1.531620 S    
C86   C101  1.425731 A    
C65   C77   1.549916 S    
C56   N56   1.459295 S    
