data_mof_unit_3052.cif
_audit_creation_date              2012-12-11T15:24:44-0500
_audit_creation_method            fapswitch 2.2
_symmetry_space_group_name_H-M    P1
_symmetry_Int_Tables_number       1
_space_group_crystal_system       triclinic
_cell_length_a                    22.98964
_cell_length_b                    6.947789
_cell_length_c                    20.738238
_cell_angle_alpha                 89.904359
_cell_angle_beta                  93.076991
_cell_angle_gamma                 89.833419
_cell_volume                      3307.66496653

loop_
_atom_site_label
_atom_site_type_symbol
_atom_type_description
_atom_site_fract_x
_atom_site_fract_y
_atom_site_fract_z
_atom_type_partial_charge
O1    O     O_R   0.188030 0.379840 0.189340 -0.540007
O2    O     O_R   0.811970 0.620160 0.810660 -0.540008
O3    O     O_R   0.311970 0.879840 0.310660 -0.536361
O4    O     O_R   0.688030 0.120160 0.689340 -0.536361
O5    O     O_R   0.307090 0.708420 0.185790 -0.538549
O6    O     O_R   0.692910 0.291580 0.814210 -0.538549
O7    O     O_R   0.192910 0.208420 0.314210 -0.537244
O8    O     O_R   0.807090 0.791580 0.685790 -0.537244
C1    C     C_R   0.326727 0.540651 0.170617 0.726198
C2    C     C_R   0.673273 0.459349 0.829383 0.726197
C3    C     C_R   0.173272 0.040805 0.329383 0.724959
C4    C     C_R   0.826728 0.959195 0.670617 0.724959
O9    O     O_R   0.188180 0.709480 0.181650 -0.538347
O10   O     O_R   0.811820 0.290520 0.818350 -0.538347
O11   O     O_R   0.311820 0.209480 0.318350 -0.541367
O12   O     O_R   0.688180 0.790520 0.681650 -0.541367
O13   O     O_R   0.192210 0.880960 0.306500 -0.535581
O14   O     O_R   0.807790 0.119040 0.693500 -0.535581
O15   O     O_R   0.307790 0.380960 0.193500 -0.534710
O16   O     O_R   0.692210 0.619040 0.806500 -0.534710
C5    C     C_R   0.168863 0.540713 0.164120 0.711182
C6    C     C_R   0.831137 0.459287 0.835879 0.711183
C7    C     C_R   0.331072 0.039916 0.335871 0.709139
C8    C     C_R   0.668928 0.960084 0.664129 0.709139
O17   O     O_3   0.251460 0.546730 0.290970 -0.367828
O18   O     O_3   0.748540 0.453270 0.709030 -0.367828
O19   O     O_3   0.248540 0.046730 0.209030 -0.367227
O20   O     O_3   0.751460 0.953270 0.790970 -0.367227
V1    V     V_3+5 0.249730 0.821120 0.242400 1.416417
V2    V     V_3+5 0.750270 0.178880 0.757600 1.416418
V3    V     V_3+5 0.250270 0.321120 0.257600 1.423060
V4    V     V_3+5 0.749730 0.678880 0.742400 1.423061
C9    C     C_R   0.577110 0.836004 0.612264 -0.225751
C10   C     C_R   0.422890 0.163996 0.387735 -0.225749
C11   C     C_R   0.920359 0.614519 0.883027 -0.233282
C12   C     C_R   0.079641 0.385481 0.116974 -0.233282
C13   C     C_R   0.621630 0.972269 0.612339 -0.074279
C14   C     C_R   0.378370 0.027731 0.387661 -0.074279
C15   C     C_R   0.878885 0.468960 0.887271 -0.083418
C16   C     C_R   0.121115 0.531040 0.112729 -0.083418
C17   C     C_R   0.620176 0.118083 0.564034 0.096288
C18   C     C_R   0.379825 0.881916 0.435965 0.096288
C19   C     C_R   0.883352 0.337551 0.939995 0.095914
C20   C     C_R   0.116648 0.662449 0.060005 0.095915
C21   C     C_R   0.569127 0.140257 0.521390 0.039943
C22   C     C_R   0.430874 0.859742 0.478610 0.039943
C23   C     C_R   0.934665 0.338187 0.982782 0.043465
C24   C     C_R   0.065335 0.661814 0.017218 0.043465
C25   C     C_R   0.524796 0.996433 0.522133 0.031180
C26   C     C_R   0.475204 0.003567 0.477867 0.031181
C27   C     C_R   0.975431 0.491704 0.977777 0.042084
C28   C     C_R   0.024568 0.508296 0.022223 0.042084
C29   C     C_R   0.529986 0.844146 0.566959 0.106838
C30   C     C_R   0.470014 0.155853 0.433040 0.106840
C31   C     C_R   0.967075 0.630061 0.928500 0.109477
C32   C     C_R   0.032925 0.369940 0.071500 0.109477
C33   C     C_R   0.560029 0.298185 0.477702 -0.046456
C34   C     C_R   0.439972 0.701813 0.522297 -0.046457
C35   C     C_R   0.947294 0.193934 0.030700 -0.045588
C36   C     C_R   0.052706 0.806067 0.969301 -0.045588
C37   C     C_R   0.511783 0.301111 0.433843 -0.217821
C38   C     C_R   0.488218 0.698887 0.566156 -0.217821
C39   C     C_R   0.994900 0.214526 0.074822 -0.216015
C40   C     C_R   0.005099 0.785475 0.925179 -0.216015
H1    H     H_    0.579247 0.721738 0.648058 0.122130
H2    H     H_    0.420753 0.278261 0.351942 0.122130
H3    H     H_    0.915987 0.718256 0.843884 0.126179
H4    H     H_    0.084013 0.281745 0.156116 0.126178
H5    H     H_    0.506001 0.421433 0.400572 0.127169
H6    H     H_    0.494000 0.578565 0.599427 0.127169
H7    H     H_    0.003349 0.104498 0.111432 0.125337
H8    H     H_    0.996650 0.895502 0.888568 0.125338
C41   C     C_3   0.046499 0.087243 0.528793 -0.134973
C42   C     C_3   0.953501 0.912756 0.471207 -0.134973
C43   C     C_3   0.452658 0.581425 0.970480 -0.134978
C44   C     C_3   0.547342 0.418575 0.029520 -0.134978
C45   C     C_3   0.018614 0.898406 0.552270 -0.138125
C46   C     C_3   0.981386 0.101594 0.447730 -0.138125
C47   C     C_3   0.482247 0.393127 0.948822 -0.138317
C48   C     C_3   0.517753 0.606873 0.051178 -0.138317
H9    H     H_    0.033742 0.814390 0.595589 0.113371
H10   H     H_    0.966258 0.185610 0.404411 0.113371
H11   H     H_    0.467835 0.304747 0.906405 0.112884
H12   H     H_    0.532165 0.695253 0.093595 0.112884
H13   H     H_    0.085066 0.159322 0.552337 0.116076
H14   H     H_    0.914934 0.840678 0.447663 0.116076
H15   H     H_    0.413390 0.648689 0.946340 0.115077
H16   H     H_    0.586610 0.351311 0.053660 0.115077
H17   H     H_    0.027439 0.674680 0.466996 0.113461
H18   H     H_    0.972561 0.325320 0.533003 0.113461
H19   H     H_    0.475663 0.175263 0.036341 0.112999
H20   H     H_    0.524337 0.824737 0.963659 0.112999
C49   C     C_1   0.872210 0.968748 0.624771 -0.187484
C50   C     C_1   0.127790 0.031252 0.375229 -0.187484
C51   C     C_1   0.627788 0.469163 0.875215 -0.188552
C52   C     C_1   0.372212 0.530836 0.124785 -0.188552
C53   C     C_3   0.985058 0.178196 0.518016 -0.140579
C54   C     C_3   0.014942 0.821804 0.481983 -0.140579
C55   C     C_3   0.513238 0.677878 0.980153 -0.140393
C56   C     C_3   0.486762 0.322122 0.019847 -0.140393
C57   C     C_3   0.957792 0.989496 0.540884 0.166365
C58   C     C_3   0.042208 0.010504 0.459116 0.166365
C59   C     C_3   0.542207 0.489717 0.959105 0.166719
C60   C     C_3   0.457793 0.510283 0.040895 0.166719
C61   C     C_1   0.910628 0.977778 0.586831 -0.058683
C62   C     C_1   0.089372 0.022222 0.413169 -0.058683
C63   C     C_1   0.589368 0.478182 0.913154 -0.059465
C64   C     C_1   0.410632 0.521818 0.086846 -0.059465
C65   C     C_3   0.675530 0.229924 0.553810 -0.699858
H21   H     H_    0.683182 0.240562 0.501552 0.203119
H22   H     H_    0.673004 0.374712 0.576046 0.220075
H23   H     H_    0.715029 0.155988 0.574638 0.186877
C66   C     C_3   0.324470 0.770076 0.446190 -0.699858
H24   H     H_    0.316819 0.759433 0.498448 0.203118
H25   H     H_    0.284971 0.844015 0.425362 0.186876
H26   H     H_    0.326995 0.625289 0.423953 0.220075
C67   C     C_3   0.830283 0.219497 0.954843 -0.705567
H27   H     H_    0.834390 0.071338 0.935617 0.220544
H28   H     H_    0.824278 0.217129 0.007568 0.203462
H29   H     H_    0.789259 0.284271 0.934120 0.187488
C68   C     C_3   0.169717 0.780503 0.045157 -0.705566
H30   H     H_    0.165610 0.928661 0.064383 0.220544
H31   H     H_    0.210741 0.715728 0.065880 0.187487
H32   H     H_    0.175722 0.782871 0.992432 0.203462
C69   C     C_1   0.595951 0.468632 0.478067 0.303759
N1    N     N_1   0.624342 0.605966 0.477814 -0.357651
C70   C     C_1   0.404050 0.531365 0.521931 0.303758
N2    N     N_1   0.375660 0.394029 0.522183 -0.357651
C71   C     C_1   0.916239 0.013884 0.034135 0.303410
N3    N     N_1   0.891759 0.869094 0.037359 -0.358191
C72   C     C_1   0.083761 0.986116 0.965866 0.303409
N4    N     N_1   0.108241 0.130906 0.962641 -0.358191

loop_
_geom_bond_atom_site_label_1
_geom_bond_atom_site_label_2
_ccdc_geom_bond_type
C34   C38   A    
C55   C59   S    
O1    C5    A    
O19   V1    S    
O13   V1    S    
C45   C57   S    
C56   C60   S    
C48   H12   S    
O15   V3    S    
C10   H2    S    
C9    H1    S    
C42   C54   S    
C16   C20   A    
O7    C3    A    
C21   C33   A    
C26   C30   A    
C48   C60   S    
O9    V1    S    
C14   C18   A    
C65   H22   S    
C33   C69   S    
O4    C8    A    
C46   C58   S    
C20   C68   S    
O1    V3    S    
C38   H6    S    
O17   V1    S    
O2    V4    S    
C18   C22   A    
O3    V1    S    
C12   C16   A    
C49   C61   T    
O3    C7    A    
C1    O15   A    
C35   C71   S    
C2    O16   A    
C68   H32   S    
O2    C6    A    
O14   V2    S    
C21   C25   A    
H19   C56   S    
C44   H16   S    
H18   C53   S    
C66   H26   S    
C44   C59   S    
O11   C7    A    
C52   C64   T    
C34   C70   S    
O12   C8    A    
C17   C65   S    
C22   C34   A    
C57   C61   S    
C47   C59   S    
O10   V2    S    
C36   C72   S    
C24   C36   A    
O5    V1    S    
C9    C29   A    
O7    V3    S    
O19   V3    S    
C27   C28   A    
O8    V4    S    
C47   C56   S    
O20   V4    S    
C67   H29   S    
O18   V4    S    
C15   C19   A    
C54   C58   S    
C11   C31   A    
C9    C13   A    
C11   C15   A    
O5    C1    A    
C12   C32   A    
C29   C38   A    
C46   H10   S    
C18   C66   S    
C45   H9    S    
O8    C4    A    
C31   C40   A    
C46   C53   S    
C43   C55   S    
C8    C13   S    
C32   C39   A    
O9    C5    A    
C45   C54   S    
C42   H14   S    
C33   C37   A    
C1    C52   S    
C41   H13   S    
C68   H30   S    
C51   C63   T    
C19   C67   S    
C42   C57   S    
C3    C50   S    
C43   H15   S    
C41   C58   S    
O6    V2    S    
C39   H7    S    
C41   C53   S    
C48   C55   S    
C69   N1    T    
C4    C49   S    
C65   H23   S    
O12   V4    S    
C70   N2    T    
C60   C64   S    
C66   H24   S    
O16   V4    S    
C37   H5    S    
C3    O13   A    
C17   C21   A    
C10   C14   A    
O17   V3    S    
C44   C48   S    
O6    C2    A    
C23   C27   A    
C12   H4    S    
O11   V3    S    
C30   C37   A    
C44   C56   S    
C7    C14   S    
C22   C26   A    
C35   C39   A    
H17   C54   S    
C36   C40   A    
O10   C6    A    
C67   H28   S    
C71   N3    T    
C67   H27   S    
C47   H11   S    
C10   C30   A    
C43   C60   S    
C5    C16   S    
C43   C47   S    
C2    C51   S    
C25   C29   A    
C6    C15   S    
O20   V2    S    
C58   C62   S    
C27   C31   A    
C40   H8    S    
C13   C17   A    
C72   N4    T    
O4    V2    S    
C68   H31   S    
C50   C62   T    
C11   H3    S    
C23   C35   A    
C28   C32   A    
C24   C28   A    
C25   C26   A    
C42   C46   S    
C4    O14   A    
C41   C45   S    
C59   C63   S    
C65   H21   S    
C19   C23   A    
C53   C57   S    
C20   C24   A    
H20   C55   S    
C66   H25   S    
O18   V2    S    
