data_mof_unit_2806.cif
_audit_creation_date              2012-12-10T20:43:24-0500
_audit_creation_method            fapswitch 2.2
_symmetry_space_group_name_H-M    P1
_symmetry_Int_Tables_number       1
_space_group_crystal_system       triclinic
_cell_length_a                    15.813341
_cell_length_b                    10.811973
_cell_length_c                    9.853279
_cell_angle_alpha                 89.744035
_cell_angle_beta                  89.612397
_cell_angle_gamma                 90.469092
_cell_volume                      1684.5365293

loop_
_atom_site_label
_atom_site_type_symbol
_atom_type_description
_atom_site_fract_x
_atom_site_fract_y
_atom_site_fract_z
_atom_type_partial_charge
C1    C     C_R   0.502100 0.260302 0.499818 0.912038
C2    C     C_R   0.512313 0.934715 0.374843 -0.342330
C3    C     C_R   0.501622 0.870438 0.497902 -0.150587
C4    C     C_R   0.339378 0.499585 0.500321 0.909616
C5    C     C_R   0.495406 0.937195 0.616613 0.011475
C6    C     C_3   0.482430 0.923230 0.766038 0.294625
C7    C     C_3   0.489202 0.067119 0.768630 0.357482
C8    C     C_R   0.441463 0.431895 0.072165 0.189054
C9    C     C_R   0.562201 0.559524 0.070765 0.233832
C10   C     C_R   0.562710 0.557017 0.926229 -0.237781
C11   C     C_R   0.441180 0.432622 0.929746 0.214887
C12   C     C_R   0.044390 0.533085 0.613555 -0.238337
C13   C     C_3   0.347518 0.446986 0.925090 -0.501041
C14   C     C_3   0.347733 0.445317 0.079271 -0.504080
C15   C     C_R   0.499667 0.739484 0.499660 0.930615
C16   C     C_R   0.660618 0.500651 0.499556 0.894514
C17   C     C_R   0.956792 0.539284 0.614965 0.208895
C18   C     C_R   0.912939 0.516020 0.493673 -0.038065
C19   C     C_R   0.955935 0.487604 0.372005 0.172151
C20   C     C_R   0.044223 0.481318 0.372370 0.193771
C21   C     C_R   0.087231 0.503323 0.494400 -0.010073
C22   C     C_3   0.647823 0.078095 0.791291 -0.868756
C23   C     C_1   0.823731 0.511324 0.496164 -0.060261
C24   C     C_3   0.640295 0.752092 0.100843 -0.851389
C25   C     C_3   0.916450 0.479831 0.844319 -0.774808
C26   C     C_3   0.894934 0.336109 0.221162 -0.772245
C27   C     C_3   0.104038 0.555196 0.160418 -0.762251
C28   C     C_3   0.609497 0.103508 0.197295 0.079446
C29   C     C_3   0.647968 0.225290 0.147985 -0.798833
C30   C     C_3   0.396790 0.801739 0.906616 0.123475
C31   C     C_3   0.305830 0.791268 0.957141 -0.844772
C32   C     C_3   0.396181 0.130056 0.957785 -0.727386
C33   C     C_1   0.176181 0.500952 0.498336 -0.040193
C34   C     C_1   0.251030 0.499949 0.500479 -0.192953
C35   C     C_1   0.748910 0.506010 0.498116 -0.200056
C36   C     C_R   0.497875 0.061197 0.616696 -0.098620
C37   C     C_R   0.505874 0.128822 0.497401 -0.212678
C38   C     C_R   0.516857 0.063769 0.373639 0.489223
H1    H     H_    0.079333 0.552630 0.705489 0.168646
H2    H     H_    0.696415 0.121432 0.856930 0.248005
H3    H     H_    0.660515 0.107686 0.684959 0.249253
H4    H     H_    0.654598 0.976574 0.800577 0.235705
H5    H     H_    0.681982 0.575603 0.147465 0.222442
H6    H     H_    0.678274 0.756970 0.005695 0.222300
H7    H     H_    0.675458 0.801165 0.181810 0.241560
H8    H     H_    0.579163 0.799578 0.085028 0.228937
H9    H     H_    0.855219 0.610804 0.726145 0.231912
H10   H     H_    0.884267 0.515830 0.936381 0.240645
H11   H     H_    0.982734 0.457965 0.871516 0.253133
H12   H     H_    0.612058 0.604358 0.869467 0.172264
H13   H     H_    0.883285 0.394159 0.811372 0.238766
H14   H     H_    0.858431 0.519415 0.235857 0.222366
H15   H     H_    0.864283 0.327192 0.120588 0.229625
H16   H     H_    0.852020 0.295811 0.299800 0.232989
H17   H     H_    0.955027 0.283641 0.218689 0.258321
H18   H     H_    0.141888 0.398313 0.264503 0.224953
H19   H     H_    0.146551 0.623818 0.209465 0.233419
H20   H     H_    0.043575 0.600171 0.132985 0.258298
H21   H     H_    0.134799 0.522334 0.065685 0.235054
H22   H     H_    0.603450 0.039822 0.109695 0.176419
H23   H     H_    0.327749 0.536645 0.881194 0.216145
H24   H     H_    0.654655 0.061795 0.270986 0.116937
H25   H     H_    0.658130 0.288064 0.235322 0.259396
H26   H     H_    0.709824 0.208211 0.097842 0.195313
H27   H     H_    0.605206 0.270738 0.074568 0.246911
H28   H     H_    0.436431 0.837409 0.991112 0.112071
H29   H     H_    0.419568 0.708933 0.878281 0.177676
H30   H     H_    0.265730 0.746782 0.878863 0.255983
H31   H     H_    0.303051 0.735337 0.051609 0.204391
H32   H     H_    0.280385 0.884456 0.979313 0.260237
H33   H     H_    0.358917 0.107733 0.756281 0.249717
H34   H     H_    0.315323 0.365702 0.879717 0.214094
H35   H     H_    0.333934 0.172333 0.979147 0.215437
H36   H     H_    0.446034 0.183723 0.010181 0.265054
H37   H     H_    0.395037 0.035885 0.000902 0.255278
H38   H     H_    0.328074 0.534086 0.125384 0.216539
H39   H     H_    0.316281 0.362075 0.123626 0.206767
H40   H     H_    0.517236 0.886102 0.279534 0.182819
H41   H     H_    0.534634 0.870709 0.814486 0.047989
H42   H     H_    0.562176 0.212646 0.845361 0.258007
N1    N     N_R   0.499440 0.499140 0.142800 -0.128361
N2    N     N_R   0.499440 0.499180 0.857150 -0.135483
N3    N     N_2   0.564489 0.117860 0.834882 -0.310154
N4    N     N_2   0.626463 0.624630 0.141414 -0.239920
N5    N     N_2   0.914135 0.572150 0.737647 -0.302764
N6    N     N_2   0.911174 0.465296 0.249133 -0.289980
N7    N     N_2   0.088721 0.451363 0.250554 -0.290698
N8    N     N_2   0.411933 0.128478 0.812607 -0.293288
O1    O     O_R   0.500010 0.316790 0.614690 -0.618918
O2    O     O_3   0.399183 0.879375 0.791347 -0.599542
O3    O     O_R   0.500000 0.316760 0.385350 -0.561526
O4    O     O_R   0.378030 0.499990 0.614640 -0.611949
O5    O     O_R   0.378020 0.499950 0.385300 -0.622887
O6    O     O_R   0.500000 0.683240 0.614650 -0.623080
O7    O     O_R   0.499990 0.683210 0.385310 -0.607266
O8    O     O_R   0.621980 0.500050 0.614700 -0.622393
O9    O     O_R   0.621970 0.500010 0.385360 -0.618070
O10   O     O_3   0.527869 0.125858 0.251419 -0.602313
Zn1   Zn    Zn3+2 0.500010 0.500020 0.653130 0.940249
Zn2   Zn    Zn3+2 0.499990 0.499980 0.346870 0.968965

loop_
_geom_bond_atom_site_label_1
_geom_bond_atom_site_label_2
_ccdc_geom_bond_type
C7    N3    S    
C29   H25   S    
C7    C36   S    
C19   C20   A    
C30   O2    S    
C19   N6    S    
C26   H17   S    
C32   H37   S    
C22   H4    S    
O1    Zn1   S    
C17   N5    S    
C24   H7    S    
H9    N5    S    
C36   C37   A    
C16   C35   S    
C15   O7    A    
C30   C31   S    
C16   O9    A    
C5    C36   A    
C22   H3    S    
C21   C33   S    
C32   N8    S    
O8    Zn1   S    
C18   C19   A    
N2    Zn1   S    
C14   H39   S    
C31   H32   S    
C12   C17   A    
C8    C14   S    
O3    Zn2   S    
C9    C10   A    
C30   H29   S    
C1    C37   S    
C29   H26   S    
C1    O3    A    
C13   C14   S    
H5    N4    S    
C15   O6    A    
H42   N3    S    
C26   H16   S    
C17   C18   A    
C38   O10   S    
C28   H22   S    
C11   N2    A    
C31   H30   S    
C4    C34   S    
C16   O8    A    
C18   C23   S    
C27   H19   S    
C32   H35   S    
O7    Zn2   S    
H18   N7    S    
C6    O2    S    
C12   C21   A    
C10   N2    A    
C8    N1    A    
C14   H38   S    
C25   H13   S    
C37   C38   A    
C2    H40   S    
C2    C38   A    
C7    N8    S    
C25   H10   S    
C26   N6    S    
C22   H2    S    
C25   N5    S    
C33   C34   T    
C27   N7    S    
H33   N8    S    
O5    Zn2   S    
C30   H28   S    
C29   H27   S    
N1    Zn2   S    
C23   C35   T    
C24   H6    S    
C10   H12   S    
C26   H15   S    
O9    Zn2   S    
C3    C15   S    
C28   O10   S    
C28   C29   S    
C1    O1    A    
C3    C5    A    
C27   H20   S    
C6    C7    S    
C13   H34   S    
C24   H8    S    
C22   N3    S    
C12   H1    S    
H14   N6    S    
C2    C3    A    
C24   N4    S    
C27   H21   S    
C32   H36   S    
C20   N7    S    
C11   C13   S    
C6    H41   S    
C5    C6    S    
O6    Zn1   S    
C8    C11   A    
C25   H11   S    
C9    N4    S    
C4    O5    A    
C31   H31   S    
C13   H23   S    
C20   C21   A    
O4    Zn1   S    
C9    N1    A    
C4    O4    A    
C28   H24   S    
