data_mof_unit_453.cif
_audit_creation_date              2012-12-11T15:44:57-0500
_audit_creation_method            fapswitch 2.2
_symmetry_space_group_name_H-M    P1
_symmetry_Int_Tables_number       1
_space_group_crystal_system       triclinic
_cell_length_a                    19.199997
_cell_length_b                    10.933454
_cell_length_c                    18.738983
_cell_angle_alpha                 90.030062
_cell_angle_beta                  90.329129
_cell_angle_gamma                 90.015179
_cell_volume                      3933.66452619

loop_
_atom_site_label
_atom_site_type_symbol
_atom_type_description
_atom_site_fract_x
_atom_site_fract_y
_atom_site_fract_z
_atom_type_partial_charge
Br1   Br    Br    0.904807 0.056371 0.386190 -0.573207
Br2   Br    Br    0.176072 0.285842 0.638884 -0.575518
Br3   Br    Br    0.323924 0.786171 0.361260 -0.567962
Br4   Br    Br    0.595200 0.556356 0.613790 -0.578848
C1    C     C_R   0.759364 0.537962 0.648066 0.555920
C2    C     C_R   0.208469 0.185201 0.562244 0.131093
C3    C     C_R   0.520305 0.952575 0.956775 0.020669
C4    C     C_R   0.018825 0.230948 0.955576 -0.147178
C5    C     C_R   0.024496 0.230151 0.030097 -0.091231
C6    C     C_R   0.524396 0.732380 0.953645 -0.147679
C7    C     C_R   0.531742 0.731349 0.028111 -0.103998
C8    C     C_3   0.984165 0.565248 0.040132 -0.275554
C9    C     C_3   0.977833 0.568394 0.959844 -0.262645
C10   C     C_3   0.485086 0.064019 0.040162 -0.269388
C11   C     C_3   0.477293 0.067146 0.960032 -0.260096
C12   C     C_R   0.760118 0.533382 0.851711 0.539342
C13   C     C_R   0.291543 0.685415 0.437807 0.130549
C14   C     C_R   0.238943 0.532038 0.147685 0.566034
C15   C     C_R   0.260066 0.033423 0.851715 0.552426
C16   C     C_R   0.737358 0.025626 0.145269 0.579008
C17   C     C_R   0.772237 0.123921 0.852204 0.548579
C18   C     C_R   0.225918 0.129760 0.145337 0.567391
C19   C     C_R   0.273512 0.627647 0.853816 0.567009
C20   C     C_R   0.725635 0.630991 0.145033 0.554649
C21   C     C_R   0.971603 0.347138 0.852487 0.561904
C22   C     C_R   0.033664 0.346899 0.144056 0.577504
C23   C     C_R   0.472015 0.847222 0.852202 0.554329
C24   C     C_R   0.672419 0.601238 0.555531 0.118016
C25   C     C_R   0.535701 0.847124 0.143072 0.577137
C26   C     C_R   0.760229 0.111160 0.414643 0.020956
C27   C     C_R   0.252406 0.086680 0.576932 0.041940
C28   C     C_R   0.247613 0.586837 0.423050 0.041206
C29   C     C_R   0.739800 0.611132 0.585374 0.019688
C30   C     C_R   0.708965 0.169796 0.453818 0.000367
C31   C     C_R   0.290130 0.033085 0.522265 -0.032590
C32   C     C_R   0.209962 0.533093 0.477682 -0.032587
C33   C     C_R   0.791078 0.669786 0.546223 0.001826
C34   C     C_R   0.720629 0.194631 0.526648 0.010994
C35   C     C_3   0.688602 0.299168 0.439246 -0.264873
C36   C     C_R   0.276828 0.063618 0.451460 0.085852
C37   C     C_R   0.223294 0.563565 0.548499 0.085975
C38   C     C_R   0.779420 0.694630 0.473401 0.011834
C39   C     C_3   0.366324 0.051137 0.513481 -0.270074
C40   C     C_3   0.133782 0.550896 0.486546 -0.270377
C41   C     C_3   0.811476 0.799169 0.560865 -0.265368
C42   C     C_3   0.700779 0.324958 0.516743 -0.246021
C43   C     C_3   0.352371 0.084630 0.437111 -0.247805
C44   C     C_3   0.147773 0.584290 0.562945 -0.247639
C45   C     C_R   0.239073 0.535330 0.352915 0.590457
C46   C     C_3   0.799302 0.824966 0.483381 -0.246231
C47   C     C_R   0.782273 0.157552 0.560826 -0.028753
C48   C     C_R   0.224559 0.147066 0.435287 -0.005673
C49   C     C_R   0.275516 0.647116 0.564730 -0.005596
C50   C     C_R   0.717766 0.657546 0.439200 -0.029059
C51   C     C_R   0.998893 0.321522 0.424433 -0.001848
C52   C     C_R   0.996144 0.344404 0.573268 -0.012188
C53   C     C_R   0.503918 0.844433 0.426766 -0.013337
C54   C     C_R   0.501164 0.821472 0.575587 -0.001915
C55   C     C_R   0.048285 0.107167 0.441873 -0.047050
C56   C     C_R   0.260950 0.035240 0.647056 0.587980
C57   C     C_R   0.039993 0.133447 0.587936 -0.059778
C58   C     C_R   0.459948 0.633495 0.411963 -0.059845
C59   C     C_R   0.451729 0.607140 0.558014 -0.046416
C60   C     C_R   0.066971 0.010617 0.486407 -0.117510
C61   C     C_R   0.062794 0.023692 0.559378 -0.121304
C62   C     C_R   0.437123 0.523727 0.440451 -0.121615
C63   C     C_R   0.432986 0.510612 0.513416 -0.117260
C64   C     C_R   0.018182 0.232300 0.543750 0.001878
C65   C     C_R   0.021884 0.220493 0.468758 0.010712
C66   C     C_R   0.478147 0.720471 0.531196 0.011435
C67   C     C_R   0.740641 0.037963 0.351939 0.562990
C68   C     C_R   0.481829 0.732319 0.456212 0.000886
C69   C     C_R   0.979537 0.445612 0.527813 0.000648
C70   C     C_R   0.967205 0.423496 0.455461 -0.004925
C71   C     C_R   0.532919 0.923434 0.544638 -0.004721
C72   C     C_R   0.520617 0.945596 0.472294 0.000191
C73   C     C_R   0.791673 0.172260 0.638596 0.554794
C74   C     C_R   0.208576 0.172608 0.361168 0.551932
C75   C     C_R   0.291462 0.672640 0.638865 0.551011
C76   C     C_R   0.708348 0.672266 0.361430 0.555819
C77   C     C_R   0.980110 0.570289 0.550085 -0.079598
C78   C     C_R   0.837780 0.118999 0.517867 -0.141678
C79   C     C_R   0.935832 0.515266 0.412983 -0.068615
C80   C     C_R   0.564321 0.015162 0.587203 -0.068640
C81   C     C_R   0.520120 0.070286 0.450120 -0.080155
C82   C     C_R   0.961512 0.664075 0.503286 -0.139319
C83   C     C_R   0.936142 0.635942 0.435781 -0.100803
C84   C     C_R   0.564060 0.135855 0.564509 -0.099352
C85   C     C_R   0.538725 0.164037 0.497016 -0.139426
C86   C     C_R   0.741708 0.049951 0.069225 0.057142
C87   C     C_R   0.244997 0.089101 0.920544 -0.004540
C88   C     C_R   0.248996 0.585532 0.077657 -0.010177
C89   C     C_R   0.193808 0.214285 0.490752 -0.141380
C90   C     C_R   0.744983 0.588689 0.920560 -0.008815
C91   C     C_R   0.795313 0.993546 0.031918 0.041265
C92   C     C_R   0.184955 0.052875 0.957263 0.080427
C93   C     C_R   0.314311 0.582865 0.045570 0.078425
C94   C     C_R   0.686339 0.547952 0.957918 0.078734
C95   C     C_R   0.800492 0.003937 0.959352 -0.038243
C96   C     C_R   0.181747 0.061986 0.030208 -0.026854
C97   C     C_R   0.320064 0.591007 0.972688 -0.025773
C98   C     C_R   0.683213 0.558199 0.030650 -0.032734
C99   C     C_R   0.690047 0.107989 0.954990 -0.167657
C100  C     C_R   0.306228 0.714459 0.509322 -0.141886
C101  C     C_R   0.293270 0.161441 0.032979 -0.172471
C102  C     C_R   0.196481 0.621195 0.960595 -0.177640
C103  C     C_R   0.790552 0.671179 0.031823 -0.164071
C104  C     C_R   0.685554 0.098615 0.029658 -0.170181
C105  C     C_R   0.296069 0.155140 0.958226 -0.178436
C106  C     C_R   0.190415 0.614103 0.034923 -0.178629
C107  C     C_R   0.794115 0.660934 0.957187 -0.174611
C108  C     C_3   0.872014 0.000507 0.043709 0.242994
C109  C     C_3   0.147129 0.932750 0.958692 0.243422
C110  C     C_3   0.372202 0.491639 0.050176 0.252205
C111  C     C_R   0.662254 0.618973 0.482146 -0.141399
C112  C     C_3   0.652547 0.424309 0.960637 0.247626
C113  C     C_3   0.878397 0.013221 0.963711 -0.197852
C114  C     C_3   0.143810 0.944009 0.038900 -0.225759
C115  C     C_3   0.377799 0.499738 0.969878 -0.194670
C116  C     C_3   0.648867 0.437304 0.040719 -0.226388
C117  C     C_R   0.751542 0.071822 0.920370 0.015322
C118  C     C_R   0.237527 0.107434 0.069903 0.004738
C119  C     C_R   0.261435 0.602367 0.928642 -0.000282
C120  C     C_R   0.737331 0.610514 0.069557 0.006691
C121  C     C_R   0.970656 0.347422 0.646678 0.555338
C122  C     C_R   0.827609 0.101272 0.444475 0.118988
C123  C     C_R   0.029590 0.342719 0.353453 0.540648
C124  C     C_R   0.470419 0.842700 0.646551 0.534407
C125  C     C_R   0.529366 0.847440 0.353337 0.558703
C126  C     C_R   0.020491 0.340896 0.068272 0.043114
C127  C     C_R   0.008484 0.342391 0.919899 0.012667
C128  C     C_R   0.524935 0.841208 0.066846 0.025360
C129  C     C_R   0.510447 0.843300 0.918844 0.009004
C130  C     C_R   0.024299 0.449921 0.030368 0.012864
C131  C     C_R   0.019077 0.451544 0.957697 0.019503
C132  C     C_R   0.526652 0.950677 0.029373 0.014747
Cr1   Cr    Cr6+3 0.885860 0.491680 0.749630 1.014634
Cr2   Cr    Cr6+3 0.112430 0.179310 0.249850 1.047973
Cr3   Cr    Cr6+3 0.387570 0.679310 0.750150 1.047772
Cr4   Cr    Cr6+3 0.612430 0.679310 0.249850 1.035882
Cr5   Cr    Cr6+3 0.114140 0.491680 0.250370 1.024287
Cr6   Cr    Cr6+3 0.385860 0.991680 0.749630 1.028410
Cr7   Cr    Cr6+3 0.614140 0.991680 0.250370 1.014569
Cr8   Cr    Cr6+3 0.730490 0.332970 0.748720 1.071573
Cr9   Cr    Cr6+3 0.269510 0.332970 0.251280 1.035008
Cr10  Cr    Cr6+3 0.230490 0.832970 0.748720 1.045828
Cr11  Cr    Cr6+3 0.769510 0.832970 0.251280 1.051249
Cr12  Cr    Cr6+3 0.887570 0.179310 0.750150 1.020437
F1    F     F_    0.891067 0.105896 0.079907 -0.634830
F2    F     F_    0.082157 0.940259 0.926682 -0.659081
F3    F     F_    0.429537 0.539295 0.085317 -0.643917
F4    F     F_    0.587414 0.424428 0.928587 -0.645186
H1    H     H_    0.888447 0.101240 0.541196 0.163380
H2    H     H_    0.335658 0.203606 0.061903 0.123712
H3    H     H_    0.150568 0.638573 0.928306 0.147422
H4    H     H_    0.830175 0.722961 0.059841 0.122934
H5    H     H_    0.639839 0.133136 0.056325 0.136354
H6    H     H_    0.340644 0.192513 0.930829 0.129801
H7    H     H_    0.139149 0.620657 0.058047 0.148422
H8    H     H_    0.837563 0.701479 0.929279 0.127689
H9    H     H_    0.895097 0.915264 0.065736 0.116657
H10   H     H_    0.179028 0.855005 0.940106 0.145016
H11   H     H_    0.356724 0.400293 0.069391 0.133333
H12   H     H_    0.158845 0.287834 0.478269 0.115937
H13   H     H_    0.687423 0.349973 0.942767 0.137232
H14   H     H_    0.897425 0.104587 0.947231 0.189048
H15   H     H_    0.090166 0.956352 0.059523 0.168530
H16   H     H_    0.427246 0.540107 0.951334 0.191531
H17   H     H_    0.594893 0.445715 0.061220 0.192395
H18   H     H_    0.904768 0.934043 0.938242 0.119572
H19   H     H_    0.175427 0.874070 0.067431 0.107243
H20   H     H_    0.362261 0.414079 0.942107 0.099859
H21   H     H_    0.682496 0.370976 0.069823 0.103048
H22   H     H_    0.015603 0.145085 0.927093 0.195550
H23   H     H_    0.341175 0.788072 0.521863 0.115905
H24   H     H_    0.028859 0.143683 0.057686 0.181232
H25   H     H_    0.523957 0.647100 0.924450 0.189154
H26   H     H_    0.540049 0.645371 0.055166 0.208171
H27   H     H_    0.016366 0.640975 0.062080 0.142874
H28   H     H_    0.923309 0.555944 0.941657 0.168383
H29   H     H_    0.516594 0.141016 0.061636 0.153000
H30   H     H_    0.422918 0.050730 0.942802 0.165502
H31   H     H_    0.933623 0.550283 0.067502 0.149760
H32   H     H_    0.006113 0.646296 0.935210 0.162375
H33   H     H_    0.435345 0.046492 0.068499 0.148357
H34   H     H_    0.611578 0.601219 0.458811 0.163159
H35   H     H_    0.503645 0.146630 0.934878 0.171362
H36   H     H_    0.105782 0.464027 0.479787 0.148180
H37   H     H_    0.866524 0.808486 0.578071 0.144376
H38   H     H_    0.633558 0.308477 0.422036 0.144203
H39   H     H_    0.394367 0.964301 0.520154 0.148578
H40   H     H_    0.725955 0.347841 0.403987 0.159778
H41   H     H_    0.387466 0.128280 0.545786 0.163223
H42   H     H_    0.112555 0.628011 0.454367 0.162675
H43   H     H_    0.774139 0.847838 0.596157 0.158111
H44   H     H_    0.745707 0.387064 0.525694 0.140918
H45   H     H_    0.966922 0.758622 0.519420 0.110635
H46   H     H_    0.364884 0.181969 0.425384 0.133243
H47   H     H_    0.135180 0.681529 0.574811 0.133456
H48   H     H_    0.754395 0.887080 0.474461 0.140280
H49   H     H_    0.652540 0.348201 0.545594 0.189906
H50   H     H_    0.374381 0.018743 0.398383 0.192936
H51   H     H_    0.125862 0.518284 0.601605 0.192992
H52   H     H_    0.847545 0.848231 0.454543 0.189257
H53   H     H_    0.084762 0.924956 0.463896 0.126920
H54   H     H_    0.078990 0.949717 0.594080 0.128580
H55   H     H_    0.420884 0.449766 0.405702 0.128870
H56   H     H_    0.919954 0.707707 0.399637 0.141602
H57   H     H_    0.415174 0.424942 0.535872 0.127585
H58   H     H_    0.049074 0.082661 0.386567 0.207231
H59   H     H_    0.043846 0.141190 0.645231 0.175630
H60   H     H_    0.456068 0.641269 0.354674 0.179472
H61   H     H_    0.450942 0.582648 0.613308 0.208087
H62   H     H_    0.918832 0.496007 0.358887 0.140421
H63   H     H_    0.001603 0.599090 0.600703 0.143792
H64   H     H_    0.498658 0.099144 0.399519 0.143489
H65   H     H_    0.581285 0.995863 0.641295 0.138112
H66   H     H_    0.580269 0.207595 0.600719 0.143656
H67   H     H_    0.533349 0.258599 0.480966 0.110876
H68   H     H_    0.648485 0.152522 0.925651 0.153184
O1    O     O_R   0.957020 0.451640 0.669920 -0.524260
O2    O     O_R   0.168040 0.093290 0.169870 -0.509320
O3    O     O_R   0.331960 0.593290 0.830130 -0.503225
O4    O     O_R   0.668040 0.593290 0.169870 -0.511828
O5    O     O_R   0.945600 0.250580 0.824860 -0.502618
O6    O     O_R   0.054400 0.250580 0.175140 -0.487186
O7    O     O_R   0.445600 0.750580 0.824860 -0.494011
O8    O     O_R   0.554400 0.750580 0.175140 -0.481635
O9    O     O_3   0.834640 0.334650 0.749500 -0.281140
O10   O     O_3   0.165360 0.334650 0.250500 -0.293295
O11   O     O_3   0.334640 0.834650 0.749500 -0.290028
O12   O     O_R   0.042980 0.451640 0.330080 -0.520390
O13   O     O_3   0.665360 0.834650 0.250500 -0.291768
O14   O     O_R   0.821450 0.543440 0.674610 -0.506116
O15   O     O_R   0.178550 0.543440 0.325390 -0.497762
O16   O     O_R   0.321450 0.043440 0.674610 -0.497010
O17   O     O_R   0.678550 0.043440 0.325390 -0.504699
O18   O     O_R   0.715320 0.458650 0.668100 -0.471218
O19   O     O_R   0.284680 0.458650 0.331900 -0.517833
O20   O     O_R   0.215320 0.958650 0.668100 -0.519709
O21   O     O_R   0.784680 0.958650 0.331900 -0.470378
O22   O     O_R   0.737170 0.209590 0.674530 -0.493111
O23   O     O_R   0.457020 0.951640 0.669920 -0.519928
O24   O     O_R   0.262830 0.209590 0.325470 -0.493839
O25   O     O_R   0.237170 0.709590 0.674530 -0.494397
O26   O     O_R   0.762830 0.709590 0.325470 -0.492521
O27   O     O_R   0.832710 0.092740 0.669580 -0.522162
O28   O     O_R   0.167290 0.092740 0.330420 -0.504687
O29   O     O_R   0.332710 0.592740 0.669580 -0.503628
O30   O     O_R   0.667290 0.592740 0.330420 -0.520715
O31   O     O_R   0.946290 0.250060 0.676040 -0.526309
O32   O     O_R   0.053710 0.250060 0.323960 -0.519352
O33   O     O_R   0.446290 0.750060 0.676040 -0.522871
O34   O     O_R   0.542980 0.951640 0.330080 -0.523730
O35   O     O_R   0.553710 0.750060 0.323960 -0.523628
O36   O     O_R   0.956270 0.452200 0.830470 -0.518336
O37   O     O_R   0.043730 0.452200 0.169530 -0.524517
O38   O     O_R   0.456270 0.952200 0.830470 -0.521888
O39   O     O_R   0.543730 0.952200 0.169530 -0.520815
O40   O     O_R   0.820760 0.543950 0.823440 -0.514024
O41   O     O_R   0.179240 0.543950 0.176560 -0.505597
O42   O     O_R   0.320760 0.043950 0.823440 -0.504732
O43   O     O_R   0.679240 0.043950 0.176560 -0.521481
O44   O     O_R   0.714570 0.459210 0.828640 -0.474932
O45   O     O_R   0.736470 0.210100 0.823360 -0.501407
O46   O     O_R   0.285430 0.459210 0.171360 -0.499235
O47   O     O_R   0.214570 0.959210 0.828640 -0.487593
O48   O     O_R   0.785430 0.959210 0.171360 -0.480040
O49   O     O_R   0.263530 0.210100 0.176640 -0.503231
O50   O     O_R   0.236470 0.710100 0.823360 -0.500347
O51   O     O_R   0.763530 0.710100 0.176640 -0.510339
O52   O     O_R   0.831960 0.093290 0.830130 -0.517503

loop_
_geom_bond_atom_site_label_1
_geom_bond_atom_site_label_2
_ccdc_geom_bond_type
C41   H43   S    
C36   C43   S    
C79   C83   A    
Cr9   O10   S    
C26   C122  A    
C19   O50   A    
C54   C124  S    
C62   H55   S    
C12   C90   S    
C9    C131  S    
C69   C70   A    
Cr7   O17   S    
Cr8   O45   S    
C56   O16   A    
C6    C129  A    
C70   C79   A    
C45   O19   A    
C88   C106  A    
C7    C128  A    
C16   O48   A    
C26   C67   S    
C110  H11   S    
C86   C91   A    
C126  C130  A    
C5    C126  A    
C112  H13   S    
Cr5   O12   S    
C108  H9    S    
C18   O2    A    
C44   H51   S    
C55   C60   A    
C97   C119  A    
C10   C132  S    
C28   C32   A    
C53   C72   A    
C53   C125  S    
C49   C75   S    
C13   C100  A    
C81   C85   A    
C3    C129  A    
Cr2   O32   S    
C91   C108  S    
C34   C47   A    
C16   O43   A    
C57   H59   S    
C108  C113  S    
C12   O40   A    
C4    H22   S    
C116  H17   S    
C115  H16   S    
C8    H31   S    
C95   C113  S    
C82   H45   S    
Cr2   O2    S    
C49   C100  A    
Cr6   O23   S    
C11   H30   S    
Cr1   O1    S    
C90   C107  A    
C20   C120  S    
C54   C66   A    
C48   C74   S    
C5    H24   S    
Cr9   O49   S    
C123  O32   A    
Cr6   O38   S    
C21   O5    A    
C33   C38   A    
Cr2   O6    S    
Cr12  O52   S    
C78   C122  A    
Cr11  O51   S    
C87   C92   A    
C78   H1    S    
C113  H18   S    
C42   H49   S    
C125  O35   A    
Cr11  O26   S    
C4    C5    A    
Cr7   O34   S    
C1    C29   S    
C102  C119  A    
C88   C93   A    
C74   O28   A    
C43   H46   S    
C63   H57   S    
Cr9   O46   S    
C56   O20   A    
Cr3   O7    S    
C31   C39   S    
C96   C118  A    
C110  C115  S    
C22   C126  S    
C55   H58   S    
C17   O45   A    
C115  H20   S    
C95   C117  A    
C84   C85   A    
C2    C89   A    
C3    C11   S    
C2    C27   A    
C109  H10   S    
C6    C7    A    
C39   H39   S    
C76   O30   A    
C75   O29   A    
C32   C37   A    
Cr3   O29   S    
Cr5   O37   S    
Cr5   O41   S    
C103  C120  A    
C98   C120  A    
C105  H6    S    
C52   C69   A    
C69   C77   A    
Br4   C24   S    
C21   O36   A    
C54   C71   A    
C18   C118  S    
C100  H23   S    
C50   C76   S    
Cr10  O11   S    
C20   O4    A    
Cr4   O30   S    
C83   H56   S    
C59   C63   A    
Cr4   O8    S    
C71   C72   A    
C114  H15   S    
C26   C30   A    
C44   H47   S    
Cr8   O18   S    
C30   C35   S    
C97   C115  S    
C80   C84   A    
Cr8   O9    S    
C121  O31   A    
C62   C63   A    
Br1   C122  S    
C67   O21   A    
C14   O41   A    
Cr1   O9    S    
C1    O18   A    
C81   H64   S    
C14   O46   A    
C10   H33   S    
C58   C62   A    
C82   C83   A    
C64   C65   A    
C19   C119  S    
C61   H54   S    
C20   O51   A    
C89   H12   S    
Cr5   O10   S    
C36   C48   A    
C16   C86   S    
C40   H36   S    
Cr12  O27   S    
C74   O24   A    
Br2   C2    S    
C43   H50   S    
Cr8   O22   S    
C87   C105  A    
C73   O27   A    
C23   C129  S    
C27   C56   S    
C107  H8    S    
C47   C73   S    
C24   C111  A    
C110  F3    S    
C85   H67   S    
C127  C131  A    
C94   C112  S    
Cr10  O25   S    
C59   C66   A    
Cr2   O10   S    
C113  H14   S    
C128  C132  A    
C9    H32   S    
C93   C97   A    
C50   C111  A    
C4    C127  A    
C10   C11   S    
C124  O33   A    
Cr7   O39   S    
C58   C68   A    
C48   C89   A    
C23   O38   A    
C7    H26   S    
C25   O39   A    
C52   C121  S    
C125  O34   A    
C47   C78   A    
C37   C49   A    
C51   C65   A    
C38   C46   S    
C35   C42   S    
Cr11  O13   S    
C18   O49   A    
C41   H37   S    
Cr9   O19   S    
C19   O3    A    
C24   C29   A    
C102  H3    S    
C121  O1    A    
C1    O14   A    
C55   C65   A    
Cr4   O13   S    
C76   O26   A    
C92   C109  S    
C32   C40   S    
C96   C114  S    
C33   C41   S    
C99   C117  A    
C67   O17   A    
C112  F4    S    
C10   H29   S    
C98   C116  S    
C15   O47   A    
C66   C68   A    
C102  C106  A    
Cr1   O40   S    
Cr3   O3    S    
C101  C118  A    
C35   H38   S    
C59   H61   S    
C101  C105  A    
Cr12  O31   S    
C46   H48   S    
Cr5   O15   S    
Cr3   O33   S    
C30   C34   A    
C6    H25   S    
C103  C107  A    
C109  F2    S    
C15   C87   S    
Cr4   O4    S    
Cr12  O5    S    
C77   C82   A    
Cr10  O20   S    
Cr11  O48   S    
C111  H34   S    
C51   C123  S    
Cr3   O11   S    
C42   H44   S    
C130  C131  A    
C104  H5    S    
C46   H52   S    
C27   C31   A    
C9    H28   S    
C60   H53   S    
C99   H68   S    
C40   H42   S    
C39   H41   S    
C14   C88   S    
Cr6   O16   S    
Cr7   O13   S    
C31   C36   A    
Cr1   O14   S    
C58   H60   S    
C86   C104  A    
C3    C132  A    
C51   C70   A    
C52   C64   A    
Cr10  O50   S    
C15   O42   A    
C41   C46   S    
C35   H40   S    
C57   C64   A    
C23   O7    A    
Cr6   O11   S    
C77   H63   S    
C22   O37   A    
C11   H35   S    
C114  H19   S    
C22   O6    A    
C21   C127  S    
C92   C96   A    
C60   C61   A    
C101  H2    S    
C123  O12   A    
C37   C44   S    
C84   H66   S    
C73   O22   A    
Br3   C13   S    
C91   C95   A    
C79   H62   S    
C53   C68   A    
C17   C117  S    
Cr10  O47   S    
C71   C80   A    
C29   C33   A    
C28   C45   S    
C34   C42   S    
Cr1   O36   S    
Cr2   O28   S    
C80   H65   S    
C94   C98   A    
C103  H4    S    
C109  C114  S    
C12   O44   A    
C112  C116  S    
C116  H21   S    
C8    H27   S    
Cr7   O43   S    
C8    C9    S    
Cr9   O24   S    
C45   O15   A    
Cr4   O35   S    
C75   O25   A    
Cr11  O21   S    
C13   C28   A    
C90   C94   A    
C108  F1    S    
C124  O23   A    
C99   C104  A    
C8    C130  S    
Cr12  O9    S    
Cr6   O42   S    
C25   O8    A    
C93   C110  S    
C39   C43   S    
C72   C81   A    
C38   C50   A    
C106  H7    S    
C40   C44   S    
C17   O52   A    
C25   C128  S    
C57   C61   A    
Cr8   O44   S    
