data_mof_unit_2443.cif
_audit_creation_date              2012-12-10T20:39:54-0500
_audit_creation_method            fapswitch 2.2
_symmetry_space_group_name_H-M    P1
_symmetry_Int_Tables_number       1
_space_group_crystal_system       triclinic
_cell_length_a                    23.4072
_cell_length_b                    10.66842
_cell_length_c                    9.849152
_cell_angle_alpha                 89.967622
_cell_angle_beta                  90.181762
_cell_angle_gamma                 90.152916
_cell_volume                      2459.48745298

loop_
_atom_site_label
_atom_site_type_symbol
_atom_type_description
_atom_site_fract_x
_atom_site_fract_y
_atom_site_fract_z
_atom_type_partial_charge
C1    C     C_R   0.501940 0.259892 0.500088 0.875656
C2    C     C_R   0.967960 0.340085 0.328263 -0.151988
C3    C     C_R   0.027716 0.337214 0.324949 0.170479
C4    C     C_R   0.059456 0.425719 0.403696 -0.034186
C5    C     C_R   0.029657 0.516334 0.481503 -0.057545
C6    C     C_R   0.059730 0.606361 0.559046 -0.002440
C7    C     C_R   0.029932 0.695779 0.635465 -0.158040
C8    C     C_R   0.970629 0.695547 0.637176 -0.161112
C9    C     C_R   0.119747 0.427846 0.409635 0.508843
C10   C     C_R   0.119183 0.604554 0.559120 0.499963
C11   C     C_R   0.239464 0.546736 0.375122 -0.095579
C12   C     C_R   0.389299 0.500742 0.499627 0.877291
C13   C     C_R   0.298654 0.541918 0.378151 -0.218192
C14   C     C_R   0.327100 0.505342 0.497417 -0.043092
C15   C     C_R   0.295674 0.473987 0.613587 -0.222441
C16   C     C_R   0.236389 0.478315 0.610122 -0.096456
C17   C     C_R   0.208349 0.514499 0.490842 0.319570
C18   C     C_R   0.763911 0.420491 0.587554 0.219715
C19   C     C_R   0.703705 0.410613 0.584486 0.150024
C20   C     C_R   0.672434 0.494043 0.500486 -0.070626
C21   C     C_R   0.700531 0.579635 0.416385 -0.269868
C22   C     C_R   0.759423 0.585923 0.416251 -0.143978
C23   C     C_R   0.502046 0.740103 0.499993 0.884542
C24   C     C_R   0.791039 0.507760 0.501043 0.281326
C25   C     C_R   0.511759 0.063890 0.623525 0.138015
C26   C     C_R   0.511654 0.128672 0.500816 -0.107042
C27   C     C_R   0.522942 0.065032 0.379260 -0.215029
C28   C     C_R   0.523024 0.935389 0.379226 -0.222958
C29   C     C_R   0.511809 0.871416 0.500748 -0.103732
C30   C     C_R   0.511891 0.936027 0.623517 0.130302
C31   C     C_3   0.471408 0.928354 0.740386 -0.468697
C32   C     C_3   0.471124 0.070411 0.740109 -0.486924
C33   C     C_R   0.473924 0.405245 0.071281 0.210862
C34   C     C_R   0.610450 0.496907 0.500194 0.879756
C35   C     C_R   0.530149 0.586985 0.072197 -0.124764
C36   C     C_R   0.530170 0.586968 0.928097 -0.125319
C37   C     C_R   0.473722 0.405542 0.928562 0.216330
C38   C     C_3   0.411772 0.372998 0.923522 -0.519548
C39   C     C_3   0.412259 0.371112 0.077503 -0.490215
C40   C     C_R   0.880418 0.602364 0.565317 0.505868
C41   C     C_R   0.879209 0.428133 0.412970 0.524674
C42   C     C_R   0.938852 0.427913 0.407166 -0.067562
C43   C     C_R   0.969540 0.516913 0.483235 -0.023172
C44   C     C_R   0.940056 0.606115 0.562196 -0.008326
H1    H     H_    0.943920 0.272267 0.269199 0.192826
H2    H     H_    0.676659 0.642945 0.351559 0.166132
H3    H     H_    0.527489 0.114193 0.283602 0.171655
H4    H     H_    0.527627 0.886418 0.283562 0.165836
H5    H     H_    0.429499 0.886321 0.712044 0.211159
H6    H     H_    0.491823 0.887693 0.832422 0.201124
H7    H     H_    0.429086 0.110858 0.711017 0.202588
H8    H     H_    0.491209 0.111961 0.832160 0.204295
H9    H     H_    0.553575 0.658614 0.126796 0.142199
H10   H     H_    0.553613 0.658568 0.873765 0.149578
H11   H     H_    0.403866 0.279386 0.877873 0.199869
H12   H     H_    0.385621 0.446034 0.123174 0.218378
H13   H     H_    0.405570 0.275996 0.120852 0.205793
H14   H     H_    0.052337 0.765695 0.695154 0.192033
H15   H     H_    0.948886 0.765079 0.698066 0.191850
H16   H     H_    0.217652 0.574992 0.282967 0.142979
H17   H     H_    0.322076 0.567712 0.287665 0.155221
H18   H     H_    0.316734 0.444522 0.706017 0.151810
H19   H     H_    0.212142 0.452604 0.699411 0.142870
N1    N     N_R   0.851671 0.513324 0.492638 -0.351579
N2    N     N_R   0.147527 0.515931 0.486222 -0.357938
N3    N     N_R   0.499610 0.499140 0.142800 -0.107604
N4    N     N_R   0.499610 0.499180 0.857150 -0.106420
O1    O     O_R   0.500010 0.316790 0.614690 -0.620240
O2    O     O_2   0.848769 0.343462 0.340796 -0.555291
O3    O     O_2   0.150964 0.342556 0.341724 -0.565553
O4    O     O_2   0.148745 0.690731 0.631288 -0.559981
O5    O     O_R   0.500000 0.316760 0.385350 -0.620169
O6    O     O_R   0.416160 0.499980 0.614700 -0.619199
O7    O     O_R   0.416150 0.499940 0.385360 -0.620030
O8    O     O_R   0.500000 0.683240 0.614650 -0.619061
O9    O     O_R   0.499990 0.683210 0.385310 -0.627039
O10   O     O_R   0.583850 0.500060 0.614640 -0.610971
O11   O     O_R   0.583840 0.500020 0.385300 -0.617065
O12   O     O_2   0.851266 0.685703 0.641203 -0.554892
Zn1   Zn    Zn3+2 0.500000 0.500020 0.653130 0.947731
Zn2   Zn    Zn3+2 0.500000 0.499980 0.346870 0.947786
C45   C     C_3   0.674240 0.309002 0.666633 -0.868545
H20   H     H_    0.628874 0.294892 0.638292 0.239976
H21   H     H_    0.695073 0.217236 0.648658 0.242960
H22   H     H_    0.676710 0.332067 0.776373 0.249197
H23   H     H_    0.780847 0.651815 0.349832 0.158918
C46   C     C_3   0.055071 0.238714 0.236312 -0.766919
H24   H     H_    0.080636 0.173331 0.299573 0.270381
H25   H     H_    0.022877 0.181177 0.181235 0.207065
H26   H     H_    0.082273 0.284115 0.158228 0.263404
H27   H     H_    0.385468 0.450251 0.881173 0.217394
C47   C     C_3   0.798775 0.337786 0.681270 -0.839460
H28   H     H_    0.795218 0.238545 0.648579 0.250102
H29   H     H_    0.844756 0.362756 0.683029 0.234704
H30   H     H_    0.783020 0.346973 0.786970 0.245754

loop_
_geom_bond_atom_site_label_1
_geom_bond_atom_site_label_2
_ccdc_geom_bond_type
O1    Zn1   S    
C46   H24   S    
C12   O7    A    
C35   H9    S    
C41   C42   A    
C19   C20   A    
C23   O9    A    
C36   N4    A    
C7    C8    A    
C26   C27   A    
C29   C30   A    
C18   C24   A    
C23   C29   S    
C28   C29   A    
C8    H15   S    
C5    C6    A    
O10   Zn1   S    
C15   C16   A    
C39   H13   S    
C1    O1    A    
C18   C19   A    
C32   H8    S    
C15   H18   S    
C11   C17   A    
C38   H11   S    
C31   C32   S    
C16   C17   A    
C16   H19   S    
C19   C45   S    
O8    Zn1   S    
C7    H14   S    
O5    Zn2   S    
C20   C34   S    
C10   O4    S    
C25   C32   S    
C5    C43   A    
C24   N1    S    
C13   C14   A    
C31   H5    S    
C12   O6    A    
C33   N3    A    
C2    H1    S    
C1    O5    A    
C3    C46   S    
C9    O3    S    
C35   N3    A    
C25   C26   A    
C38   H27   S    
C47   H30   S    
C33   C37   A    
C35   C36   A    
C43   C44   A    
C32   H7    S    
C37   C38   S    
C39   H12   S    
C30   C31   S    
C47   H29   S    
C40   O12   S    
C33   C39   S    
C12   C14   S    
C45   H21   S    
C46   H25   S    
C1    C26   S    
C22   C24   A    
C42   C43   A    
O7    Zn2   S    
C3    C4    A    
C41   O2    S    
C21   H2    S    
C10   N2    A    
C27   H3    S    
C25   C30   A    
C28   H4    S    
N4    Zn1   S    
C8    C44   A    
C23   O8    A    
C4    C5    A    
O9    Zn2   S    
C6    C10   A    
C6    C7    A    
C45   H22   S    
C17   N2    S    
C40   N1    A    
C18   C47   S    
C2    C3    A    
C34   O10   A    
C34   O11   A    
N3    Zn2   S    
C11   C13   A    
O11   Zn2   S    
C38   C39   S    
C2    C42   A    
C37   N4    A    
C47   H28   S    
O6    Zn1   S    
C22   H23   S    
C9    N2    A    
C36   H10   S    
C40   C44   A    
C13   H17   S    
C20   C21   A    
C45   H20   S    
C46   H26   S    
C27   C28   A    
C14   C15   A    
C31   H6    S    
C41   N1    A    
C4    C9    A    
C21   C22   A    
C11   H16   S    
