data_mof_unit_1247.cif
_audit_creation_date              2012-10-26T20:57:26-0400
_audit_creation_method            fapswitch 2.2
_symmetry_space_group_name_H-M    P1
_symmetry_Int_Tables_number       1
_space_group_crystal_system       triclinic
_cell_length_a                    14.707375
_cell_length_b                    14.909688
_cell_length_c                    15.887521
_cell_angle_alpha                 76.479857
_cell_angle_beta                  103.368117
_cell_angle_gamma                 115.153602
_cell_volume                      3031.49851224

loop_
_atom_site_label
_atom_site_type_symbol
_atom_type_description
_atom_site_fract_x
_atom_site_fract_y
_atom_site_fract_z
_atom_type_partial_charge
C1    C     C_R   0.879643 0.312507 0.514195 0.551016
C2    C     C_R   0.362725 0.918372 0.462243 0.025612
C3    C     C_R   0.682089 0.005140 0.498390 0.042007
C4    C     C_R   0.322032 0.989583 0.414842 0.038883
C5    C     C_R   0.533799 0.048428 0.460083 0.039032
C6    C     C_R   0.469395 0.945873 0.473100 0.047146
C7    C     C_R   0.512983 0.874482 0.487878 -0.096285
C8    C     C_R   0.491443 0.117741 0.413089 -0.100849
C9    C     C_R   0.617873 0.904229 0.497050 -0.101455
C10   C     C_R   0.387041 0.088129 0.389006 -0.109027
C11   C     C_R   0.710561 0.662661 0.347857 -0.065130
C12   C     C_R   0.120426 0.687237 0.486596 0.548949
C13   C     C_R   0.289608 0.338688 0.653897 -0.060168
C14   C     C_R   0.792289 0.631733 0.371868 0.108674
C15   C     C_R   0.204983 0.364939 0.625664 0.109510
C16   C     C_R   0.000170 0.500125 0.660011 0.561777
C17   C     C_R   0.999913 0.499998 0.339977 0.552743
C18   C     C_R   0.720417 0.519947 0.493955 0.074579
C19   C     C_R   0.285913 0.489320 0.513265 0.073154
C20   C     C_R   0.634707 0.547067 0.473809 -0.005726
C21   C     C_R   0.376860 0.470979 0.541027 -0.001315
C22   C     C_R   0.632058 0.623097 0.400784 0.000352
C23   C     C_R   0.787627 0.034684 0.512188 -0.117688
C24   C     C_R   0.378905 0.394569 0.613977 0.010552
C25   C     C_R   0.551330 0.499826 0.523257 0.026398
C26   C     C_R   0.464794 0.525523 0.497572 0.018124
C27   C     C_R   0.470105 0.607593 0.431155 -0.135673
C28   C     C_R   0.552685 0.428711 0.598552 -0.115962
C29   C     C_R   0.551627 0.656973 0.384601 -0.020893
C30   C     C_R   0.470414 0.378141 0.644162 -0.013515
C31   C     C_3   0.936981 0.409617 0.034736 -0.146962
C32   C     C_3   0.064173 0.592302 0.965058 -0.145795
C33   C     C_3   0.906438 0.481068 0.956725 0.059125
C34   C     C_R   0.216916 0.961508 0.393675 -0.118839
C35   C     C_3   0.094744 0.520875 0.043096 0.059331
C36   C     C_1   0.000713 0.500679 0.749541 0.043630
C37   C     C_1   0.999798 0.500114 0.250386 0.037316
C38   C     C_3   0.031400 0.431171 0.993620 -0.033495
C39   C     C_3   0.969780 0.570751 0.006218 -0.034873
C40   C     C_3   0.000164 0.501274 0.916339 -0.006962
C41   C     C_3   0.001008 0.500637 0.083486 -0.008222
C42   C     C_1   0.000796 0.501153 0.824878 0.030959
C43   C     C_1   0.000098 0.500258 0.174995 0.026366
C44   C     C_R   0.811025 0.205751 0.513940 -0.010963
C45   C     C_R   0.851386 0.134884 0.516307 -0.132713
C46   C     C_R   0.189910 0.793306 0.470295 -0.018799
C47   C     C_2   0.800155 0.459010 0.909586 0.603910
C48   C     C_2   0.201220 0.543513 0.089963 0.597687
C49   C     C_1   0.117779 0.312282 0.671281 0.282479
C50   C     C_1   0.874843 0.678231 0.320693 0.275499
C51   C     C_1   0.707219 0.730200 0.265833 0.207553
C52   C     C_1   0.279529 0.251341 0.720961 0.205750
C53   C     C_1   0.936100 0.647712 0.013956 0.250702
C54   C     C_1   0.065094 0.354189 0.985961 0.249863
C55   C     C_2   0.333952 0.772712 0.583183 0.570898
C56   C     C_R   0.151651 0.863333 0.418495 -0.130682
C57   C     C_2   0.662513 0.229588 0.542142 0.573878
C58   C     C_1   0.550516 0.746180 0.324592 0.195811
C59   C     C_1   0.487594 0.313507 0.724259 0.202239
C60   C     C_R   0.704467 0.174686 0.505704 0.047595
C61   C     C_R   0.295896 0.823747 0.499098 0.033660
C62   C     C_R   0.639970 0.077453 0.486579 0.019682
Cu1   Cu    Cu3+1 0.081740 0.475690 0.522610 1.014053
Cu2   Cu    Cu3+1 0.918260 0.524310 0.477390 1.009079
H1    H     H_    0.277151 0.543153 0.457229 0.140280
H2    H     H_    0.932649 0.156445 0.523222 0.146785
H3    H     H_    0.820822 0.980555 0.518448 0.124800
H4    H     H_    0.185207 0.014909 0.355855 0.129839
H5    H     H_    0.466340 0.796063 0.485913 0.143569
H6    H     H_    0.538991 0.193540 0.388811 0.168186
H7    H     H_    0.704861 0.442608 0.795238 0.345023
H8    H     H_    0.297569 0.563541 0.203625 0.347486
H9    H     H_    0.391093 0.779153 0.710877 0.358312
H10   H     H_    0.615137 0.241304 0.646940 0.341485
H11   H     H_    0.730284 0.466468 0.549668 0.167131
H12   H     H_    0.412620 0.638109 0.415688 0.106904
H13   H     H_    0.619116 0.412506 0.625941 0.104579
H14   H     H_    0.885230 0.334900 0.063642 0.148438
H15   H     H_    0.115901 0.667016 0.936126 0.151892
H16   H     H_    0.648777 0.847877 0.505317 0.121307
H17   H     H_    0.357093 0.142895 0.351262 0.131040
H18   H     H_    0.070881 0.842461 0.397371 0.155969
N1    N     N_R   0.795440 0.560790 0.443380 -0.257258
N2    N     N_1   0.502823 0.262426 0.788208 -0.209192
N3    N     N_R   0.204560 0.439210 0.556620 -0.251909
N4    N     N_1   0.048823 0.269395 0.708719 -0.255467
N5    N     N_1   0.940008 0.716296 0.278745 -0.279057
N6    N     N_1   0.705523 0.783726 0.200205 -0.210873
N7    N     N_1   0.270000 0.181396 0.774191 -0.214091
N8    N     N_1   0.909524 0.708324 0.020141 -0.218486
N9    N     N_1   0.091679 0.293557 0.979846 -0.224590
N10   N     N_1   0.548664 0.817563 0.277238 -0.242675
O1    O     O_R   0.977900 0.338120 0.529810 -0.513308
O2    O     O_R   0.779006 0.457389 0.819456 -0.693296
O3    O     O_2   0.268565 0.558656 0.049062 -0.475615
O4    O     O_R   0.223095 0.547418 0.179741 -0.695215
O5    O     O_2   0.341947 0.693472 0.587056 -0.516393
O6    O     O_R   0.365005 0.819196 0.657625 -0.659648
O7    O     O_2   0.641323 0.298249 0.496480 -0.549131
O8    O     O_R   0.645256 0.200023 0.629134 -0.654497
O9    O     O_R   0.022100 0.661880 0.470190 -0.512209
O10   O     O_R   0.839850 0.379180 0.491620 -0.468555
O11   O     O_R   0.160150 0.620820 0.508380 -0.466123
O12   O     O_R   0.069010 0.479460 0.640020 -0.483889
O13   O     O_R   0.930990 0.520540 0.359980 -0.490531
O14   O     O_R   0.930960 0.520530 0.601820 -0.505383
O15   O     O_R   0.069040 0.479470 0.398180 -0.506203
O16   O     O_2   0.732437 0.442751 0.950482 -0.473013

loop_
_geom_bond_atom_site_label_1
_geom_bond_atom_site_label_2
_ccdc_geom_bond_type
C21   C26   A    
C34   C56   A    
C18   H11   S    
C23   C45   A    
C22   C29   A    
C27   C29   A    
C36   C42   T    
Cu2   O13   S    
C39   C41   S    
H7    O2    S    
C14   C50   S    
C25   C28   A    
Cu2   O10   S    
C26   C27   A    
C33   C39   S    
C48   O3    D    
C17   O15   A    
C5    C6    A    
C11   C14   A    
C20   C25   A    
C57   O7    D    
C60   C62   A    
C32   C39   S    
C23   H3    S    
C3    C23   A    
C16   O12   A    
C31   C33   S    
C31   C41   S    
C2    C61   A    
C16   O14   A    
C15   N3    A    
C40   C42   S    
Cu1   N3    S    
C41   C43   S    
C52   N7    T    
C2    C6    A    
C14   N1    A    
C35   C48   S    
Cu2   O9    S    
C4    C34   A    
C33   C40   S    
C46   C61   A    
C32   C35   S    
C35   C38   S    
C59   N2    T    
C12   O11   A    
Cu1   O11   S    
C34   H4    S    
C57   C60   S    
H10   O8    S    
C25   C26   A    
C57   O8    S    
C13   C24   A    
C9    H16   S    
C37   C43   T    
C2    C4    A    
Cu2   N1    S    
C3    C9    A    
C17   O13   A    
C13   C52   S    
C1    C44   S    
C38   C54   S    
C30   C59   S    
C55   O5    D    
C18   N1    A    
C17   C37   S    
C56   H18   S    
C28   H13   S    
C50   N5    T    
C12   C46   S    
C20   C22   A    
C13   C15   A    
C33   C47   S    
C4    C10   A    
C27   H12   S    
C45   H2    S    
C32   C40   S    
C44   C45   A    
C31   H14   S    
C3    C62   A    
C7    C9    A    
C48   O4    S    
C19   C21   A    
C49   N4    T    
C8    C10   A    
Cu1   O12   S    
C19   N3    A    
C51   N6    T    
C7    H5    S    
C5    C8    A    
Cu2   O14   S    
C6    C7    A    
Cu1   O1    S    
C10   H17   S    
C8    H6    S    
C31   C38   S    
C28   C30   A    
C54   N9    T    
C16   C36   S    
C32   H15   S    
C38   C40   S    
C39   C53   S    
C58   N10   T    
C44   C60   A    
C55   C61   S    
C55   O6    S    
C47   O2    S    
C5    C62   A    
C19   H1    S    
C18   C20   A    
C15   C49   S    
C35   C41   S    
C24   C30   A    
H9    O6    S    
C11   C51   S    
Cu1   Cu2   S    
H8    O4    S    
C12   O9    A    
C29   C58   S    
C11   C22   A    
C1    O1    A    
C47   O16   D    
C21   C24   A    
C46   C56   A    
C53   N8    T    
Cu1   O15   S    
C1    O10   A    
