data_mof_unit_3099.cif
_audit_creation_date              2012-12-11T14:33:10-0500
_audit_creation_method            fapswitch 2.2
_symmetry_space_group_name_H-M    P1
_symmetry_Int_Tables_number       1
_space_group_crystal_system       triclinic
_cell_length_a                    6.960096
_cell_length_b                    13.818162
_cell_length_c                    17.833253
_cell_angle_alpha                 111.948837
_cell_angle_beta                  95.795726
_cell_angle_gamma                 90.154854
_cell_volume                      1581.15745377

loop_
_atom_site_label
_atom_site_type_symbol
_atom_type_description
_atom_site_fract_x
_atom_site_fract_y
_atom_site_fract_z
_atom_type_partial_charge
O1    O     O_R   0.484560 0.544530 0.414330 -0.530608
O2    O     O_R   0.197040 0.638810 0.585080 -0.543242
O3    O     O_R   0.026800 0.455470 0.585670 -0.542104
C1    C     C_R   0.373541 0.678849 0.610975 0.669453
O4    O     O_R   0.155000 0.556150 0.414940 -0.546016
O5    O     O_R   0.984450 0.372220 0.414320 -0.546058
C2    C     C_R   0.317285 0.564954 0.386454 0.760929
O6    O     O_R   0.526900 0.627780 0.585680 -0.550736
O7    O     O_3   0.339170 0.439750 0.499990 -0.367539
V1    V     V_3+5 0.064350 0.511180 0.500000 1.344346
O8    O     O_R   0.654880 0.361190 0.414920 -0.526459
C3    C     C_R   0.817432 0.323686 0.387549 0.658467
O9    O     O_R   0.696930 0.443850 0.585060 -0.543698
C4    C     C_R   0.874010 0.446417 0.618532 0.676961
V2    V     V_3+5 0.564340 0.488820 0.500000 1.366985
O10   O     O_3   0.839390 0.560250 0.500010 -0.377917
C5    C     C_R   0.042411 0.882627 0.832937 -0.066550
C6    C     C_R   0.908793 0.418916 0.690946 -0.060525
C7    C     C_R   0.923196 0.854703 0.692874 0.100565
C8    C     C_R   0.985606 0.815851 0.753123 -0.165703
C9    C     C_R   0.046353 0.992161 0.852098 -0.229202
C10   C     C_R   0.985292 0.034211 0.791574 0.068467
C11   C     C_R   0.911382 0.962609 0.713274 0.131116
C12   C     C_R   0.991175 0.143827 0.804604 0.073858
C13   C     C_R   0.922410 0.176154 0.739185 0.074848
C14   C     C_R   0.833078 0.101789 0.667072 -0.201683
C15   C     C_R   0.822413 0.999219 0.655821 -0.212648
C16   C     C_R   0.065148 0.222073 0.879143 -0.183333
C17   C     C_R   0.077630 0.326899 0.887988 -0.218486
C18   C     C_R   0.019036 0.357260 0.822748 0.104055
C19   C     C_R   0.939336 0.282191 0.747604 0.100285
C20   C     C_R   0.042244 0.461876 0.831234 -0.113850
C21   C     C_R   0.990335 0.492331 0.765595 -0.151468
C22   C     C_R   0.883041 0.315597 0.682553 -0.192655
H1    H     H_    0.740669 0.949048 0.599919 0.142421
H2    H     H_    0.825045 0.263528 0.622869 0.088100
H3    H     H_    0.015749 0.572826 0.772862 0.094267
H4    H     H_    0.138399 0.384486 0.945904 0.119875
H5    H     H_    0.984097 0.732332 0.738505 0.080303
H6    H     H_    0.092479 0.042313 0.914214 0.101416
H7    H     H_    0.761491 0.119352 0.617772 0.119556
H8    H     H_    0.117917 0.203963 0.931144 0.126261
H9    H     H_    0.104326 0.519599 0.888393 0.151774
H10   H     H_    0.104289 0.229308 0.301058 0.132207
H11   H     H_    0.838952 0.029349 0.197849 0.193392
C23   C     C_2   0.135199 0.037510 0.183600 -0.382851
C24   C     C_2   0.973730 0.075779 0.218622 -0.102722
C25   C     C_2   0.814109 0.215961 0.324014 0.245847
C26   C     C_2   0.972218 0.180436 0.284613 -0.220078
H12   H     H_    0.271154 0.082986 0.204843 0.178402
C27   C     C_R   0.405232 0.785261 0.678646 -0.063589
C28   C     C_R   0.536557 0.471441 0.827050 -0.055117
C29   C     C_R   0.522051 0.887250 0.819626 -0.125672
C30   C     C_R   0.477112 0.790975 0.756242 -0.152814
C31   C     C_R   0.384431 0.880638 0.665627 -0.219513
C32   C     C_R   0.428494 0.981351 0.730364 0.109397
C33   C     C_R   0.497593 0.981590 0.807821 0.120366
C34   C     C_R   0.416204 0.081308 0.720942 0.034886
C35   C     C_R   0.475712 0.177778 0.788241 0.068538
C36   C     C_R   0.536894 0.171410 0.863918 -0.170632
C37   C     C_R   0.547022 0.075834 0.873247 -0.214694
C38   C     C_R   0.356801 0.086965 0.645217 -0.221943
C39   C     C_R   0.366245 0.180496 0.632009 0.119692
C40   C     C_R   0.417988 0.276296 0.698196 0.071623
C41   C     C_R   0.476093 0.276832 0.777298 0.066529
C42   C     C_R   0.412586 0.371901 0.686547 -0.127189
C43   C     C_R   0.470710 0.466664 0.749293 -0.138203
C44   C     C_R   0.535845 0.376555 0.841327 -0.195321
H13   H     H_    0.598656 0.075614 0.932603 0.119817
H14   H     H_    0.579716 0.383267 0.902800 0.092865
H15   H     H_    0.460855 0.537567 0.736987 0.090749
H16   H     H_    0.578664 0.888001 0.878639 0.145540
H17   H     H_    0.500592 0.720293 0.767922 0.096640
H18   H     H_    0.343546 0.873283 0.603974 0.089927
H19   H     H_    0.581439 0.239478 0.917424 0.123062
H20   H     H_    0.310720 0.017535 0.593074 0.125222
H21   H     H_    0.359323 0.375383 0.628743 0.158331
H22   H     H_    0.334304 0.664546 0.192364 0.159443
H23   H     H_    0.613336 0.587605 0.307123 0.156727
C45   C     C_2   0.313439 0.601619 0.318136 -0.352393
C46   C     C_2   0.475476 0.608418 0.284142 -0.126169
H24   H     H_    0.772618 0.632760 0.206080 0.129353
C47   C     C_2   0.634828 0.652750 0.182409 -0.362733
C48   C     C_2   0.472239 0.643857 0.215376 -0.140864
H25   H     H_    0.175918 0.622265 0.294750 0.125703
O11   O     O_R   0.421600 0.630430 0.917010 -0.541826
O12   O     O_R   0.793840 0.702190 0.087630 -0.542107
O13   O     O_R   0.964010 0.886170 0.088190 -0.537990
C49   C     C_R   0.631363 0.692047 0.115492 0.757773
O14   O     O_R   0.751460 0.619510 0.917500 -0.535560
O15   O     O_R   0.921330 0.802900 0.916840 -0.539535
C50   C     C_R   0.574235 0.578190 0.893773 0.677710
O16   O     O_R   0.464290 0.713700 0.088350 -0.536728
O17   O     O_3   0.609200 0.818520 0.002630 -0.374341
V3    V     V_3+5 0.884140 0.747190 0.002530 1.370809
O18   O     O_R   0.251150 0.814630 0.917340 -0.538556
C51   C     C_R   0.075266 0.835504 0.895986 0.695094
O19   O     O_R   0.293530 0.897310 0.087470 -0.540883
C52   C     C_R   0.131560 0.933715 0.116146 0.755753
V4    V     V_3+5 0.384070 0.769710 0.002370 1.369909
O20   O     O_3   0.109180 0.698190 0.002460 -0.378179
O21   O     O_3   0.645685 0.153114 0.302513 -0.564892
C53   C     C_3   0.599189 0.128014 0.368983 0.134413
H26   H     H_    0.439886 0.129985 0.369999 0.138099
H27   H     H_    0.662472 0.183895 0.429835 0.045629
C54   C     C_3   0.664997 0.019035 0.359813 -0.360693
H28   H     H_    0.820810 0.013347 0.350709 0.195590
H29   H     H_    0.647513 0.006170 0.416708 0.143744
C55   C     C_3   0.547524 0.933894 0.289021 -0.687889
H30   H     H_    0.391558 0.937556 0.297808 0.207058
H31   H     H_    0.597858 0.856923 0.286442 0.209953
H32   H     H_    0.567252 0.941937 0.230607 0.240524
C56   C     C_3   0.342304 0.171158 0.543857 -0.374076
C57   C     C_3   0.132160 0.176966 0.513072 -0.752963
H33   H     H_    0.038819 0.119760 0.524543 0.219217
H34   H     H_    0.082327 0.256671 0.543256 0.230480
H35   H     H_    0.119175 0.158837 0.446602 0.204118
H36   H     H_    0.433862 0.230573 0.534485 0.165971
H37   H     H_    0.395352 0.095002 0.504756 0.164061
C58   C     C_3   0.854280 0.778967 0.608417 -0.272095
C59   C     C_3   0.951511 0.792334 0.538309 -0.724652
H38   H     H_    0.028498 0.869082 0.556271 0.200113
H39   H     H_    0.055540 0.732417 0.512913 0.243083
H40   H     H_    0.839389 0.784780 0.487220 0.189885
H41   H     H_    0.871697 0.701336 0.609698 0.222504
H42   H     H_    0.698223 0.787428 0.596364 0.155882

loop_
_geom_bond_atom_site_label_1
_geom_bond_atom_site_label_2
_ccdc_geom_bond_type
H10   C26   S    
C34   C38   A    
C31   C32   A    
C13   C19   A    
C4    C6    S    
O2    C1    A    
C7    C8    A    
C1    O6    A    
C57   H33   S    
O14   V3    S    
C24   C26   S    
C29   C30   A    
C14   C15   A    
C17   C18   A    
C16   C17   A    
C55   H31   S    
O5    C3    A    
C18   C19   A    
C58   H42   S    
C54   H28   S    
V2    O10   S    
C5    C8    A    
C32   C33   A    
C59   H40   S    
C56   H37   S    
C31   H18   S    
O8    V2    S    
O12   V3    S    
C17   H4    S    
O1    V2    S    
C11   C15   A    
O11   V4    S    
O7    V1    S    
C43   H15   S    
C28   C44   A    
C3    C25   S    
C42   C43   A    
O13   V3    S    
C35   C36   A    
O9    C4    A    
C49   O16   A    
C38   H20   S    
O17   V3    S    
H11   C24   S    
C47   C49   S    
C1    C27   S    
O13   C52   A    
C12   C13   A    
C55   H32   S    
H23   C46   S    
C8    H5    S    
C29   C33   A    
C58   H41   S    
C27   C31   A    
C15   H1    S    
C34   C35   A    
C21   H3    S    
C56   H36   S    
C36   C37   A    
C40   C42   A    
C7    C11   A    
C45   H25   S    
C30   H17   S    
O14   C50   A    
C47   C48   D    
O17   V4    S    
C41   C44   A    
C25   O21   S    
O18   C51   A    
C38   C39   A    
C19   C22   A    
C53   H27   S    
O15   C51   A    
C6    C22   A    
O16   V4    S    
C59   H38   S    
O3    C4    A    
C25   C26   D    
C7    C58   S    
H24   C47   S    
O6    V2    S    
O19   V4    S    
O12   C49   A    
C10   C12   A    
C28   C50   S    
O2    V1    S    
C46   C48   S    
C58   C59   S    
O4    C2    A    
C56   C57   S    
C37   H13   S    
C42   H21   S    
C23   C24   D    
O1    C2    A    
C12   C16   A    
C28   C43   A    
C45   C46   D    
O5    V1    S    
C57   H34   S    
O8    C3    A    
C33   C37   A    
C23   H12   S    
C36   H19   S    
C27   C30   A    
C20   C21   A    
C23   C52   S    
O9    V2    S    
C13   C14   A    
O4    V1    S    
O3    V1    S    
V1    O10   S    
C55   H30   S    
C35   C41   A    
C18   C20   A    
C9    H6    S    
C54   H29   S    
O18   V4    S    
C40   C41   A    
C16   H8    S    
V4    O20   S    
C20   H9    S    
C32   C34   A    
C53   C54   S    
C22   H2    S    
O7    V2    S    
O21   C53   S    
C6    C21   A    
C5    C9    A    
C59   H39   S    
C57   H35   S    
O15   V3    S    
C39   C40   A    
C39   C56   S    
H22   C48   S    
C44   H14   S    
O19   C52   A    
C53   H26   S    
C10   C11   A    
O11   C50   A    
C9    C10   A    
C29   H16   S    
C5    C51   S    
V3    O20   S    
C14   H7    S    
C2    C45   S    
C54   C55   S    
