data_mof_unit_1889.cif
_audit_creation_date              2012-12-11T16:53:52-0500
_audit_creation_method            fapswitch 2.2
_symmetry_space_group_name_H-M    P1
_symmetry_Int_Tables_number       1
_space_group_crystal_system       triclinic
_cell_length_a                    14.843268
_cell_length_b                    14.749146
_cell_length_c                    16.978665
_cell_angle_alpha                 108.861285
_cell_angle_beta                  106.455985
_cell_angle_gamma                 108.001759
_cell_volume                      3026.91159176

loop_
_atom_site_label
_atom_site_type_symbol
_atom_type_description
_atom_site_fract_x
_atom_site_fract_y
_atom_site_fract_z
_atom_type_partial_charge
C1    C     C_R   0.087485 0.281721 0.070295 -0.109260
C2    C     C_R   0.064745 0.480223 0.253120 -0.149342
C3    C     C_R   0.226764 0.799504 0.187971 -0.111266
C4    C     C_R   0.936628 0.451360 0.735095 -0.088964
C5    C     C_R   0.745191 0.471986 0.054814 -0.069452
C6    C     C_R   0.244942 0.806079 0.275320 0.121084
C7    C     C_R   0.724016 0.554159 0.044820 0.078408
C8    C     C_R   0.973777 0.419584 0.255043 0.066771
C9    C     C_R   0.001237 0.811321 0.953721 0.074032
C10   C     C_R   0.518923 0.644705 0.031930 0.178397
C11   C     C_R   0.474398 0.599046 0.080034 0.047339
C12   C     C_R   0.029966 0.465834 0.726290 0.040061
C13   C     C_R   0.539983 0.585817 0.149231 -0.224930
C14   C     C_R   0.637569 0.591037 0.152316 -0.125718
C15   C     C_R   0.664297 0.604396 0.081636 -0.022013
C16   C     C_R   0.719320 0.216804 0.826308 -0.119764
C17   C     C_R   0.612100 0.646820 0.032043 0.130107
C18   C     C_3   0.575034 0.623473 0.932419 -0.489344
C19   C     C_3   0.473646 0.622484 0.933314 -0.507564
C20   C     C_R   0.966975 0.379060 0.322746 0.091755
C21   C     C_R   0.040550 0.422600 0.640244 0.124956
C22   C     C_R   0.144551 0.446904 0.555693 -0.220323
C23   C     C_R   0.660942 0.220401 0.748984 0.053348
C24   C     C_R   0.138604 0.460767 0.638429 -0.170323
C25   C     C_R   0.950379 0.355538 0.557372 -0.249051
C26   C     C_R   0.953653 0.349016 0.474301 0.075215
C27   C     C_R   0.052492 0.398867 0.475156 0.224524
C28   C     C_R   0.300900 0.593930 0.002317 -0.264242
C29   C     C_R   0.058274 0.410402 0.398710 -0.217358
C30   C     C_R   0.869488 0.318474 0.317155 -0.183791
C31   C     C_R   0.861418 0.302369 0.392136 -0.075662
C32   C     C_R   0.550769 0.145559 0.685241 0.058413
C33   C     C_R   0.286895 0.901778 0.363804 -0.010898
C34   C     C_R   0.361558 0.560035 0.051994 -0.046914
C35   C     C_R   0.360036 0.093018 0.459660 -0.377369
C36   C     C_R   0.307972 0.005603 0.371740 0.523443
C37   C     C_R   0.315063 0.889180 0.444281 -0.319725
C38   C     C_R   0.380525 0.976604 0.528918 0.197424
C39   C     C_R   0.408064 0.080882 0.537284 0.041792
C40   C     C_R   0.724820 0.310771 0.747795 -0.089153
C41   C     C_R   0.488823 0.167954 0.620501 -0.124186
C42   C     C_R   0.513193 0.042938 0.679708 -0.162933
C43   C     C_R   0.426201 0.959622 0.603298 -0.194245
C44   C     C_R   0.072637 0.124344 0.152287 0.048539
C45   C     C_R   0.219113 0.702343 0.264790 -0.173144
C46   C     C_R   0.995405 0.102424 0.069290 0.073710
C47   C     C_R   0.907750 0.001316 0.021507 -0.162726
C48   C     C_R   0.893262 0.931244 0.061870 -0.162362
C49   C     C_R   0.965824 0.960828 0.150079 0.054653
C50   C     C_R   0.058453 0.054556 0.191406 0.061778
C51   C     C_3   0.110670 0.143706 0.286939 0.462847
C52   C     C_R   0.296929 0.497114 0.077774 0.544826
C53   C     C_3   0.124186 0.219951 0.243958 -0.606151
C54   C     C_R   0.111051 0.536497 0.812945 -0.122777
C55   C     C_R   0.914377 0.197478 0.991982 -0.121015
C56   C     C_R   0.759404 0.573331 0.982481 -0.062513
C57   C     C_R   0.000274 0.185877 0.038018 0.050369
C58   C     C_2   0.815675 0.677703 0.843666 0.956305
C59   C     C_2   0.706940 0.578693 0.226398 0.997547
C60   C     C_2   0.754767 0.245875 0.383729 0.984164
C61   C     C_2   0.507983 0.279909 0.641766 0.970831
C62   C     C_3   0.364676 0.078000 0.284531 0.204121
C63   C     C_3   0.330383 0.103154 0.204104 -0.868478
C64   C     C_3   0.042453 0.089365 0.380005 0.273381
C65   C     C_3   0.120218 0.162691 0.480286 -0.918354
C66   C     C_3   0.330650 0.518862 0.223901 0.169268
C67   C     C_R   0.891865 0.395959 0.176066 -0.105430
C68   C     C_3   0.387248 0.492966 0.297221 -0.843746
C69   C     C_R   0.085119 0.800486 0.003649 -0.149683
C70   C     C_R   0.915118 0.715552 0.922561 -0.114954
H1    H     H_    0.165095 0.305415 0.119455 0.152640
H2    H     H_    0.857856 0.402482 0.681941 0.122710
H3    H     H_    0.564213 0.543746 0.886653 0.224413
H4    H     H_    0.461687 0.690225 0.925029 0.190200
H5    H     H_    0.405545 0.542632 0.888226 0.210570
H6    H     H_    0.134559 0.453053 0.402939 0.107343
H7    H     H_    0.798263 0.289837 0.257157 0.132780
H8    H     H_    0.220565 0.482750 0.556205 0.135078
H9    H     H_    0.210424 0.507963 0.700802 0.122394
H10   H     H_    0.876904 0.317263 0.559127 0.158853
H11   H     H_    0.690579 0.166120 0.856169 0.092490
H12   H     H_    0.760593 0.635991 0.963266 0.092436
H13   H     H_    0.555744 0.023991 0.730191 0.125191
H14   H     H_    0.369803 0.170347 0.464192 0.184942
H15   H     H_    0.402981 0.879831 0.598071 0.126795
H16   H     H_    0.297190 0.811499 0.441948 0.137966
H17   H     H_    0.847479 0.978986 0.955660 0.150603
H18   H     H_    0.822791 0.856711 0.026956 0.125776
H19   H     H_    0.187109 0.151295 0.330664 0.081377
H20   H     H_    0.077109 0.265295 0.250646 0.230845
H21   H     H_    0.328801 0.658671 0.985340 0.141342
H22   H     H_    0.207389 0.269253 0.262605 0.156873
H23   H     H_    0.811572 0.337715 0.147996 0.087801
H24   H     H_    0.703692 0.344836 0.702259 0.146770
H25   H     H_    0.193981 0.565550 0.832042 0.100818
H26   H     H_    0.833212 0.145897 0.970684 0.095222
H27   H     H_    0.221160 0.674060 0.315910 0.104360
H28   H     H_    0.683337 0.552598 0.740126 0.334081
H29   H     H_    0.853488 0.605959 0.301526 0.328513
H30   H     H_    0.646073 0.248268 0.432735 0.326834
H31   H     H_    0.526276 0.419566 0.732552 0.320873
H32   H     H_    0.406807 0.028274 0.270464 0.116690
H33   H     H_    0.420147 0.155366 0.346442 0.130480
H34   H     H_    0.166078 0.852858 0.025862 0.101171
H35   H     H_    0.295468 0.159416 0.219595 0.246269
H36   H     H_    0.399143 0.140764 0.192049 0.235890
H37   H     H_    0.271801 0.029175 0.140866 0.244108
H38   H     H_    0.060034 0.020632 0.351677 0.082905
H39   H     H_    0.963196 0.054997 0.377571 0.138652
H40   H     H_    0.097188 0.225582 0.510715 0.272056
H41   H     H_    0.120591 0.115644 0.519793 0.229791
H42   H     H_    0.200418 0.200858 0.485754 0.249343
H43   H     H_    0.249719 0.497209 0.217508 0.109605
H44   H     H_    0.372222 0.606520 0.247446 0.103292
H45   H     H_    0.143751 0.499997 0.296422 0.079651
H46   H     H_    0.471370 0.521931 0.311541 0.274473
H47   H     H_    0.380576 0.532415 0.361742 0.205204
H48   H     H_    0.352283 0.405450 0.273646 0.253387
H49   H     H_    0.238195 0.863105 0.168602 0.151143
H50   H     H_    0.727153 0.434673 0.097098 0.105156
H51   H     H_    0.514331 0.566247 0.197383 0.207130
H52   H     H_    0.620623 0.690992 0.922405 0.196677
N1    N     N_R   0.055640 0.348550 0.045600 -0.051115
N2    N     N_R   0.811290 0.303400 0.871650 -0.047856
N3    N     N_R   0.205180 0.552990 0.997660 -0.062055
N4    N     N_R   0.814810 0.361830 0.823710 -0.041209
N5    N     N_R   0.201660 0.494570 0.045600 -0.102606
N6    N     N_R   0.068420 0.560530 0.871650 -0.041738
N7    N     N_R   0.948050 0.295860 0.997660 -0.044527
N8    N     N_R   0.185190 0.638170 0.176290 -0.062015
N9    N     N_R   0.798340 0.505430 0.954400 -0.024016
N10   N     N_R   0.931580 0.439470 0.128350 -0.036247
N11   N     N_R   0.051950 0.704140 0.002340 -0.046687
N12   N     N_R   0.944360 0.651450 0.954400 -0.058423
N13   N     N_R   0.039170 0.492150 0.176290 -0.037446
N14   N     N_R   0.188710 0.696600 0.128350 -0.049939
N15   N     N_R   0.794820 0.447010 0.002340 -0.055300
N16   N     N_R   0.960830 0.507850 0.823710 -0.036617
Ni1   Ni    Ni4+2 0.119330 0.493420 0.109950 0.205446
Ni2   Ni    Ni4+2 0.880670 0.506580 0.890050 0.279201
Ni3   Ni    Ni4+2 0.872590 0.372590 0.000000 0.218778
Ni4   Ni    Ni4+2 0.127410 0.627410 0.000000 0.204513
O1    O     O_2   0.793559 0.741546 0.821053 -0.647203
O2    O     O_3   0.040724 0.147858 0.328377 -0.612436
O3    O     O_3   0.329391 0.459003 0.139489 -0.646520
O4    O     O_R   0.747881 0.568688 0.793668 -0.812272
O5    O     O_2   0.670761 0.535006 0.267963 -0.640144
O6    O     O_R   0.814559 0.619749 0.250526 -0.804258
O7    O     O_2   0.694602 0.158375 0.318325 -0.648843
O8    O     O_R   0.720822 0.294569 0.447016 -0.798855
O9    O     O_2   0.522347 0.316147 0.588630 -0.665337
O10   O     O_R   0.513944 0.345339 0.725590 -0.790339
O11   O     O_3   0.275644 0.022230 0.294947 -0.670177

loop_
_geom_bond_atom_site_label_1
_geom_bond_atom_site_label_2
_ccdc_geom_bond_type
C66   C68   S    
H29   O6    S    
C52   O3    S    
C66   H43   S    
C27   C29   A    
C25   H10   S    
C67   N10   A    
C41   C61   S    
C3    C6    A    
C39   C41   A    
C29   H6    S    
C20   C30   A    
C51   O2    S    
N13   Ni1   S    
C14   C59   S    
N4    Ni2   S    
C26   C27   A    
C8    C20   S    
C6    C45   A    
C37   C38   A    
C9    C69   A    
C18   C19   S    
N15   Ni3   S    
N12   Ni2   S    
C30   C31   A    
N7    Ni3   S    
C10   C17   A    
C23   C40   A    
N1    Ni1   S    
C33   C36   A    
C3    N14   A    
N6    N16   A    
C65   H41   S    
C66   O3    S    
N14   Ni4   S    
N9    Ni2   S    
C68   H48   S    
C30   H7    S    
C58   O1    D    
C62   O11   S    
C35   C36   A    
C55   N7    A    
C32   C41   A    
C48   H18   S    
C63   H35   S    
N3    Ni4   S    
C59   O6    S    
C7    C15   S    
C28   C34   A    
C26   C31   A    
C13   C14   A    
N1    N7    A    
N5    Ni1   S    
C7    C56   A    
N8    Ni1   S    
C44   C53   S    
C52   N5    A    
C44   C46   A    
C36   O11   S    
C64   H38   S    
C20   C29   A    
C11   C34   S    
N8    N14   A    
C5    H50   S    
C43   H15   S    
C37   H16   S    
C9    C70   A    
C22   H8    S    
C5    C7    A    
C58   C70   S    
H28   O4    S    
H30   O8    S    
C25   C26   A    
C54   N6    A    
C12   C21   S    
C33   C37   A    
C51   C53   S    
C47   H17   S    
C31   C60   S    
C35   C39   A    
C1    N1    A    
C65   H42   S    
C62   C63   S    
N9    N15   A    
N3    N5    A    
C1    C57   A    
C68   H47   S    
C13   H51   S    
C2    H45   S    
C24   H9    S    
C47   C48   A    
C10   C19   S    
C40   N4    A    
C53   H22   S    
C17   C18   S    
N11   Ni4   S    
C50   C51   S    
C60   O8    S    
C63   H36   S    
C5    N15   A    
C61   O9    D    
C54   H25   S    
C3    H49   S    
C68   H46   S    
C48   C49   A    
C18   H52   S    
C18   H3    S    
C22   C27   A    
C55   C57   A    
C46   C57   S    
N11   N12   A    
C22   C24   A    
N2    Ni3   S    
C4    C12   A    
C42   C43   A    
C63   H37   S    
C4    H2    S    
C28   N3    A    
N2    N4    A    
C62   H33   S    
C69   H34   S    
C44   C50   A    
N10   Ni3   S    
C15   C17   A    
C21   C25   A    
C46   C47   A    
C69   N11   A    
C66   H44   S    
C19   H4    S    
C2    C8    A    
C42   H13   S    
C40   H24   S    
C55   H26   S    
C35   H14   S    
C58   O4    S    
C56   H12   S    
N16   Ni2   S    
C16   C23   A    
C64   O2    S    
H31   O10   S    
C34   C52   A    
C2    N13   A    
C6    C33   S    
C23   C32   S    
C19   H5    S    
C16   N2    A    
C38   C43   A    
C45   H27   S    
C64   C65   S    
C11   C13   A    
C64   H39   S    
C38   C39   A    
C1    H1    S    
N10   N13   A    
C67   H23   S    
C16   H11   S    
C28   H21   S    
C60   O7    D    
C61   O10   S    
C12   C54   A    
C65   H40   S    
C56   N9    A    
C10   C11   A    
C4    N16   A    
C45   N8    A    
C8    C67   A    
C49   C50   A    
C21   C24   A    
C53   H20   S    
C70   N12   A    
C32   C42   A    
C14   C15   A    
N6    Ni4   S    
C51   H19   S    
C62   H32   S    
C59   O5    D    
