data_mof_unit_979.cif
_audit_creation_date              2012-12-11T18:11:21-0500
_audit_creation_method            fapswitch 2.2
_symmetry_space_group_name_H-M    P1
_symmetry_Int_Tables_number       1
_space_group_crystal_system       triclinic
_cell_length_a                    8.185753
_cell_length_b                    12.735032
_cell_length_c                    18.718179
_cell_angle_alpha                 99.977576
_cell_angle_beta                  90.67099
_cell_angle_gamma                 99.085737
_cell_volume                      1896.13562982

loop_
_atom_site_label
_atom_site_type_symbol
_atom_type_description
_atom_site_fract_x
_atom_site_fract_y
_atom_site_fract_z
_atom_type_partial_charge
Ba1   Ba    Ba6+2 0.852780 0.548340 0.465070 1.664110
Ba2   Ba    Ba6+2 0.337060 0.451750 0.534940 1.663236
C1    C     C_3   0.659957 0.924117 0.282482 -0.322097
C2    C     C_R   0.902551 0.384442 0.095891 -0.094156
C3    C     C_R   0.769063 0.399673 0.952421 -0.098792
C4    C     C_3   0.176117 0.806506 0.265793 0.344585
C5    C     C_R   0.932708 0.446334 0.976913 0.019344
C6    C     C_R   0.712825 0.397252 0.881797 -0.096183
C7    C     C_R   0.816121 0.442167 0.832131 -0.035558
C8    C     C_R   0.976738 0.497466 0.856128 0.001675
C9    C     C_R   0.035454 0.499569 0.928845 0.023996
C10   C     C_R   0.763995 0.432314 0.758870 0.047428
C11   C     C_R   0.875853 0.471467 0.709714 -0.244706
C12   C     C_3   0.589095 0.804583 0.267114 0.333710
C13   C     C_R   0.025502 0.539274 0.733338 0.020630
C14   C     C_R   0.077691 0.551527 0.807713 -0.031502
C15   C     C_R   0.156941 0.496581 0.071501 0.022874
C16   C     C_3   0.098688 0.788285 0.189499 -0.306171
C17   C     C_R   0.217075 0.496903 0.143777 0.010721
C18   C     C_R   0.114317 0.445776 0.192817 -0.026625
C19   C     C_R   0.961502 0.385111 0.165996 -0.030536
C20   C     C_R   0.228259 0.614625 0.835219 0.011037
C21   C     C_R   0.287242 0.615182 0.905457 -0.082364
C22   C     C_R   0.196592 0.554274 0.952651 0.004914
C23   C     C_3   0.461305 0.278555 0.314561 0.304852
C24   C     C_R   0.259904 0.549183 0.023244 0.018995
C25   C     C_R   0.425595 0.591819 0.046545 -0.097780
C26   C     C_R   0.380864 0.546916 0.166595 -0.041326
C27   C     C_R   0.484473 0.590145 0.116250 -0.106437
C28   C     C_3   0.235759 0.780890 0.613165 0.301297
C29   C     C_R   0.436268 0.552036 0.239136 -0.043230
C30   C     C_R   0.327434 0.510833 0.288459 -0.286185
C31   C     C_R   0.168543 0.455961 0.266709 0.055237
C32   C     C_R   0.768459 0.179803 0.523718 -0.282819
C33   C     C_R   0.437174 0.801997 0.460584 -0.258979
C34   C     C_3   0.438156 0.243830 0.232660 -0.401601
C35   C     C_R   0.408888 0.979773 0.438529 -0.112789
C36   C     C_R   0.345413 0.871011 0.432915 -0.051059
C37   C     C_R   0.586206 0.842900 0.500652 0.124655
C38   C     C_R   0.649641 0.956135 0.508770 -0.050600
C39   C     C_R   0.560021 0.024370 0.476115 -0.057545
C40   C     C_3   0.294909 0.902608 0.626575 -0.416747
C41   C     C_R   0.620625 0.136624 0.484455 0.034265
C42   C     C_R   0.860443 0.114112 0.553488 -0.011446
C43   C     C_R   0.799053 0.004132 0.548643 -0.086712
C44   C     C_3   0.970989 0.205500 0.375660 0.270396
C45   C     C_3   0.054965 0.233528 0.733013 0.365298
C46   C     C_3   0.036071 0.099093 0.362005 -0.348369
C47   C     C_3   0.731058 0.786119 0.704660 0.212004
C48   C     C_3   0.645444 0.830853 0.774075 -0.255916
C49   C     C_2   0.908970 0.837879 0.712754 0.412827
C50   C     C_2   0.712637 0.666154 0.695310 0.525277
C51   C     C_3   0.071024 0.207284 0.808757 -0.354125
C52   C     C_3   0.556148 0.172468 0.692424 0.343083
C53   C     C_3   0.612098 0.093987 0.735947 -0.417376
C54   C     C_R   0.994813 0.443180 0.048045 0.010592
H1    H     H_    0.512902 0.787200 0.313693 -0.053548
H2    H     H_    0.730060 0.943575 0.335476 0.120244
H3    H     H_    0.674845 0.920061 0.787068 0.084381
H4    H     H_    0.687516 0.799982 0.822056 0.115126
H5    H     H_    0.508866 0.807558 0.766722 0.139616
H6    H     H_    0.509670 0.787164 0.216636 -0.022860
H7    H     H_    0.558715 0.973091 0.285489 0.079059
H8    H     H_    0.343914 0.301099 0.336423 0.012104
H9    H     H_    0.561332 0.349742 0.326090 0.065355
H10   H     H_    0.335412 0.174455 0.219428 0.124108
H11   H     H_    0.408113 0.311507 0.207515 0.057449
H12   H     H_    0.233289 0.944724 0.672861 0.169882
H13   H     H_    0.553871 0.219601 0.209629 0.120568
H14   H     H_    0.742556 0.944784 0.238599 0.115260
H15   H     H_    0.192672 0.768707 0.149129 0.050776
H16   H     H_    0.137826 0.310843 0.731112 0.084903
H17   H     H_    0.924938 0.242932 0.722788 -0.084461
H18   H     H_    0.030736 0.271400 0.849405 0.065024
H19   H     H_    0.992478 0.128827 0.811893 0.124435
H20   H     H_    0.201851 0.202073 0.821802 0.151177
H21   H     H_    0.666823 0.210099 0.666718 -0.070189
H22   H     H_    0.467431 0.127484 0.648198 0.082060
H23   H     H_    0.429416 0.920645 0.638910 0.122195
H24   H     H_    0.693206 0.138829 0.782899 0.111949
H25   H     H_    0.682603 0.038841 0.701014 0.095989
H26   H     H_    0.215557 0.729376 0.273821 -0.030599
H27   H     H_    0.502766 0.046473 0.756508 0.138019
H28   H     H_    0.839148 0.456649 0.652710 0.068068
H29   H     H_    0.587398 0.357904 0.866589 0.098761
H30   H     H_    0.884075 0.337267 0.198742 0.097270
H31   H     H_    0.304286 0.663348 0.802585 0.113661
H32   H     H_    0.612676 0.624241 0.130131 0.094199
H33   H     H_    0.369536 0.517540 0.344301 0.069039
H34   H     H_    0.268758 0.935873 0.577575 0.100245
H35   H     H_    0.679449 0.364429 0.986722 0.071592
H36   H     H_    0.783919 0.335047 0.080635 0.058544
H37   H     H_    0.404292 0.666229 0.921667 0.066277
H38   H     H_    0.284395 0.871887 0.270088 -0.043053
H39   H     H_    0.515093 0.625262 0.011395 0.075952
H40   H     H_    0.334343 0.029383 0.416143 0.089340
H41   H     H_    0.872035 0.957936 0.575170 0.101606
H42   H     H_    0.816114 0.265088 0.528452 0.059532
H43   H     H_    0.384910 0.717585 0.456535 0.061940
H44   H     H_    0.994427 0.719588 0.182345 0.150531
H45   H     H_    0.836028 0.188796 0.381781 0.000087
H46   H     H_    0.052421 0.862184 0.179682 0.111481
H47   H     H_    0.330667 0.739045 0.584390 0.022187
H48   H     H_    0.121412 0.763438 0.578439 0.063452
H49   H     H_    0.962652 0.879427 0.670902 0.010098
H50   H     H_    0.767190 0.621649 0.649785 -0.079358
H51   H     H_    0.031909 0.253850 0.426733 0.069082
H52   H     H_    0.976999 0.047396 0.311822 0.127463
H53   H     H_    0.011238 0.057106 0.408791 0.105869
H54   H     H_    0.170742 0.114137 0.353763 0.125287
O1    O     O_2   0.873090 0.425890 0.325140 -0.464011
O2    O     O_2   0.201210 0.122772 0.550968 -0.482247
O3    O     O_3   0.100328 0.149357 0.682291 -0.595609
O4    O     O_3   0.122420 0.434370 0.414380 -0.500545
O5    O     O_3   0.578370 0.633800 0.536380 -0.480689
O6    O     O_2   0.341510 0.231850 0.465510 -0.467071
O7    O     O_3   0.503258 0.192246 0.344426 -0.652339
O8    O     O_2   0.419506 0.444636 0.759138 -0.450767
O9    O     O_3   0.475974 0.245794 0.738716 -0.604614
O10   O     O_3   0.659500 0.627100 0.368810 -0.458050
O11   O     O_2   0.780489 0.547429 0.244477 -0.481895
O12   O     O_3   0.653805 0.818674 0.646814 -0.702427
O13   O     O_3   0.999712 0.253621 0.314279 -0.642493
O14   O     O_3   0.719119 0.744272 0.257355 -0.560740
O15   O     O_2   0.848200 0.768190 0.534530 -0.505057
O16   O     O_3   0.081160 0.685950 0.404810 -0.461177
O17   O     O_2   0.013136 0.878511 0.455042 -0.483344
O18   O     O_2   0.992303 0.836702 0.767143 -0.595360
O19   O     O_2   0.634424 0.618157 0.737996 -0.607533
O20   O     O_3   0.061310 0.839473 0.316459 -0.558426
O21   O     O_2   0.316610 0.574140 0.674900 -0.423701
O22   O     O_3   0.067290 0.565720 0.585630 -0.515699
O23   O     O_3   0.530210 0.372990 0.631200 -0.456074
O24   O     O_3   0.205014 0.746062 0.679460 -0.603123
O25   O     O_3   0.611340 0.366290 0.463630 -0.476189
O26   O     O_3   0.108550 0.314140 0.595200 -0.490012
P1    P     P_3+3 0.041040 0.394770 0.336330 0.973729
P2    P     P_3+3 0.672880 0.754030 0.556100 0.946080
P3    P     P_3+3 0.128360 0.822231 0.402078 0.972487
P4    P     P_3+3 0.148670 0.605320 0.663680 0.990154
P5    P     P_3+3 0.066643 0.174615 0.594768 0.952507
P6    P     P_3+3 0.647810 0.614866 0.274977 0.979009
P7    P     P_3+3 0.522422 0.229879 0.438991 0.931722
P8    P     P_3+3 0.547852 0.376444 0.724050 1.019020

loop_
_geom_bond_atom_site_label_1
_geom_bond_atom_site_label_2
_ccdc_geom_bond_type
C23   H9    S    
C46   H54   S    
C4    H26   S    
C25   C27   A    
C25   H39   S    
C51   H18   S    
C4    O20   S    
Ba1   O22   S    
C47   C49   S    
C34   H11   S    
C42   C43   A    
C5    C9    A    
C11   H28   S    
C24   C25   A    
O26   P5    S    
O17   P3    D    
C50   O19   D    
C15   C24   A    
C26   C27   A    
O7    P7    S    
Ba1   O15   S    
C6    H29   S    
O8    P8    D    
O24   P4    S    
C34   H10   S    
C13   C14   A    
C12   H6    S    
C9    C22   A    
Ba1   Ba2   S    
C16   H46   S    
O4    P1    S    
C27   H32   S    
O21   P4    D    
C32   H42   S    
C52   C53   S    
C41   P7    S    
C29   C30   A    
C31   P1    S    
C42   P5    S    
C28   O24   S    
C28   H47   S    
Ba2   O22   S    
C21   C22   A    
C53   H25   S    
C7    C8    A    
C48   H3    S    
C45   C51   S    
C52   H21   S    
O25   P7    S    
C46   H53   S    
C37   P2    S    
C50   H50   S    
C40   H23   S    
C52   O9    S    
C2    C54   A    
C40   H12   S    
O9    P8    S    
C39   C41   A    
O14   P6    S    
C51   H19   S    
C16   H44   S    
C5    C54   A    
C33   H43   S    
O20   P3    S    
C38   C43   A    
C4    C16   S    
C44   H45   S    
C44   C46   S    
O16   P3    S    
Ba2   O23   S    
C12   O14   S    
C33   C36   A    
O10   P6    S    
Ba1   O16   S    
C45   H17   S    
C37   C38   A    
C3    C5    A    
C6    C7    A    
C4    H38   S    
Ba2   O26   S    
C10   P8    S    
C35   H40   S    
C40   H34   S    
C23   H8    S    
O2    P5    D    
C33   C37   A    
C35   C36   A    
O6    P7    D    
Ba2   O5    S    
C30   H33   S    
O5    P2    S    
C49   H49   S    
C47   C50   S    
C44   H51   S    
C1    H14   S    
Ba2   O21   S    
C32   C42   A    
C20   H31   S    
C10   C11   A    
C2    C19   A    
C17   C26   A    
C15   C54   A    
O12   P2    S    
C3    H35   S    
C1    C12   S    
C18   C31   A    
C38   C39   A    
C11   C13   A    
C44   O13   S    
C51   H20   S    
Ba1   O4    S    
C49   O18   D    
C53   H27   S    
Ba1   P1    S    
C34   H13   S    
O1    P1    D    
C13   P4    S    
C36   P3    S    
C16   H15   S    
C45   O3    S    
C12   H1    S    
C19   H30   S    
O23   P8    S    
C14   C20   A    
O11   P6    D    
C26   C29   A    
C32   C41   A    
C22   C24   A    
C23   O7    S    
C3    C6    A    
C1    H7    S    
O15   P2    D    
O22   P4    S    
O13   P1    S    
Ba2   O25   S    
Ba2   P4    S    
C30   C31   A    
C17   C18   A    
C48   H4    S    
C8    C14   A    
Ba1   O1    S    
C53   H24   S    
Ba2   O4    S    
C46   H52   S    
C29   P6    S    
C47   O12   S    
C15   C17   A    
O3    P5    S    
Ba2   O6    S    
C35   C39   A    
C7    C10   A    
C45   H16   S    
C8    C9    A    
C23   C34   S    
C1    H2    S    
C21   H37   S    
C18   C19   A    
C47   C48   S    
C28   H48   S    
C48   H5    S    
C20   C21   A    
C28   C40   S    
C43   H41   S    
Ba1   O5    S    
C2    H36   S    
Ba1   O25   S    
Ba1   O10   S    
Ba1   P2    S    
C52   H22   S    
