data_mof_unit_3100.cif
_audit_creation_date              2013-03-05T15:44:32-0500
_audit_creation_method            fapswitch 2.2
_symmetry_space_group_name_H-M    P1
_symmetry_Int_Tables_number       1
_space_group_crystal_system       triclinic
_cell_length_a                    27.799276
_cell_length_b                    10.897482
_cell_length_c                    9.719632
_cell_angle_alpha                 90.40265
_cell_angle_beta                  90.583497
_cell_angle_gamma                 90.301727
_cell_volume                      2944.21848183

loop_
_atom_site_label
_atom_site_type_symbol
_atom_site_description
_atom_site_fract_x
_atom_site_fract_y
_atom_site_fract_z
_atom_type_partial_charge
O1    O     O_R   0.500010 0.321960 0.617040 -0.602663
O2    O     O_R   0.499990 0.321920 0.382900 -0.564873
C1    C     C_R   0.497147 0.265524 0.499549 0.750370
O3    O     O_R   0.430270 0.500040 0.617060 -0.576141
O4    O     O_R   0.430260 0.500000 0.382910 -0.539869
C2    C     C_R   0.407536 0.500390 0.499423 0.813453
Cu1   Cu    Cu3+1 0.500010 0.500020 0.638630 0.964579
Cu2   Cu    Cu3+1 0.499990 0.499980 0.361370 0.956461
O5    O     O_R   0.500010 0.678080 0.617100 -0.548797
O6    O     O_R   0.499990 0.678040 0.382960 -0.582496
O7    O     O_R   0.569740 0.500000 0.617090 -0.584130
O8    O     O_R   0.569730 0.499960 0.382940 -0.583595
C3    C     C_R   0.501603 0.734586 0.500423 0.845855
C4    C     C_R   0.592486 0.498301 0.500761 0.810422
C5    C     C_R   0.178076 0.393430 0.498325 0.533014
O9    O     O_2   0.202927 0.287595 0.506639 -0.531852
N1    N     N_R   0.202130 0.502817 0.492713 -0.475989
C6    C     C_R   0.178208 0.611975 0.484695 0.545407
C7    C     C_R   0.278783 0.472462 0.615628 -0.092125
C8    C     C_R   0.328961 0.471979 0.617424 -0.206530
C9    C     C_R   0.329263 0.532747 0.377762 -0.202091
C10   C     C_R   0.279127 0.533472 0.376285 -0.112207
C11   C     C_R   0.253728 0.503050 0.495022 0.354782
C12   C     C_R   0.102021 0.501263 0.483268 -0.096343
C13   C     C_R   0.127724 0.390563 0.494492 0.001002
C14   C     C_R   0.102660 0.279618 0.505512 -0.174710
C15   C     C_R   0.127350 0.614138 0.478596 -0.061696
C16   C     C_R   0.354620 0.501531 0.498155 -0.031815
H1    H     H_    0.348148 0.557841 0.285254 0.166122
H2    H     H_    0.259940 0.557417 0.282826 0.137298
H3    H     H_    0.121459 0.193999 0.521804 0.184366
C17   C     C_R   0.645539 0.496362 0.500628 -0.126608
C18   C     C_R   0.975212 0.382024 0.452985 -0.022919
C19   C     C_R   0.974231 0.605603 0.492806 0.080125
C20   C     C_R   0.949310 0.492211 0.473593 0.022220
C21   C     C_R   0.949695 0.275255 0.406965 0.170983
C22   C     C_R   0.898741 0.274227 0.404505 -0.050600
C23   C     C_R   0.872626 0.380358 0.444078 -0.119719
C24   C     C_R   0.898266 0.489994 0.474106 -0.062620
C25   C     C_R   0.872806 0.598739 0.503850 -0.014823
C26   C     C_R   0.822553 0.596402 0.507047 0.582187
N2    N     N_R   0.798113 0.490217 0.479401 -0.449307
C27   C     C_R   0.821518 0.383563 0.448745 0.541036
C28   C     C_R   0.723152 0.433728 0.593106 -0.175348
C29   C     C_R   0.673061 0.435657 0.603123 0.210341
C30   C     C_R   0.669302 0.552922 0.390793 -0.331260
C31   C     C_R   0.719442 0.550021 0.381020 0.310996
C32   C     C_R   0.746478 0.490581 0.483596 0.275746
O10   O     O_2   0.794997 0.282017 0.422480 -0.511900
C33   C     C_R   0.026067 0.384521 0.473853 0.076393
C34   C     C_R   0.050918 0.498543 0.478481 0.056754
C35   C     C_R   0.025025 0.609477 0.481354 0.010774
C36   C     C_R   0.052780 0.277184 0.498149 -0.170646
H4    H     H_    0.744275 0.387991 0.671583 0.170280
H5    H     H_    0.035620 0.190998 0.519549 0.181690
O11   O     O_2   0.203792 0.717481 0.484881 -0.489620
C37   C     C_R   0.100977 0.724518 0.469438 0.273283
H6    H     H_    0.347616 0.447565 0.711635 0.154713
H7    H     H_    0.259318 0.449155 0.707860 0.139744
C38   C     C_R   0.947530 0.711669 0.524519 -0.212806
C39   C     C_R   0.897827 0.707972 0.530396 -0.139169
O12   O     O_2   0.798114 0.699494 0.538317 -0.524606
C40   C     C_R   0.050765 0.720957 0.472987 -0.278907
H8    H     H_    0.964241 0.798500 0.550150 0.142719
H9    H     H_    0.648791 0.599444 0.311538 0.164372
H10   H     H_    0.879035 0.791955 0.555459 0.206783
H11   H     H_    0.032602 0.807593 0.462977 0.134900
C41   C     C_2   0.498525 0.932448 0.388438 -0.101398
C42   C     C_2   0.505972 0.866670 0.502231 -0.252188
H12   H     H_    0.492482 0.888255 0.289189 0.159995
H13   H     H_    0.515132 0.910825 0.599648 0.145260
C43   C     C_2   0.501832 0.066168 0.392608 -0.190986
C44   C     C_2   0.486006 0.135222 0.498380 -0.143429
H14   H     H_    0.520505 0.108734 0.307442 0.147703
C45   C     C_2   0.476920 0.420201 0.923082 -0.055104
N3    N     N_2   0.499480 0.498660 0.846910 -0.074335
H15   H     H_    0.462067 0.338772 0.873561 0.116542
C46   C     C_2   0.470278 0.433363 0.076923 0.303378
N4    N     N_2   0.499460 0.498630 0.153040 -0.307112
H16   H     H_    0.531200 0.526050 0.110150 0.195145
N5    N     N_2   0.124238 0.840601 0.457467 -0.371391
H17   H     H_    0.108451 0.909013 0.515146 0.238831
C47   C     C_3   0.131805 0.878264 0.316902 -0.587337
H18   H     H_    0.152593 0.965548 0.316296 0.239779
H19   H     H_    0.096699 0.893088 0.263941 0.193758
H20   H     H_    0.152536 0.807625 0.260057 0.241945
N6    N     N_2   0.742638 0.608859 0.269345 -0.405141
H21   H     H_    0.724641 0.685124 0.233891 0.258742
C48   C     C_3   0.755775 0.527030 0.158285 -0.661137
H22   H     H_    0.775230 0.579473 0.078435 0.231800
H23   H     H_    0.723014 0.485052 0.110775 0.223077
H24   H     H_    0.779878 0.453523 0.196108 0.246200
C49   C     C_2   0.452815 0.090285 0.606862 0.369031
H25   H     H_    0.451971 0.136216 0.706232 0.060547
O13   O     O_2   0.424239 0.006941 0.583955 -0.509980
N7    N     N_2   0.504641 0.617541 0.896590 -0.299712
H26   H     H_    0.481495 0.649152 0.971081 0.235814
C50   C     C_3   0.553303 0.665761 0.895725 -0.574412
H27   H     H_    0.554475 0.756097 0.949242 0.180172
H28   H     H_    0.565760 0.679125 0.789130 0.249450
H29   H     H_    0.578549 0.602297 0.947962 0.178719
N8    N     N_2   0.433110 0.365161 0.141186 -0.362293
H30   H     H_    0.442632 0.275430 0.159691 0.249787
C51   C     C_3   0.385768 0.375877 0.079326 -0.700983
H31   H     H_    0.358702 0.335155 0.148982 0.244038
H32   H     H_    0.384026 0.325998 0.979323 0.207640
H33   H     H_    0.376641 0.473925 0.063207 0.229037
N9    N     N_2   0.651752 0.373201 0.715290 -0.432353
H34   H     H_    0.628563 0.424660 0.773787 0.272117
C52   C     C_3   0.634561 0.250688 0.683481 -0.629053
H35   H     H_    0.621458 0.206618 0.778788 0.216881
H36   H     H_    0.664198 0.194148 0.641320 0.245472
H37   H     H_    0.604475 0.253805 0.607528 0.214000
C53   C     C_2   0.873922 0.163210 0.350777 0.504938
H38   H     H_    0.871725 0.146788 0.240681 0.039287
O14   O     O_2   0.857203 0.087986 0.429876 -0.499552
N10   N     N_2   0.975057 0.178897 0.338713 -0.442496
H39   H     H_    0.972657 0.181430 0.232837 0.250112
C54   C     C_3   0.972224 0.056256 0.395616 -0.709293
H40   H     H_    0.008264 0.013322 0.390941 0.217589
H41   H     H_    0.946965 0.998259 0.333953 0.237824
H42   H     H_    0.960579 0.058361 0.504734 0.244687

loop_
_geom_bond_atom_site_label_1
_geom_bond_atom_site_label_2
_geom_bond_distance
_ccdc_geom_bond_type
N6    H21   1.031841 S    
C49   H25   1.085231 S    
C46   N8    1.421869 S    
C17   C29   1.419347 A    
C20   C24   1.419130 A    
C7    C8    1.394862 A    
C12   C15   1.415344 A    
C44   C49   1.491713 S    
C51   H32   1.110817 S    
C53   H38   1.084774 S    
Cu1   Cu2   2.694857 S    
Cu1   O7    1.951834 S    
N1    C11   1.434323 S    
C21   C22   1.416427 A    
N10   C54   1.452048 S    
C23   C24   1.415126 A    
O7    C4    1.301149 A    
C5    C13   1.400038 A    
C5    O9    1.350006 S    
C18   C21   1.426384 A    
N9    H34   1.029599 S    
Cu1   O5    1.953120 S    
C19   C20   1.423668 A    
C26   N2    1.362507 A    
C42   H13   1.086428 S    
O5    C3    1.295288 A    
C52   H35   1.110287 S    
C39   H10   1.083672 S    
C2    C16   1.471071 S    
C47   H18   1.110434 S    
C41   C42   1.337167 D    
N7    C50   1.448773 S    
Cu2   N4    2.024744 S    
C37   C40   1.396971 A    
C48   H23   1.111755 S    
C29   N9    1.421995 S    
C6    O11   1.348741 S    
C12   C34   1.421058 A    
C54   H41   1.110483 S    
C14   H3    1.083637 S    
C49   O13   1.221277 D    
C9    C10   1.393734 A    
C19   C38   1.410897 A    
C26   O12   1.350364 S    
O3    Cu1   1.947905 S    
C51   H31   1.110192 S    
N5    C47   1.446431 S    
C33   C34   1.418719 A    
C36   H5    1.073773 S    
C40   H11   1.077540 S    
C33   C36   1.408868 A    
C34   C35   1.410479 A    
C12   C13   1.409641 A    
C30   H9    1.084025 S    
C43   H14   1.086939 S    
C15   C37   1.414842 A    
C24   C25   1.413172 A    
C46   N4    1.298313 D    
C27   O10   1.347922 S    
C22   C53   1.478969 S    
C8    C16   1.405718 A    
C7    H7    1.082858 S    
C18   C33   1.426248 A    
C9    H1    1.081868 S    
O6    C3    1.293821 A    
N5    H17   1.032111 S    
C25   C39   1.396669 A    
C41   C43   1.459885 S    
O1    C1    1.294772 A    
C31   N6    1.422954 S    
C7    C11   1.400624 A    
C45   N3    1.298157 D    
C22   C23   1.421583 A    
C31   C32   1.406194 A    
Cu2   O8    1.947899 S    
N7    H26   1.032089 S    
N1    C6    1.368183 A    
N2    C32   1.436435 S    
C48   H24   1.109307 S    
N8    C51   1.446961 S    
C21   N10   1.430837 S    
C45   H15   1.084284 S    
C52   H37   1.110743 S    
O3    C2    1.300822 A    
C25   C26   1.397747 A    
C47   H19   1.111814 S    
C9    C16   1.404728 A    
O8    C4    1.302914 A    
C50   H28   1.106100 S    
N6    C48   1.446267 S    
C37   N5    1.423689 S    
N2    C27   1.367497 A    
C8    H6    1.083260 S    
C14   C36   1.387841 A    
C28   C29   1.397123 A    
C54   H42   1.112156 S    
C5    N1    1.365403 A    
C30   C31   1.398581 A    
C10   H2    1.082898 S    
O1    Cu1   1.950253 S    
C17   C30   1.405436 A    
Cu2   O6    1.950253 S    
O2    Cu2   1.953120 S    
C6    C15   1.414787 A    
C4    C17   1.475119 S    
C43   C44   1.348549 D    
C35   C40   1.409942 A    
O4    Cu2   1.951836 S    
C53   O14   1.221147 D    
C54   H40   1.109185 S    
Cu1   N3    2.024765 S    
C50   H29   1.109705 S    
C19   C35   1.417977 A    
C38   H8    1.078403 S    
O2    C1    1.296348 A    
C13   C14   1.397549 A    
C23   C27   1.422545 A    
N10   H39   1.031129 S    
N3    N7    1.385617 S    
O4    C2    1.302333 A    
C3    C42   1.443829 S    
C18   C20   1.417427 A    
N9    C52   1.445983 S    
N8    H30   1.030938 S    
C1    C44   1.451691 S    
C45   C46   1.514400 S    
C52   H36   1.111311 S    
N4    H16   1.023757 S    
C28   H4    1.083679 S    
C47   H20   1.111366 S    
C41   H12   1.086294 S    
C50   H27   1.110349 S    
C10   C11   1.399948 A    
C38   C39   1.383850 A    
C48   H22   1.110411 S    
C51   H33   1.111284 S    
C28   C32   1.398706 A    
