data_mof_unit_4513.cif
_audit_creation_date              2013-03-05T16:12:46-0500
_audit_creation_method            fapswitch 2.2
_symmetry_space_group_name_H-M    P1
_symmetry_Int_Tables_number       1
_space_group_crystal_system       triclinic
_cell_length_a                    10.718214
_cell_length_b                    9.818717
_cell_length_c                    27.736825
_cell_angle_alpha                 90.00475
_cell_angle_beta                  89.622996
_cell_angle_gamma                 90.008457
_cell_volume                      2918.93554585

loop_
_atom_site_label
_atom_site_type_symbol
_atom_site_description
_atom_site_fract_x
_atom_site_fract_y
_atom_site_fract_z
_atom_type_partial_charge
O1    O     O_R   0.316770 0.614620 0.500000 -0.626281
O2    O     O_R   0.683230 0.385380 0.500000 -0.626372
O3    O     O_R   0.683230 0.614620 0.500000 -0.627459
O4    O     O_R   0.316770 0.385380 0.500000 -0.627560
C1    C     C_R   0.259804 0.499992 0.499989 0.877486
C2    C     C_R   0.740196 0.500008 0.500011 0.877478
O5    O     O_R   0.500030 0.614650 0.428760 -0.626005
O6    O     O_R   0.499970 0.385350 0.571240 -0.622088
O7    O     O_R   0.499970 0.614650 0.571240 -0.623900
O8    O     O_R   0.500030 0.385350 0.428760 -0.619982
C3    C     C_R   0.500564 0.499937 0.405954 0.886378
C4    C     C_R   0.499459 0.499945 0.594048 0.886403
Zn1   Zn    Zn3+2 0.500000 0.653120 0.500000 0.954789
Zn2   Zn    Zn3+2 0.500000 0.346880 0.500000 0.955599
C5    C     C_R   0.394605 0.517639 0.178565 0.555355
C6    C     C_R   0.606416 0.517584 0.821436 0.555590
O9    O     O_2   0.289436 0.527603 0.205327 -0.533974
O10   O     O_2   0.711584 0.527488 0.794669 -0.533744
N1    N     N_R   0.505846 0.501646 0.201332 -0.345328
N2    N     N_R   0.495154 0.501651 0.798675 -0.345321
C7    C     C_R   0.615871 0.489233 0.176894 0.594812
C8    C     C_R   0.385134 0.489263 0.823119 0.594504
C9    C     C_R   0.501064 0.372699 0.277847 0.029880
C10   C     C_R   0.498776 0.372700 0.722146 0.030077
C11   C     C_R   0.499542 0.375273 0.328174 -0.304983
C12   C     C_R   0.499914 0.375266 0.671820 -0.306687
C13   C     C_R   0.508412 0.622326 0.327731 -0.202578
C14   C     C_R   0.492940 0.622384 0.672283 -0.200914
C15   C     C_R   0.510561 0.621264 0.277744 -0.129217
C16   C     C_R   0.491142 0.621333 0.722270 -0.129241
C17   C     C_R   0.506800 0.497803 0.252699 0.309798
C18   C     C_R   0.494148 0.497839 0.747306 0.309687
C19   C     C_R   0.502737 0.501178 0.101727 -0.075400
C20   C     C_R   0.498301 0.501146 0.898279 -0.075412
C21   C     C_R   0.390150 0.522269 0.127896 -0.055071
C22   C     C_R   0.610890 0.522210 0.872106 -0.055184
C23   C     C_R   0.278211 0.546959 0.102431 0.009567
C24   C     C_R   0.722846 0.546873 0.897570 0.009546
C25   C     C_R   0.616506 0.478498 0.126347 -0.024039
C26   C     C_R   0.384518 0.478489 0.873662 -0.023907
C27   C     C_R   0.502710 0.499363 0.353254 -0.029774
C28   C     C_R   0.497524 0.499383 0.646748 -0.029821
H1    H     H_    0.511136 0.719291 0.346317 0.162191
H2    H     H_    0.490854 0.719379 0.653706 0.162333
H3    H     H_    0.514495 0.716700 0.258211 0.147603
H4    H     H_    0.488022 0.716798 0.741808 0.147609
C29   C     C_R   0.386031 0.495571 0.975362 0.063932
C30   C     C_R   0.615016 0.495570 0.024644 0.063928
C31   C     C_R   0.613893 0.511764 0.974012 0.050373
C32   C     C_R   0.387161 0.511794 0.025994 0.050377
C33   C     C_R   0.499426 0.502894 0.949252 0.075159
C34   C     C_R   0.501622 0.502917 0.050754 0.075165
C35   C     C_R   0.275655 0.464923 0.950513 -0.294510
C36   C     C_R   0.725379 0.464930 0.049495 -0.294460
C37   C     C_R   0.274859 0.448693 0.900621 -0.009394
C38   C     C_R   0.726162 0.448706 0.099387 -0.009448
O11   O     O_2   0.277452 0.491532 0.798258 -0.505823
O12   O     O_2   0.723536 0.491425 0.201765 -0.505663
C39   C     C_R   0.277479 0.538809 0.052373 -0.253555
C40   C     C_R   0.723584 0.538738 0.947629 -0.253513
H5    H     H_    0.503588 0.279899 0.652160 0.154217
H6    H     H_    0.494999 0.279945 0.347826 0.154343
H7    H     H_    0.190678 0.441224 0.970025 0.131971
H8    H     H_    0.810353 0.441231 0.029985 0.131965
H9    H     H_    0.190629 0.560527 0.034245 0.139128
H10   H     H_    0.810447 0.560441 0.965754 0.139108
C41   C     C_R   0.063730 0.378213 0.508728 -0.182625
C42   C     C_R   0.936270 0.621783 0.491271 -0.182835
C43   C     C_R   0.935933 0.378236 0.508765 -0.181209
C44   C     C_R   0.064066 0.621760 0.491233 -0.181295
H11   H     H_    0.112256 0.283564 0.515813 0.159516
H12   H     H_    0.887744 0.716431 0.484185 0.159420
H13   H     H_    0.887134 0.283606 0.515886 0.155661
H14   H     H_    0.112865 0.716391 0.484113 0.155732
C45   C     C_R   0.872602 0.500016 0.500025 -0.015598
C46   C     C_R   0.127398 0.499981 0.499974 -0.015745
C47   C     C_R   0.576837 0.072052 0.530056 -0.073822
C48   C     C_R   0.423158 0.927951 0.469946 -0.073561
C49   C     C_R   0.423166 0.072008 0.469943 -0.073881
C50   C     C_R   0.576839 0.927995 0.530054 -0.073617
H15   H     H_    0.638195 0.126824 0.554054 0.126722
H16   H     H_    0.361789 0.873182 0.445953 0.127677
H17   H     H_    0.361820 0.126745 0.445942 0.129849
H18   H     H_    0.638196 0.873260 0.554052 0.130821
N3    N     N_R   0.500000 0.857200 0.500000 -0.081263
N4    N     N_R   0.500000 0.142800 0.500000 -0.081108
C51   C     C_1   0.162638 0.586391 0.125788 0.265450
N5    N     N_1   0.070309 0.618753 0.144387 -0.148585
C52   C     C_1   0.838429 0.586276 0.874210 0.265420
N6    N     N_1   0.930767 0.618616 0.855608 -0.148431
C53   C     C_2   0.503701 0.237917 0.746451 0.457929
H19   H     H_    0.502726 0.145573 0.724919 0.048455
O13   O     O_2   0.509814 0.227128 0.790204 -0.547312
C54   C     C_2   0.495329 0.237961 0.253529 0.457923
H20   H     H_    0.494512 0.145642 0.275073 0.048415
O14   O     O_2   0.490702 0.227184 0.209747 -0.547300
C55   C     C_2   0.160230 0.388139 0.879918 0.545531
H21   H     H_    0.070057 0.411361 0.895906 0.023060
O15   O     O_2   0.165930 0.303186 0.847831 -0.488981
C56   C     C_2   0.840778 0.388166 0.120089 0.545525
H22   H     H_    0.930962 0.411438 0.104114 0.023045
O16   O     O_2   0.835059 0.303172 0.152158 -0.488728

loop_
_geom_bond_atom_site_label_1
_geom_bond_atom_site_label_2
_geom_bond_distance
_ccdc_geom_bond_type
C49   H17   1.081807 S    
C51   N5    1.157490 T    
C13   C15   1.386559 A    
C50   H18   1.081794 S    
O3    C2    1.280397 A    
N1    C17   1.425386 S    
C8    O11   1.348538 S    
C55   H21   1.084977 S    
C2    C45   1.419156 S    
C19   C34   1.414060 A    
C30   C36   1.405602 A    
C24   C52   1.446914 S    
C20   C33   1.414057 A    
C19   C25   1.419115 A    
C31   C40   1.405878 A    
O1    C1    1.280377 A    
C32   C39   1.405860 A    
N1    C7    1.361800 A    
C12   H5    1.084134 S    
C10   C12   1.396100 A    
C30   C34   1.412530 A    
C14   C28   1.400726 A    
O7    Zn1   2.011777 S    
C4    C28   1.461761 S    
C5    N1    1.361977 A    
C13   C27   1.400751 A    
C31   C33   1.412629 A    
C44   H14   1.083704 S    
C32   C34   1.412613 A    
C43   H13   1.083705 S    
C20   C22   1.419321 A    
O3    Zn1   2.000004 S    
C6    N2    1.361983 A    
C29   C35   1.405611 A    
C40   H10   1.082138 S    
O2    C2    1.280368 A    
C5    C21   1.407255 A    
C55   O15   1.220976 D    
C23   C51   1.446933 S    
C29   C32   1.413482 A    
C35   C37   1.393059 A    
C36   C38   1.393089 A    
Zn2   N4    2.003804 S    
O8    Zn2   2.011782 S    
C11   C27   1.403474 A    
C53   H19   1.085760 S    
C48   C49   1.414459 A    
C29   C33   1.412528 A    
C14   H2    1.083153 S    
C15   H3    1.083113 S    
C42   H12   1.083659 S    
C42   C45   1.397035 A    
C9    C17   1.413775 A    
O5    C3    1.291757 A    
C10   C18   1.413714 A    
C50   N3    1.365700 A    
C53   O13   1.220380 D    
C48   H16   1.081822 S    
C25   C38   1.419366 A    
C7    C25   1.405945 A    
C47   H15   1.081835 S    
O6    C4    1.290771 A    
C26   C37   1.419349 A    
C8    C26   1.405874 A    
C37   C55   1.483835 S    
C56   O16   1.220966 D    
C54   O14   1.220291 D    
C23   C39   1.390827 A    
C24   C40   1.390857 A    
C48   N3    1.365688 A    
C6    O10   1.349165 S    
C30   C31   1.413512 A    
N2    C8    1.361796 A    
C47   N4    1.365674 A    
C44   C46   1.397046 A    
C20   C26   1.419098 A    
O1    Zn1   1.999894 S    
C38   C56   1.483830 S    
C10   C53   1.486359 S    
C12   C28   1.403493 A    
N2    C18   1.425419 S    
C47   C50   1.414460 A    
C5    O9    1.349145 S    
O6    Zn2   2.011715 S    
C21   C23   1.417190 A    
C16   H4    1.083097 S    
O4    C1    1.280391 A    
C9    C54   1.486379 S    
C1    C46   1.419158 S    
C22   C24   1.417199 A    
C7    O12   1.348502 S    
C15   C17   1.397813 A    
C6    C22   1.407271 A    
C16   C18   1.397844 A    
C35   H7    1.081695 S    
C36   H8    1.081682 S    
C14   C16   1.386549 A    
C56   H22   1.084989 S    
C19   C21   1.419330 A    
C43   C45   1.397050 A    
C41   H11   1.083658 S    
C11   H6    1.084116 S    
C9    C11   1.396109 A    
O4    Zn2   2.000004 S    
C54   H20   1.085747 S    
O2    Zn2   1.999894 S    
O7    C4    1.291803 A    
O8    C3    1.290778 A    
C13   H1    1.083119 S    
O5    Zn1   2.011721 S    
C42   C44   1.369742 A    
C3    C27   1.461771 S    
Zn1   N3    2.003804 S    
C41   C46   1.397039 A    
C41   C43   1.369746 A    
C52   N6    1.157484 T    
C49   N4    1.365692 A    
C39   H9    1.082142 S    
