data_mof_unit_2308.cif
_audit_creation_date              2012-12-10T16:33:53-0500
_audit_creation_method            fapswitch 2.2
_symmetry_space_group_name_H-M    P1
_symmetry_Int_Tables_number       1
_space_group_crystal_system       triclinic
_cell_length_a                    28.148721
_cell_length_b                    18.421498
_cell_length_c                    17.060249
_cell_angle_alpha                 89.807285
_cell_angle_beta                  60.80719
_cell_angle_gamma                 89.956616
_cell_volume                      7722.75447747

loop_
_atom_site_label
_atom_site_type_symbol
_atom_type_description
_atom_site_fract_x
_atom_site_fract_y
_atom_site_fract_z
_atom_type_partial_charge
C1    C     C_R   0.700295 0.264732 0.676748 0.917731
C2    C     C_R   0.298635 0.733154 0.323288 0.922824
C3    C     C_R   0.300142 0.263900 0.323333 0.932998
C4    C     C_R   0.699315 0.737384 0.676750 0.943171
C5    C     C_R   0.199543 0.763223 0.676722 0.927542
C6    C     C_R   0.798101 0.231990 0.323557 0.956463
C7    C     C_R   0.799652 0.764858 0.323302 0.924930
C8    C     C_R   0.199494 0.237007 0.676826 0.906690
C9    C     C_R   0.078790 0.371278 0.422810 0.595913
C10   C     C_R   0.931678 0.604014 0.548640 0.615069
C11   C     C_R   0.984071 0.377053 0.383684 0.617412
C12   C     C_R   0.049531 0.625705 0.482947 0.620620
C13   C     C_R   0.515402 0.875983 0.619213 0.616249
C14   C     C_R   0.445910 0.126130 0.528104 0.620154
C15   C     C_R   0.420671 0.870104 0.579805 0.597841
C16   C     C_R   0.564430 0.106509 0.460157 0.615059
C17   C     C_R   0.717173 0.260168 0.957424 -0.095637
C18   C     C_R   0.278735 0.727231 0.042114 -0.143135
C19   C     C_R   0.279676 0.261765 0.046286 -0.112613
C20   C     C_R   0.717571 0.743490 0.954813 -0.116535
C21   C     C_R   0.217385 0.755874 0.954348 -0.110619
C22   C     C_R   0.780185 0.228092 0.040613 -0.128439
C23   C     C_R   0.778019 0.767533 0.045976 -0.106019
C24   C     C_R   0.219315 0.239255 0.954414 -0.124520
C25   C     C_R   0.757728 0.308490 0.950115 -0.382084
C26   C     C_R   0.232350 0.685631 0.061675 -0.370156
C27   C     C_R   0.224053 0.279386 0.086810 -0.354826
C28   C     C_R   0.773220 0.725923 0.914115 -0.348318
C29   C     C_R   0.263636 0.797618 0.935133 -0.358572
C30   C     C_R   0.739081 0.180269 0.049135 -0.362165
C31   C     C_R   0.722805 0.787049 0.085361 -0.358273
C32   C     C_R   0.275296 0.223464 0.912782 -0.354029
C33   C     C_R   0.789238 0.292498 0.990997 0.668777
C34   C     C_R   0.201820 0.699800 0.018280 0.661526
C35   C     C_R   0.193858 0.266661 0.042545 0.658319
C36   C     C_R   0.803169 0.737630 0.959103 0.665108
C37   C     C_R   0.294254 0.783281 0.978212 0.692784
C38   C     C_R   0.707506 0.196321 0.008353 0.657007
C39   C     C_R   0.692490 0.773462 0.041558 0.636711
C40   C     C_R   0.305197 0.234478 0.958059 0.663220
C41   C     C_R   0.644891 0.326881 0.944023 -0.296679
C42   C     C_R   0.353300 0.668039 0.056032 -0.254737
C43   C     C_R   0.352486 0.329689 0.058996 -0.248692
C44   C     C_R   0.645427 0.674196 0.942242 -0.251721
C45   C     C_R   0.145992 0.826473 0.941823 -0.293573
C46   C     C_R   0.854923 0.169919 0.054213 -0.281586
C47   C     C_R   0.852178 0.831667 0.058464 -0.244888
C48   C     C_R   0.146608 0.171839 0.941428 -0.245780
C49   C     C_R   0.616561 0.345699 0.897976 -0.210640
C50   C     C_R   0.382381 0.652451 0.101781 -0.211264
C51   C     C_R   0.382091 0.347480 0.103462 -0.221280
C52   C     C_R   0.616538 0.654855 0.897205 -0.236618
C53   C     C_R   0.117167 0.846273 0.896756 -0.213148
C54   C     C_R   0.883203 0.153497 0.100941 -0.215174
C55   C     C_R   0.881982 0.847870 0.103008 -0.221009
C56   C     C_R   0.117083 0.153969 0.896985 -0.221989
C57   C     C_R   0.630372 0.315319 0.815916 0.557509
C58   C     C_R   0.367966 0.683291 0.183596 0.542528
C59   C     C_R   0.369149 0.316624 0.184948 0.545800
C60   C     C_R   0.629313 0.685894 0.815635 0.581382
C61   C     C_R   0.130224 0.816112 0.814851 0.555724
C62   C     C_R   0.867975 0.183507 0.183466 0.563741
C63   C     C_R   0.868745 0.816527 0.184320 0.547618
C64   C     C_R   0.129645 0.185655 0.815904 0.556165
C65   C     C_R   0.676058 0.272029 0.774128 -0.258195
C66   C     C_R   0.320625 0.723171 0.226485 -0.233129
C67   C     C_R   0.324756 0.271456 0.225999 -0.247064
C68   C     C_R   0.673286 0.732198 0.774802 -0.241468
C69   C     C_R   0.173971 0.769589 0.774347 -0.253502
C70   C     C_R   0.819551 0.221219 0.227215 -0.238676
C71   C     C_R   0.823122 0.773539 0.226236 -0.248808
C72   C     C_R   0.173976 0.231252 0.774885 -0.255952
C73   C     C_R   0.702157 0.245685 0.823328 0.094341
C74   C     C_R   0.292088 0.744893 0.178609 0.084004
C75   C     C_R   0.299645 0.243297 0.176584 0.092880
C76   C     C_R   0.696849 0.762366 0.825708 0.094931
C77   C     C_R   0.197758 0.739447 0.824831 0.108663
C78   C     C_R   0.789928 0.240643 0.180342 0.094357
C79   C     C_R   0.796195 0.748542 0.177931 0.065605
C80   C     C_R   0.198401 0.260053 0.825323 0.086070
C81   C     C_R   0.686776 0.275914 0.908468 0.167768
C82   C     C_R   0.308814 0.714673 0.092738 0.147479
C83   C     C_R   0.311339 0.277037 0.094180 0.149568
C84   C     C_R   0.685651 0.728022 0.907562 0.173874
C85   C     C_R   0.185800 0.772298 0.907322 0.172860
C86   C     C_R   0.809264 0.214294 0.092124 0.152822
C87   C     C_R   0.809499 0.781463 0.094450 0.141243
C88   C     C_R   0.187391 0.224898 0.906742 0.173173
C89   C     C_R   0.694571 0.126962 0.524515 0.927358
C90   C     C_R   0.304034 0.872037 0.481252 0.925227
C91   C     C_R   0.305784 0.128393 0.477148 0.875094
C92   C     C_R   0.690155 0.869018 0.541177 0.888718
C93   C     C_R   0.193728 0.628451 0.524387 0.864321
C94   C     C_R   0.809785 0.369279 0.458921 0.907423
C95   C     C_R   0.805569 0.627098 0.475092 0.921715
C96   C     C_R   0.195969 0.372079 0.518880 0.923805
C97   C     C_R   0.075255 0.098637 0.932602 0.954504
C98   C     C_R   0.924802 0.901473 0.067186 0.958034
C99   C     C_R   0.925947 0.099928 0.065928 0.956716
C100  C     C_R   0.075368 0.901547 0.932574 0.953233
C101  C     C_R   0.575154 0.598822 0.932659 0.956140
C102  C     C_R   0.424546 0.401739 0.067493 0.954480
C103  C     C_R   0.425386 0.599235 0.066462 0.958199
C104  C     C_R   0.574746 0.400818 0.933227 0.954047
C105  C     C_R   0.538492 0.991754 0.540744 -0.112855
C106  C     C_R   0.440430 0.995907 0.535774 -0.124714
C107  C     C_R   0.057122 0.495793 0.471130 -0.123268
C108  C     C_R   0.959390 0.490992 0.465324 -0.110431
C109  C     C_R   0.524263 0.053895 0.508494 -0.061333
C110  C     C_R   0.455152 0.930821 0.563193 -0.067835
C111  C     C_R   0.471523 0.059182 0.520340 -0.064624
C112  C     C_R   0.502502 0.931229 0.574375 -0.087532
C113  C     C_R   0.024954 0.558292 0.488991 -0.064670
C114  C     C_R   0.996065 0.431377 0.430415 -0.091147
C115  C     C_R   0.972460 0.552324 0.500088 -0.067228
C116  C     C_R   0.043331 0.431171 0.441738 -0.069982
C117  C     C_R   0.603284 0.931433 0.574998 -0.135044
C118  C     C_R   0.374362 0.065689 0.511450 -0.127464
C119  C     C_R   0.365403 0.935904 0.528132 -0.127459
C120  C     C_R   0.623488 0.052527 0.510804 -0.143331
C121  C     C_R   0.133643 0.436742 0.475028 -0.130078
C122  C     C_R   0.874972 0.551838 0.492641 -0.140985
C123  C     C_R   0.896069 0.431578 0.427484 -0.147743
C124  C     C_R   0.122981 0.566026 0.495260 -0.124681
C125  C     C_R   0.654264 0.932444 0.571443 -0.077946
C126  C     C_R   0.335439 0.064694 0.479277 -0.096722
C127  C     C_R   0.330808 0.936839 0.487834 -0.066034
C128  C     C_R   0.665086 0.058818 0.535637 -0.079481
C129  C     C_R   0.168763 0.437119 0.514209 -0.064251
C130  C     C_R   0.834963 0.559047 0.464432 -0.107844
C131  C     C_R   0.845602 0.432909 0.429414 -0.042602
C132  C     C_R   0.163171 0.564851 0.524869 -0.099400
C133  C     C_R   0.675801 0.998743 0.576308 0.080769
C134  C     C_R   0.325532 0.000284 0.448205 0.071253
C135  C     C_R   0.174337 0.500061 0.554110 0.066431
C136  C     C_R   0.825424 0.499764 0.421751 0.091175
C137  C     C_R   0.588067 0.992062 0.542841 -0.099122
C138  C     C_R   0.394470 0.998795 0.522584 -0.097827
C139  C     C_R   0.103444 0.499077 0.483264 -0.098494
C140  C     C_R   0.910463 0.491556 0.461375 -0.101423
C141  C     C_R   0.125703 0.377163 0.430557 0.519913
C142  C     C_R   0.882634 0.602308 0.547457 0.535899
C143  C     C_R   0.933670 0.375309 0.386522 0.540462
C144  C     C_R   0.100828 0.628825 0.475685 0.540227
C145  C     C_R   0.566068 0.874463 0.615511 0.539645
C146  C     C_R   0.394945 0.128373 0.533781 0.539786
C147  C     C_R   0.374027 0.875449 0.571055 0.521611
C148  C     C_R   0.614403 0.104022 0.458150 0.531031
H1    H     H_    0.765526 0.358021 0.911313 0.205788
H2    H     H_    0.219470 0.642764 0.111514 0.210020
H3    H     H_    0.203868 0.303084 0.153241 0.230492
H4    H     H_    0.793319 0.702177 0.847681 0.230423
H5    H     H_    0.276112 0.841198 0.886249 0.216543
H6    H     H_    0.730817 0.131256 0.088981 0.211791
H7    H     H_    0.703032 0.812876 0.150527 0.205601
H8    H     H_    0.295747 0.201739 0.845299 0.217216
H9    H     H_    0.634532 0.351899 0.007812 0.200446
H10   H     H_    0.364745 0.643106 0.991760 0.202149
H11   H     H_    0.361502 0.356586 0.996641 0.205039
H12   H     H_    0.636850 0.647237 0.004357 0.201020
H13   H     H_    0.137207 0.852586 0.004308 0.197942
H14   H     H_    0.867642 0.146923 0.988505 0.197478
H15   H     H_    0.861963 0.858320 0.995620 0.205085
H16   H     H_    0.138056 0.144299 0.003201 0.204951
O1    O     O_R   0.746490 0.236330 0.638080 -0.652143
O2    O     O_R   0.253510 0.763670 0.361920 -0.629727
O3    O     O_R   0.253510 0.236330 0.361920 -0.596875
O4    O     O_R   0.746490 0.763670 0.638080 -0.634454
O5    O     O_R   0.246490 0.736330 0.638080 -0.597843
O6    O     O_R   0.753510 0.263670 0.361920 -0.644489
O7    O     O_R   0.753510 0.736330 0.361920 -0.649762
O8    O     O_R   0.246490 0.263670 0.638080 -0.621864
O9    O     O_R   0.674170 0.186160 0.516270 -0.560198
O10   O     O_R   0.325830 0.813840 0.483730 -0.564039
O11   O     O_R   0.325830 0.186160 0.483730 -0.548325
O12   O     O_R   0.674170 0.813840 0.516270 -0.582933
O13   O     O_R   0.174170 0.686160 0.516270 -0.547088
O14   O     O_R   0.825830 0.313840 0.483730 -0.587399
O15   O     O_R   0.825830 0.686160 0.483730 -0.552426
O16   O     O_R   0.174170 0.313840 0.516270 -0.568560
O17   O     O_R   0.739960 0.127620 0.525000 -0.655619
O18   O     O_R   0.260040 0.872380 0.475000 -0.650325
O19   O     O_R   0.260040 0.127620 0.475000 -0.651203
O20   O     O_R   0.739960 0.872380 0.525000 -0.658004
O21   O     O_R   0.239960 0.627620 0.525000 -0.654602
O22   O     O_R   0.760040 0.372380 0.475000 -0.647571
O23   O     O_R   0.760040 0.627620 0.475000 -0.658931
O24   O     O_R   0.239960 0.372380 0.525000 -0.654535
O25   O     O_R   0.680700 0.294870 0.629350 -0.535413
O26   O     O_R   0.319300 0.705130 0.370650 -0.544703
O27   O     O_R   0.319300 0.294870 0.370650 -0.548373
O28   O     O_R   0.680700 0.705130 0.629350 -0.517587
O29   O     O_R   0.180700 0.794870 0.629350 -0.545194
O30   O     O_R   0.819300 0.205130 0.370650 -0.522384
O31   O     O_R   0.819300 0.794870 0.370650 -0.539198
O32   O     O_R   0.180700 0.205130 0.629350 -0.542575
O33   O     O_R   0.062020 0.072840 0.007170 -0.633184
O34   O     O_R   0.937980 0.927160 0.992830 -0.638118
O35   O     O_R   0.937980 0.072840 0.992830 -0.647155
O36   O     O_R   0.062020 0.927160 0.007170 -0.640807
O37   O     O_R   0.562020 0.572840 0.007170 -0.638839
O38   O     O_R   0.437980 0.427160 0.992830 -0.637822
O39   O     O_R   0.437980 0.572840 0.992830 -0.639702
O40   O     O_R   0.562020 0.427160 0.007170 -0.642472
O41   O     O_R   0.947860 0.073950 0.109290 -0.545259
O42   O     O_R   0.052140 0.926050 0.890710 -0.544414
O43   O     O_R   0.052140 0.073950 0.890710 -0.550783
O44   O     O_R   0.947860 0.926050 0.109290 -0.548095
O45   O     O_R   0.447860 0.573950 0.109290 -0.549758
O46   O     O_R   0.552140 0.426050 0.890710 -0.545968
O47   O     O_R   0.552140 0.573950 0.890710 -0.543602
O48   O     O_R   0.447860 0.426050 0.109290 -0.547640
Zn1   Zn    Zn3+2 0.792340 0.208750 0.507670 1.048392
Zn2   Zn    Zn3+2 0.207660 0.791250 0.492330 1.097265
Zn3   Zn    Zn3+2 0.207660 0.208750 0.492330 1.078304
Zn4   Zn    Zn3+2 0.792340 0.791250 0.507670 1.080316
Zn5   Zn    Zn3+2 0.292340 0.708750 0.507670 1.081411
Zn6   Zn    Zn3+2 0.707660 0.291250 0.492330 1.073913
Zn7   Zn    Zn3+2 0.707660 0.708750 0.492330 1.050815
Zn8   Zn    Zn3+2 0.292340 0.291250 0.507670 1.099854
Zn9   Zn    Zn3+2 0.505960 0.500000 0.080520 1.082854
Zn10  Zn    Zn3+2 0.494040 0.500000 0.919480 1.103463
Zn11  Zn    Zn3+2 0.005960 1.000000 0.080520 1.098503
Zn12  Zn    Zn3+2 0.994040 1.000000 0.919480 1.084140
C149  C     C_3   0.702343 0.003547 0.635665 -0.370680
C150  C     C_3   0.668017 0.049271 0.719138 -0.829406
H17   H     H_    0.667817 0.107158 0.701381 0.245314
H18   H     H_    0.625454 0.028882 0.754600 0.281430
H19   H     H_    0.684810 0.045035 0.765852 0.240998
H20   H     H_    0.704800 0.948941 0.661277 0.201826
H21   H     H_    0.744891 0.023208 0.598515 0.233498
C151  C     C_3   0.315916 0.999875 0.367167 -0.411814
C152  C     C_3   0.360908 0.958391 0.288303 -0.830932
H22   H     H_    0.401485 0.979472 0.273179 0.282848
H23   H     H_    0.358915 0.899435 0.303015 0.249721
H24   H     H_    0.356365 0.965923 0.227687 0.255666
H25   H     H_    0.275331 0.977800 0.384685 0.235691
H26   H     H_    0.317146 0.055562 0.341286 0.203955
C153  C     C_3   0.188184 0.499109 0.630705 -0.391668
C154  C     C_3   0.147957 0.453046 0.710393 -0.833907
H27   H     H_    0.105501 0.469529 0.731023 0.279759
H28   H     H_    0.152845 0.394385 0.694164 0.244795
H29   H     H_    0.155244 0.461451 0.768056 0.251845
H30   H     H_    0.230537 0.480898 0.607129 0.236069
H31   H     H_    0.185219 0.554299 0.658591 0.200415
C155  C     C_3   0.803718 0.507158 0.355639 -0.420131
C156  C     C_3   0.844546 0.477739 0.263037 -0.830387
H32   H     H_    0.884300 0.505890 0.237491 0.284378
H33   H     H_    0.850736 0.418470 0.266068 0.269382
H34   H     H_    0.829182 0.487591 0.215085 0.253339
H35   H     H_    0.764222 0.478585 0.381196 0.231428
H36   H     H_    0.797357 0.564262 0.343104 0.218629
F1    F     F_    0.165036 0.327115 0.386413 -0.646731
F2    F     F_    0.841792 0.645964 0.605561 -0.619498
F3    F     F_    0.924515 0.323120 0.339317 -0.582262
F4    F     F_    0.130450 0.688437 0.432633 -0.616246
F5    F     F_    0.575986 0.821366 0.661143 -0.586714
F6    F     F_    0.364078 0.187036 0.576504 -0.604176
F7    F     F_    0.335552 0.823820 0.612949 -0.643190
F8    F     F_    0.654803 0.147648 0.398446 -0.643314
F9    F     F_    0.067547 0.304246 0.403976 -0.570326
F10   F     F_    0.937544 0.652983 0.602702 -0.571190
F11   F     F_    0.022531 0.331599 0.324356 -0.520963
F12   F     F_    0.028712 0.687368 0.467680 -0.574451
F13   F     F_    0.477559 0.829072 0.677528 -0.531394
F14   F     F_    0.465669 0.187783 0.545258 -0.570674
F15   F     F_    0.432676 0.802930 0.597352 -0.570583
F16   F     F_    0.557278 0.156758 0.408362 -0.583933
F17   F     F_    0.667716 0.149557 0.018165 -0.645977
F18   F     F_    0.338438 0.824874 0.958814 -0.616967
F19   F     F_    0.359003 0.217999 0.915917 -0.629649
F20   F     F_    0.638965 0.791481 0.082826 -0.641667
F21   F     F_    0.156962 0.659240 0.039064 -0.643974
F22   F     F_    0.828044 0.340172 0.983236 -0.647347
F23   F     F_    0.856556 0.718949 0.918233 -0.621227
F24   F     F_    0.140069 0.283276 0.084729 -0.597222
F25   F     F_    0.601033 0.331442 0.774046 -0.618653
F26   F     F_    0.398775 0.671086 0.223878 -0.623572
F27   F     F_    0.398579 0.332933 0.226536 -0.621735
F28   F     F_    0.600676 0.667861 0.773233 -0.589943
F29   F     F_    0.101817 0.834738 0.772142 -0.617154
F30   F     F_    0.898927 0.172058 0.223648 -0.590065
F31   F     F_    0.899082 0.830539 0.224949 -0.622729
F32   F     F_    0.100414 0.168925 0.774118 -0.626052
C157  C     C_3   0.744253 0.184682 0.788779 -0.355935
C158  C     C_3   0.802779 0.212971 0.746191 -0.774226
H37   H     H_    0.808959 0.260605 0.702208 0.275962
H38   H     H_    0.813198 0.228758 0.798561 0.249943
H39   H     H_    0.831293 0.169361 0.705305 0.242691
H40   H     H_    0.737090 0.146563 0.843876 0.220340
H41   H     H_    0.739457 0.149554 0.740686 0.216798
C159  C     C_3   0.245560 0.800336 0.215091 -0.304008
C160  C     C_3   0.265256 0.875861 0.222751 -0.815189
H42   H     H_    0.281143 0.876067 0.270597 0.265062
H43   H     H_    0.297902 0.894352 0.156005 0.280543
H44   H     H_    0.230927 0.914903 0.247005 0.243602
H45   H     H_    0.227156 0.806951 0.171113 0.199128
H46   H     H_    0.210593 0.782260 0.279313 0.263615
C161  C     C_3   0.271445 0.169569 0.200868 -0.399886
C162  C     C_3   0.209313 0.173276 0.246988 -0.661654
H47   H     H_    0.193836 0.225730 0.281490 0.327365
H48   H     H_    0.195077 0.165403 0.197376 0.240321
H49   H     H_    0.191450 0.128966 0.297434 0.232097
H50   H     H_    0.286602 0.135983 0.139248 0.214043
H51   H     H_    0.283536 0.139207 0.244796 0.197173
C163  C     C_3   0.729358 0.833140 0.798358 -0.379481
C164  C     C_3   0.699630 0.894122 0.865241 -0.793461
H52   H     H_    0.657857 0.900724 0.874960 0.278361
H53   H     H_    0.697248 0.883515 0.930915 0.284573
H54   H     H_    0.722020 0.945973 0.838739 0.238525
H55   H     H_    0.770253 0.824681 0.791510 0.231882
H56   H     H_    0.735430 0.854743 0.733712 0.220824
C165  C     C_3   0.228659 0.667758 0.798051 -0.408475
C166  C     C_3   0.289795 0.675917 0.762887 -0.668321
H57   H     H_    0.306063 0.724296 0.719306 0.334746
H58   H     H_    0.298813 0.680294 0.819076 0.240101
H59   H     H_    0.311233 0.627144 0.723321 0.232464
H60   H     H_    0.211556 0.630432 0.856792 0.231602
H61   H     H_    0.221891 0.639405 0.746999 0.199743
C167  C     C_3   0.738263 0.287632 0.221146 -0.283562
C168  C     C_3   0.750879 0.367141 0.228379 -0.821634
H62   H     H_    0.768266 0.373690 0.273660 0.265944
H63   H     H_    0.780215 0.388806 0.161031 0.291094
H64   H     H_    0.712883 0.399574 0.255581 0.244441
H65   H     H_    0.717216 0.287416 0.180780 0.198650
H66   H     H_    0.706225 0.265627 0.285963 0.275087
C169  C     C_3   0.761071 0.680243 0.206844 -0.341738
C170  C     C_3   0.699866 0.695514 0.262234 -0.744151
H67   H     H_    0.691588 0.751165 0.290724 0.264971
H68   H     H_    0.680019 0.688741 0.220284 0.246166
H69   H     H_    0.680730 0.655963 0.318492 0.241012
H70   H     H_    0.769004 0.647745 0.146867 0.206025
H71   H     H_    0.773878 0.644151 0.245461 0.198338
C171  C     C_3   0.231910 0.330012 0.797218 -0.365500
C172  C     C_3   0.206782 0.389585 0.868281 -0.805330
H72   H     H_    0.162205 0.393116 0.893988 0.280624
H73   H     H_    0.214677 0.379902 0.924949 0.272665
H74   H     H_    0.225342 0.442810 0.838065 0.238773
H75   H     H_    0.274262 0.318971 0.782377 0.235185
H76   H     H_    0.233760 0.354365 0.736472 0.229945

loop_
_geom_bond_atom_site_label_1
_geom_bond_atom_site_label_2
_ccdc_geom_bond_type
C79   C87   A    
C165  H60   S    
C61   C69   A    
O44   Zn11  S    
C104  O40   A    
C133  C149  S    
C13   C112  A    
C91   O19   A    
C33   F22   S    
C30   C38   A    
C94   O14   A    
C45   H13   S    
C107  C113  A    
C171  H75   S    
O15   Zn4   S    
C80   C171  S    
C167  H66   S    
C158  H39   S    
C106  C111  A    
C50   C103  S    
C98   O44   A    
C159  H45   S    
C148  F8    S    
C41   C49   A    
C16   C109  A    
C76   C163  S    
O19   Zn3   S    
C52   C101  S    
C145  F5    S    
C57   C65   A    
C172  H73   S    
O32   Zn3   S    
C20   C28   A    
C27   C35   A    
C166  H57   S    
C21   C29   A    
O41   Zn11  S    
C92   O12   A    
C10   F10   S    
C61   F29   S    
C24   C32   A    
C163  C164  S    
C96   O16   A    
O31   Zn4   S    
C105  C112  A    
C63   C71   A    
C120  C148  A    
O26   Zn5   S    
C6    O30   A    
C162  H47   S    
C156  H34   S    
C100  O42   A    
O14   Zn1   S    
C9    C116  A    
O16   Zn3   S    
C2    O26   A    
C48   H16   S    
C90   O10   A    
C149  H20   S    
C93   O21   A    
C17   C25   A    
C80   C88   A    
C101  O37   A    
C158  H38   S    
C123  C140  A    
C55   C98   S    
C18   C82   S    
C38   F17   S    
C11   C143  A    
C172  H72   S    
C30   H6    S    
C126  C134  A    
C168  H62   S    
O35   Zn12  S    
C118  C138  A    
C166  H58   S    
C96   C129  S    
C113  C115  A    
C121  C139  A    
O46   Zn10  S    
O40   Zn9   S    
C13   C145  A    
C43   C83   A    
C124  C139  A    
C69   C77   A    
C127  C134  A    
O37   Zn9   S    
C102  O48   A    
C92   C125  S    
C49   C104  S    
C71   C79   A    
C3    O3    A    
C51   C102  S    
O22   Zn6   S    
C62   C70   A    
C99   O41   A    
C108  C115  A    
C43   H11   S    
C109  C111  A    
C66   C74   A    
C49   C57   A    
C124  C132  A    
C25   H1    S    
C12   F12   S    
C52   C60   A    
C59   C67   A    
C129  C135  A    
C53   C61   A    
O42   Zn12  S    
O12   Zn7   S    
C55   C63   A    
C95   C130  S    
C1    C65   S    
C56   C64   A    
C134  C151  S    
C93   C132  S    
C152  H22   S    
O8    Zn8   S    
C162  H49   S    
C44   C52   A    
C77   C85   A    
C143  F3    S    
C56   C97   S    
C19   C83   S    
C155  H35   S    
C34   F21   S    
C97   O33   A    
C131  C136  A    
C92   O20   A    
C4    C68   S    
C93   O13   A    
C171  C172  S    
C161  H51   S    
O39   Zn10  S    
C47   C87   A    
C160  H42   S    
C73   C157  S    
C64   F32   S    
C168  H64   S    
C136  C155  S    
O9    Zn6   S    
C60   C68   A    
C42   C50   A    
C100  O36   A    
O1    Zn1   S    
C23   C36   A    
C20   C84   S    
C104  O46   A    
C54   C99   S    
C146  F6    S    
C67   C75   A    
C29   C37   A    
C6    O6    A    
C105  C109  A    
C155  C156  S    
C22   C30   A    
C119  C138  A    
C94   O22   A    
C170  H67   S    
O33   Zn11  S    
O27   Zn8   S    
C114  C116  A    
C68   C76   A    
C157  H41   S    
C163  H55   S    
C142  F2    S    
C164  H54   S    
O4    Zn4   S    
C122  C140  A    
C72   C80   A    
C151  H25   S    
C3    C67   S    
C103  O45   A    
C17   C38   A    
C107  C139  A    
C152  H24   S    
C110  C112  A    
C107  C116  A    
C19   C40   A    
C105  C137  A    
C171  H76   S    
C79   C169  S    
C150  H17   S    
O17   Zn1   S    
O28   Zn7   S    
C7    O7    A    
C117  C125  A    
O7    Zn7   S    
C25   C33   A    
C119  C127  A    
O5    Zn5   S    
C59   F27   S    
O45   Zn9   S    
O11   Zn8   S    
C4    O28   A    
C159  H46   S    
C153  C154  S    
C18   C26   A    
C89   O9    A    
C76   C84   A    
C95   O23   A    
C101  O47   A    
C144  F4    S    
C47   C55   A    
C74   C82   A    
C160  H44   S    
C15   F15   S    
C106  C110  A    
O20   Zn4   S    
C119  C147  A    
C117  C145  A    
C10   C142  A    
C108  C114  A    
C96   O24   A    
C5    C69   S    
C90   C127  S    
C48   C88   A    
O3    Zn3   S    
C2    O2    A    
C47   H15   S    
C166  H59   S    
O24   Zn8   S    
O36   Zn11  S    
C15   C110  A    
C42   H10   S    
O30   Zn1   S    
C170  H69   S    
C162  H48   S    
C165  H61   S    
C156  H33   S    
C53   C100  S    
C21   C85   S    
C8    C72   S    
C164  H52   S    
C50   C58   A    
C121  C141  A    
C26   H2    S    
C20   C39   A    
O23   Zn7   S    
C21   C34   A    
C54   C62   A    
C2    C66   S    
C154  H29   S    
O34   Zn12  S    
C161  C162  S    
C157  C158  S    
C41   C81   A    
C46   C54   A    
C167  H65   S    
C74   C159  S    
C24   C88   S    
C73   C81   A    
C75   C161  S    
C41   H9    S    
C35   F24   S    
C44   H12   S    
C7    O31   A    
C169  H71   S    
O25   Zn6   S    
C5    O29   A    
C6    C70   S    
C27   H3    S    
C123  C131  A    
O13   Zn2   S    
C62   F30   S    
C121  C129  A    
C44   C84   A    
C13   F13   S    
C172  H74   S    
C31   H7    S    
C120  C128  A    
C94   C131  S    
C153  H31   S    
C141  F1    S    
C102  O38   A    
C78   C167  S    
C169  C170  S    
C15   C147  A    
C75   C83   A    
C165  C166  S    
C158  H37   S    
C43   C51   A    
C151  C152  S    
C8    O32   A    
C17   C81   S    
C22   C86   S    
C4    O4    A    
C28   C36   A    
C60   F28   S    
C99   O35   A    
C5    O5    A    
C120  C137  A    
C8    O8    A    
C23   C31   A    
C89   C128  S    
C57   F25   S    
C91   C126  S    
C70   C78   A    
O38   Zn10  S    
C42   C82   A    
C63   F31   S    
O29   Zn2   S    
C155  H36   S    
C149  H21   S    
O21   Zn5   S    
C147  F7    S    
C159  C160  S    
C18   C37   A    
C7    C71   S    
C169  H70   S    
C106  C138  A    
C65   C73   A    
C11   C114  A    
C154  H27   S    
C26   C34   A    
C90   O18   A    
C135  C153  S    
C168  H63   S    
C9    F9    S    
C153  H30   S    
C11   F11   S    
C19   C27   A    
C36   F23   S    
C78   C86   A    
C32   C40   A    
O43   Zn12  S    
C32   H8    S    
C151  H26   S    
C58   C66   A    
O48   Zn9   S    
C14   C111  A    
C24   C35   A    
C98   O34   A    
C58   F26   S    
C118  C146  A    
C170  H68   S    
C108  C140  A    
C9    C141  A    
O47   Zn10  S    
C117  C137  A    
C157  H40   S    
C163  H56   S    
C12   C144  A    
C164  H53   S    
C45   C85   A    
C3    O27   A    
C1    O1    A    
C154  H28   S    
C149  C150  S    
C91   O11   A    
O10   Zn5   S    
C97   O43   A    
C152  H23   S    
C16   F16   S    
O2    Zn2   S    
C95   O15   A    
C28   H4    S    
C150  H18   S    
C51   C59   A    
C37   F18   S    
C122  C142  A    
C39   F20   S    
C29   H5    S    
C12   C113  A    
C161  H50   S    
C40   F19   S    
C125  C133  A    
C48   C56   A    
C22   C33   A    
C89   O17   A    
C130  C136  A    
C156  H32   S    
C150  H19   S    
C77   C165  S    
C14   C146  A    
C16   C148  A    
C167  C168  S    
C160  H43   S    
C128  C133  A    
C132  C135  A    
C31   C39   A    
C64   C72   A    
C103  O39   A    
C45   C53   A    
C46   H14   S    
C123  C143  A    
O18   Zn2   S    
C124  C144  A    
C23   C87   S    
C118  C126  A    
C46   C86   A    
C122  C130  A    
C10   C115  A    
C14   F14   S    
C1    O25   A    
O6    Zn6   S    
