data_mof_unit_4522.cif
_audit_creation_date              2012-12-10T19:59:25-0500
_audit_creation_method            fapswitch 2.2
_symmetry_space_group_name_H-M    P1
_symmetry_Int_Tables_number       1
_space_group_crystal_system       triclinic
_cell_length_a                    14.969437
_cell_length_b                    14.148916
_cell_length_c                    10.677518
_cell_angle_alpha                 89.856766
_cell_angle_beta                  90.068514
_cell_angle_gamma                 90.077373
_cell_volume                      2261.50152797

loop_
_atom_site_label
_atom_site_type_symbol
_atom_type_description
_atom_site_fract_x
_atom_site_fract_y
_atom_site_fract_z
_atom_type_partial_charge
C1    C     C_R   0.327815 0.499931 0.498921 0.888021
C2    C     C_R   0.577745 0.105116 0.531576 -0.286497
C3    C     C_R   0.424262 0.203840 0.469647 0.009922
C4    C     C_R   0.575960 0.204532 0.530941 0.010092
C5    C     C_R   0.500450 0.053125 0.501542 0.138678
C6    C     C_R   0.574054 0.895249 0.456204 -0.294732
C7    C     C_R   0.427382 0.894840 0.548480 -0.310376
C8    C     C_R   0.572166 0.795857 0.455356 0.009530
C9    C     C_R   0.428585 0.795438 0.547062 0.018600
C10   C     C_R   0.500708 0.946651 0.502325 0.138602
C11   C     C_R   0.497233 0.499999 0.259731 0.886511
C12   C     C_R   0.672413 0.500043 0.499083 0.907075
C13   C     C_R   0.496908 0.499837 0.740185 0.922793
C14   C     C_R   0.463053 0.581529 0.063431 0.062581
C15   C     C_R   0.462803 0.581450 0.935850 -0.019899
C16   C     C_R   0.482421 0.498657 0.128525 -0.128123
C17   C     C_R   0.481748 0.498415 0.871243 -0.062541
C18   C     C_R   0.482715 0.412011 0.064811 -0.209985
C19   C     C_R   0.482350 0.411890 0.935623 -0.233032
C20   C     C_3   0.499061 0.679902 0.927586 0.219012
C21   C     C_3   0.499847 0.679665 0.071033 0.225485
C22   C     C_R   0.096707 0.567554 0.410747 0.554156
C23   C     C_R   0.184483 0.427389 0.550639 -0.203338
C24   C     C_R   0.908389 0.579646 0.529134 0.553760
C25   C     C_R   0.188918 0.569608 0.421839 -0.308741
C26   C     C_R   0.815880 0.579961 0.532482 -0.319807
C27   C     C_R   0.232308 0.499503 0.491436 -0.089526
C28   C     C_R   0.768417 0.500038 0.493650 -0.092878
C29   C     C_3   0.613436 0.774592 0.854369 0.106648
C30   C     C_3   0.698834 0.774171 0.777567 -0.795860
C31   C     C_3   0.471397 0.832453 0.134174 0.100275
C32   C     C_3   0.402538 0.896588 0.194810 -0.783146
C33   C     C_3   0.040825 0.601817 0.218663 0.077386
C34   C     C_R   0.812947 0.420433 0.447885 -0.198994
C35   C     C_3   0.987229 0.673488 0.143536 -0.797230
C36   C     C_3   0.968265 0.649853 0.700601 0.070915
C37   C     C_3   0.026891 0.731031 0.744855 -0.793948
C38   C     C_R   0.092464 0.427229 0.544251 -0.275244
C39   C     C_R   0.904943 0.420997 0.440108 -0.280698
C40   C     C_R   0.048643 0.497945 0.476403 0.009867
C41   C     C_R   0.952471 0.500457 0.479871 0.023606
C42   C     C_R   0.422946 0.104376 0.470463 -0.289288
H1    H     H_    0.490315 0.345179 0.113389 0.174223
H2    H     H_    0.781690 0.641749 0.567610 0.165678
H3    H     H_    0.218185 0.372882 0.604200 0.157853
H4    H     H_    0.776689 0.358519 0.416506 0.161291
H5    H     H_    0.055236 0.373396 0.594367 0.160321
H6    H     H_    0.939257 0.359648 0.403371 0.159097
H7    H     H_    0.361987 0.067884 0.444976 0.139715
H8    H     H_    0.638906 0.069254 0.557473 0.135028
H9    H     H_    0.364342 0.241990 0.444425 0.131964
H10   H     H_    0.635701 0.243199 0.555767 0.129561
H11   H     H_    0.627262 0.810167 0.945137 0.112000
H12   H     H_    0.489792 0.345029 0.887535 0.172718
H13   H     H_    0.562554 0.815621 0.800734 0.137289
H14   H     H_    0.685596 0.741789 0.684832 0.256312
H15   H     H_    0.722667 0.847759 0.763177 0.198865
H16   H     H_    0.751508 0.733162 0.826825 0.244641
H17   H     H_    0.487914 0.862197 0.040477 0.107789
H18   H     H_    0.532381 0.832080 0.193900 0.137760
H19   H     H_    0.381682 0.866904 0.286521 0.268572
H20   H     H_    0.431587 0.967953 0.209736 0.201579
H21   H     H_    0.342906 0.902922 0.133398 0.244131
H22   H     H_    0.002864 0.533961 0.219144 0.133948
H23   H     H_    0.631827 0.931540 0.418572 0.136095
H24   H     H_    0.106273 0.591058 0.171229 0.138196
H25   H     H_    0.024282 0.741408 0.137636 0.256355
H26   H     H_    0.975642 0.646372 0.047363 0.191842
H27   H     H_    0.921617 0.685803 0.189122 0.260656
H28   H     H_    0.002416 0.582334 0.725401 0.136336
H29   H     H_    0.903172 0.653787 0.750748 0.133477
H30   H     H_    0.994077 0.799610 0.723715 0.255657
H31   H     H_    0.037827 0.725522 0.847465 0.198700
H32   H     H_    0.092616 0.728421 0.696777 0.260431
H33   H     H_    0.369785 0.930821 0.586649 0.142756
H34   H     H_    0.628568 0.757370 0.418289 0.122719
H35   H     H_    0.372138 0.756603 0.583905 0.129303
H36   H     H_    0.449689 0.728347 0.882653 0.088694
H37   H     H_    0.567083 0.681833 0.116208 0.090653
H38   H     H_    0.226475 0.624407 0.374043 0.178577
N1    N     N_R   0.500000 0.252470 0.500000 -0.091826
N2    N     N_R   0.500000 0.747550 0.500000 -0.080097
O1    O     O_R   0.369060 0.579480 0.500010 -0.629422
O2    O     O_3   0.435248 0.740754 0.122895 -0.596683
O3    O     O_3   0.053672 0.636370 0.341281 -0.578067
O4    O     O_3   0.955484 0.657825 0.570021 -0.579538
O5    O     O_R   0.630940 0.579480 0.499990 -0.631181
O6    O     O_R   0.369050 0.420520 0.500010 -0.636662
O7    O     O_R   0.630950 0.420520 0.499990 -0.636447
O8    O     O_R   0.499990 0.579490 0.316780 -0.603093
O9    O     O_R   0.500010 0.579490 0.683220 -0.586951
O10   O     O_R   0.499980 0.420540 0.316780 -0.626077
O11   O     O_R   0.500020 0.420540 0.683220 -0.637841
O12   O     O_3   0.585815 0.680493 0.875453 -0.597421
Zn1   Zn    Zn3+2 0.500000 0.606140 0.500000 0.967205
Zn2   Zn    Zn3+2 0.500000 0.393860 0.500000 0.933687

loop_
_geom_bond_atom_site_label_1
_geom_bond_atom_site_label_2
_ccdc_geom_bond_type
C7    C10   A    
C5    C42   A    
O6    Zn2   S    
C3    C42   A    
C23   H3    S    
C25   H38   S    
O10   Zn2   S    
C37   H32   S    
C26   H2    S    
O8    Zn1   S    
C39   C41   A    
C4    H10   S    
C8    N2    A    
C14   C21   S    
C36   C37   S    
C24   C26   A    
C32   H19   S    
C29   O12   S    
C30   H15   S    
C8    H34   S    
C7    C9    A    
C18   C19   A    
C22   O3    S    
C31   H17   S    
C33   O3    S    
C20   O12   S    
C2    H8    S    
C17   C19   A    
C11   O10   A    
C6    H23   S    
C4    N1    A    
C22   C25   A    
O5    Zn1   S    
C3    N1    A    
C34   H4    S    
C23   C27   A    
C36   H29   S    
C9    N2    A    
C1    O6    A    
C28   C34   A    
C13   O9    A    
C24   C41   A    
C36   H28   S    
C33   H24   S    
C15   C20   S    
C34   C39   A    
C12   O7    A    
N1    Zn2   S    
C3    H9    S    
C7    H33   S    
C29   H13   S    
C36   O4    S    
C30   H14   S    
C31   O2    S    
C13   O11   A    
C31   H18   S    
C2    C4    A    
C29   C30   S    
C11   C16   S    
C31   C32   S    
C21   O2    S    
C35   H25   S    
C22   C40   A    
C21   H37   S    
C9    H35   S    
O1    Zn1   S    
C38   H5    S    
C19   H12   S    
C40   C41   S    
C12   C28   S    
O11   Zn2   S    
C14   C16   A    
C2    C5    A    
C25   C27   A    
C15   C17   A    
C37   H31   S    
N2    Zn1   S    
C12   O5    A    
C32   H21   S    
C6    C10   A    
C6    C8    A    
C20   H36   S    
C1    O1    A    
C23   C38   A    
C26   C28   A    
C13   C17   S    
O7    Zn2   S    
C32   H20   S    
C5    C10   S    
C18   H1    S    
C38   C40   A    
C11   O8    A    
C29   H11   S    
C35   H26   S    
C33   H22   S    
C30   H16   S    
C33   C35   S    
C42   H7    S    
O9    Zn1   S    
C20   C21   S    
C35   H27   S    
C16   C18   A    
C37   H30   S    
C1    C27   S    
C14   C15   A    
C24   O4    S    
C39   H6    S    
