data_mof_unit_3748.cif
_audit_creation_date              2012-12-10T16:49:30-0500
_audit_creation_method            fapswitch 2.2
_symmetry_space_group_name_H-M    P1
_symmetry_Int_Tables_number       1
_space_group_crystal_system       triclinic
_cell_length_a                    19.333316
_cell_length_b                    8.742851
_cell_length_c                    7.426628
_cell_angle_alpha                 102.212806
_cell_angle_beta                  94.558753
_cell_angle_gamma                 92.408125
_cell_volume                      1220.78768508

loop_
_atom_site_label
_atom_site_type_symbol
_atom_type_description
_atom_site_fract_x
_atom_site_fract_y
_atom_site_fract_z
_atom_type_partial_charge
C1    C     C_R   0.495583 0.200676 0.455501 0.886380
C2    C     C_R   0.811803 0.490424 0.330539 -0.154670
C3    C     C_R   0.146342 0.501602 0.503622 0.060633
C4    C     C_R   0.853658 0.498402 0.496377 0.060634
C5    C     C_R   0.177889 0.493906 0.338434 -0.155985
C6    C     C_R   0.822112 0.506111 0.661568 -0.155985
C7    C     C_R   0.249769 0.493679 0.338653 -0.187987
C8    C     C_R   0.750232 0.506336 0.661350 -0.187986
C9    C     C_R   0.291635 0.501251 0.504074 -0.026662
C10   C     C_R   0.708365 0.498751 0.495926 -0.026661
C11   C     C_R   0.929827 0.499071 0.498001 0.410909
C12   C     C_R   0.504418 0.799324 0.544499 0.886376
C13   C     C_R   0.070173 0.500933 0.501998 0.410909
C14   C     C_3   0.425780 0.955079 0.292366 -0.837551
C15   C     C_3   0.574222 0.044921 0.707632 -0.837564
C16   C     C_2   0.483006 0.035663 0.438405 -0.033472
C17   C     C_2   0.516995 0.964337 0.561596 -0.033463
C18   C     C_R   0.367495 0.500222 0.501809 0.778054
C19   C     C_R   0.632505 0.499778 0.498191 0.778054
C20   C     C_R   0.260325 0.509493 0.669677 -0.189426
C21   C     C_R   0.739675 0.490497 0.330320 -0.189427
C22   C     C_R   0.188197 0.509568 0.669458 -0.154669
Cu1   Cu    Cu3+1 0.507710 0.517380 0.684380 0.939817
Cu2   Cu    Cu3+1 0.492290 0.482620 0.315620 0.939819
H1    H     H_    0.291431 0.515394 0.799149 0.148517
H2    H     H_    0.554472 0.620500 0.051331 0.225303
H3    H     H_    0.395235 0.041412 0.234845 0.225943
H4    H     H_    0.448523 0.879196 0.175128 0.263037
H5    H     H_    0.388446 0.884978 0.353405 0.228589
H6    H     H_    0.604759 0.958589 0.765181 0.225947
H7    H     H_    0.611561 0.114997 0.646582 0.228585
H8    H     H_    0.551481 0.120828 0.824858 0.263042
H9    H     H_    0.708568 0.484586 0.200845 0.148518
H10   H     H_    0.165356 0.515656 0.799105 0.149362
H11   H     H_    0.834643 0.484326 0.200889 0.149362
H12   H     H_    0.147158 0.487845 0.208404 0.155324
H13   H     H_    0.852842 0.512182 0.791601 0.155324
H14   H     H_    0.272435 0.487631 0.208730 0.150660
H15   H     H_    0.727566 0.512394 0.791276 0.150660
H16   H     H_    0.445528 0.379499 0.948669 0.225303
N1    N     N_R   0.029925 0.493307 0.341651 -0.231318
N2    N     N_R   0.970075 0.506697 0.658349 -0.231318
N3    N     N_R   0.961098 0.492413 0.339633 -0.234345
N4    N     N_R   0.038902 0.507591 0.660366 -0.234345
N5    N     N_2   0.480680 0.456420 0.038530 -0.220644
N6    N     N_2   0.519320 0.543580 0.961470 -0.220645
O1    O     O_R   0.505010 0.286130 0.619770 -0.591601
O2    O     O_R   0.494990 0.713870 0.380230 -0.591598
O3    O     O_R   0.491990 0.256780 0.308370 -0.580525
O4    O     O_R   0.508010 0.743220 0.691630 -0.580528
O5    O     O_R   0.406650 0.514660 0.655750 -0.590285
O6    O     O_R   0.593350 0.485340 0.344250 -0.590287
O7    O     O_R   0.393640 0.485310 0.344340 -0.588059
O8    O     O_R   0.606360 0.514690 0.655660 -0.588059

loop_
_geom_bond_atom_site_label_1
_geom_bond_atom_site_label_2
_ccdc_geom_bond_type
C2    H11   S    
C12   C17   S    
C2    C4    A    
Cu1   Cu2   S    
C11   N3    A    
C8    H15   S    
C14   H3    S    
C9    C20   A    
Cu1   O5    S    
C3    C13   S    
C10   C19   S    
C12   O2    A    
C2    C21   A    
C13   N1    A    
C6    H13   S    
C15   H8    S    
C1    C16   S    
N5    N6    D    
C4    C11   S    
C15   H7    S    
N1    N3    A    
C16   C17   D    
N2    N4    A    
Cu1   O8    S    
Cu2   N5    S    
C19   O8    A    
C8    C10   A    
C7    H14   S    
C20   C22   A    
C18   O5    A    
C5    C7    A    
Cu2   O6    S    
C10   C21   A    
H16   N5    S    
C22   H10   S    
C14   C16   S    
Cu1   O1    S    
C20   H1    S    
H2    N6    S    
C14   H5    S    
Cu2   O2    S    
C5    H12   S    
C3    C5    A    
C9    C18   S    
Cu1   N6    S    
C21   H9    S    
C15   H6    S    
C4    C6    A    
Cu2   O3    S    
C7    C9    A    
C1    O1    A    
C3    C22   A    
C6    C8    A    
C11   N2    A    
C18   O7    A    
C14   H4    S    
Cu2   O7    S    
C15   C17   S    
C1    O3    A    
C19   O6    A    
C13   N4    A    
C12   O4    A    
Cu1   O4    S    
