data_mof_unit_2302.cif
_audit_creation_date              2012-12-11T20:21:50-0500
_audit_creation_method            fapswitch 2.2
_symmetry_space_group_name_H-M    P1
_symmetry_Int_Tables_number       1
_space_group_crystal_system       triclinic
_cell_length_a                    8.226729
_cell_length_b                    17.454645
_cell_length_c                    26.959887
_cell_angle_alpha                 99.899672
_cell_angle_beta                  92.658429
_cell_angle_gamma                 81.409313
_cell_volume                      3770.01446747

loop_
_atom_site_label
_atom_site_type_symbol
_atom_type_description
_atom_site_fract_x
_atom_site_fract_y
_atom_site_fract_z
_atom_type_partial_charge
Ba1   Ba    Ba6+2 0.860160 0.462360 0.521850 1.681533
Ba2   Ba    Ba6+2 0.329680 0.537570 0.478140 1.678279
C1    C     C_3   0.620660 0.199641 0.658105 -0.365149
C2    C     C_3   0.617807 0.275785 0.637402 0.369555
C3    C     C_3   0.491881 0.665735 0.634382 0.304334
C4    C     C_3   0.481795 0.695717 0.690731 -0.376623
C5    C     C_3   0.976990 0.736270 0.347036 0.743319
C6    C     C_3   0.883889 0.808732 0.328488 -0.312931
C7    C     C_3   0.479737 0.745926 0.368958 0.428153
C8    C     C_3   0.431013 0.822849 0.349106 -0.304334
C9    C     C_R   0.035883 0.441664 0.176498 0.590264
C10   C     C_R   0.899505 0.573765 0.180183 0.645811
C11   C     C_2   0.753954 0.547199 0.273750 -0.081674
C12   C     C_3   0.154893 0.253666 0.646080 0.313982
C13   C     C_3   0.733738 0.575432 0.329575 -0.030334
C14   C     C_1   0.984324 0.485745 0.342347 0.035583
C15   C     C_2   0.026299 0.480887 0.294467 -0.022346
C16   C     C_2   0.903230 0.511182 0.256345 0.241071
C17   C     C_R   0.025318 0.504719 0.101621 -0.080714
C18   C     C_R   0.079985 0.439866 0.125893 -0.030854
C19   C     C_R   0.176796 0.374203 0.098913 -0.054010
C20   C     C_R   0.932534 0.571563 0.128958 -0.042844
C21   C     C_2   0.845368 0.526115 0.361140 -0.289471
C22   C     C_2   0.357507 0.485480 0.640297 -0.280908
C23   C     C_3   0.088790 0.228839 0.691670 -0.355593
C24   C     C_R   0.211815 0.437571 0.973059 0.020014
C25   C     C_R   0.033561 0.564655 0.973693 0.020105
C26   C     C_R   0.142543 0.500703 0.948002 0.050745
C27   C     C_R   0.324978 0.377161 0.946336 -0.099247
C28   C     C_R   0.364007 0.377417 0.896544 -0.060980
C29   C     C_R   0.293052 0.438062 0.870940 -0.034000
C30   C     C_R   0.182725 0.500029 0.896717 -0.078383
C31   C     C_R   0.112563 0.561447 0.871234 -0.031673
C32   C     C_R   0.155950 0.561107 0.821004 0.587669
C33   C     C_R   0.330495 0.437977 0.820087 0.587991
C34   C     C_3   0.220016 0.298476 0.410992 0.358177
C35   C     C_2   0.464169 0.488204 0.728819 -0.075707
C36   C     C_3   0.505866 0.492795 0.675063 -0.066226
C37   C     C_1   0.211130 0.517060 0.657360 0.042616
C38   C     C_2   0.172085 0.515932 0.704448 -0.094637
C39   C     C_2   0.304865 0.499970 0.743371 0.205581
C40   C     C_R   0.166904 0.437206 0.023754 0.019340
C41   C     C_R   0.064313 0.503092 0.050115 0.052924
C42   C     C_R   0.000669 0.567629 0.025610 0.019496
C43   C     C_R   0.220381 0.373009 0.049293 -0.100045
C44   C     C_R   0.875768 0.635847 0.104812 -0.047681
C45   C     C_3   0.248902 0.209282 0.395853 0.236059
C46   C     C_R   0.960197 0.623535 0.946206 -0.099731
C47   C     C_R   0.999652 0.622098 0.896381 -0.059937
C48   C     C_R   0.907782 0.633868 0.054381 -0.097349
C49   C     C_2   0.449970 0.279758 0.515669 -0.253149
C50   C     C_3   0.377064 0.228430 0.545988 -0.068605
C51   C     C_2   0.423769 0.142221 0.527447 -0.086247
C52   C     C_2   0.552815 0.115903 0.496750 0.011317
C53   C     C_2   0.634557 0.174458 0.476217 -0.133714
C54   C     C_1   0.574765 0.250308 0.485471 0.043135
C55   C     C_R   0.789573 0.862357 0.471445 -0.135923
C56   C     C_3   0.974278 0.701434 0.587765 0.307605
C57   C     C_R   0.847709 0.781966 0.464831 -0.016795
C58   C     C_R   0.617139 0.759600 0.510289 0.040267
C59   C     C_R   0.558844 0.839932 0.517526 -0.113327
C60   C     C_R   0.642945 0.891799 0.497501 0.018631
C61   C     C_2   0.613766 0.030482 0.482429 -0.063464
C62   C     C_2   0.584534 0.976864 0.510162 -0.071457
C63   C     C_R   0.757351 0.730544 0.482180 -0.266972
C64   C     C_3   0.944781 0.790355 0.603272 -0.381009
C65   C     C_3   0.695487 0.362347 0.368629 0.326554
C66   C     C_3   0.694070 0.342574 0.311439 -0.329919
H1    H     H_    0.689419 0.261828 0.602106 0.066013
H2    H     H_    0.334554 0.192314 0.363857 0.068470
H3    H     H_    0.304280 0.181812 0.427985 -0.004664
H4    H     H_    0.857056 0.680160 0.575066 0.005518
H5    H     H_    0.061379 0.686608 0.556331 0.075922
H6    H     H_    0.852276 0.807061 0.633248 0.135254
H7    H     H_    0.899135 0.818940 0.570742 0.063514
H8    H     H_    0.061392 0.811898 0.617566 0.123908
H9    H     H_    0.818590 0.375827 0.381974 0.009562
H10   H     H_    0.601785 0.414488 0.379852 0.049186
H11   H     H_    0.748527 0.174113 0.666188 0.124091
H12   H     H_    0.789264 0.291493 0.298996 0.165946
H13   H     H_    0.720015 0.393489 0.295075 0.040490
H14   H     H_    0.571514 0.328000 0.297380 0.130168
H15   H     H_    0.488491 0.300259 0.629787 -0.080685
H16   H     H_    0.565229 0.156228 0.630235 0.060098
H17   H     H_    0.368079 0.653058 0.620297 0.029304
H18   H     H_    0.582002 0.611079 0.627875 0.032495
H19   H     H_    0.399089 0.752714 0.697832 0.136653
H20   H     H_    0.431748 0.653167 0.709910 0.072516
H21   H     H_    0.606137 0.703967 0.706689 0.127900
H22   H     H_    0.549925 0.211340 0.693290 0.136681
H23   H     H_    0.166153 0.246695 0.725540 0.094938
H24   H     H_    0.888284 0.703774 0.361552 -0.107310
H25   H     H_    0.970612 0.839376 0.311248 0.143564
H26   H     H_    0.789499 0.790947 0.299763 0.119460
H27   H     H_    0.822080 0.850100 0.360451 0.039912
H28   H     H_    0.615847 0.735978 0.372342 -0.142381
H29   H     H_    0.427558 0.751968 0.406967 0.071461
H30   H     H_    0.478170 0.871357 0.375319 0.058153
H31   H     H_    0.295383 0.836676 0.345743 0.160023
H32   H     H_    0.146890 0.318961 0.652896 0.044228
H33   H     H_    0.484197 0.818455 0.311446 0.119759
H34   H     H_    0.151593 0.457757 0.283420 0.132533
H35   H     H_    0.220931 0.323133 0.116303 0.126199
H36   H     H_    0.563736 0.480432 0.756231 0.105657
H37   H     H_    0.451641 0.329585 0.878142 0.121020
H38   H     H_    0.388368 0.329051 0.963122 0.070521
H39   H     H_    0.294145 0.319797 0.031654 0.071648
H40   H     H_    0.657432 0.567370 0.248216 0.116931
H41   H     H_    0.804530 0.688451 0.124869 0.127468
H42   H     H_    0.868707 0.671272 0.961795 0.071151
H43   H     H_    0.285058 0.225978 0.642588 -0.030593
H44   H     H_    0.940026 0.669075 0.877432 0.122410
H45   H     H_    0.044598 0.528351 0.715278 0.132877
H46   H     H_    0.860972 0.686561 0.039459 0.072421
H47   H     H_    0.825550 0.537514 0.401482 0.073652
H48   H     H_    0.371947 0.456868 0.601293 0.071486
H49   H     H_    0.514501 0.995144 0.544318 0.067282
H50   H     H_    0.741032 0.154093 0.452593 0.131684
H51   H     H_    0.863874 0.901548 0.459255 0.075560
H52   H     H_    0.686647 0.012065 0.448763 0.084129
H53   H     H_    0.354795 0.102575 0.541568 0.067908
H54   H     H_    0.960550 0.257864 0.698627 0.165244
H55   H     H_    0.451630 0.862328 0.540364 0.078736
H56   H     H_    0.408820 0.342282 0.523233 0.070971
H57   H     H_    0.804313 0.668553 0.478038 0.059055
H58   H     H_    0.092385 0.163827 0.685458 0.111310
H59   H     H_    0.338914 0.319248 0.421940 -0.100068
H60   H     H_    0.137204 0.314132 0.443582 0.073483
N1    N     N_R   0.946137 0.508364 0.203540 -0.420218
N2    N     N_R   0.263413 0.499579 0.795607 -0.424299
O1    O     O_2   0.906370 0.542040 0.619810 -0.466274
O2    O     O_3   0.660544 0.297316 0.388074 -0.603939
O3    O     O_3   0.064209 0.227547 0.602450 -0.581445
O4    O     O_2   0.283330 0.457940 0.380160 -0.456997
O5    O     O_3   0.051340 0.457960 0.440360 -0.504264
O6    O     O_3   0.503130 0.601610 0.416130 -0.488368
O7    O     O_3   0.151512 0.332033 0.369821 -0.613584
O8    O     O_3   0.616890 0.595000 0.528820 -0.484086
O9    O     O_3   0.087820 0.642040 0.442240 -0.467607
O10   O     O_2   0.184821 0.780328 0.477699 -0.490713
O11   O     O_3   0.099151 0.759504 0.382329 -0.597685
O12   O     O_3   0.138370 0.541980 0.559630 -0.495650
O13   O     O_3   0.572820 0.404940 0.471170 -0.502658
O14   O     O_2   0.345130 0.693150 0.532000 -0.463157
O15   O     O_3   0.543298 0.723534 0.610937 -0.641332
O16   O     O_2   0.412939 0.532882 0.324371 -0.457314
O17   O     O_3   0.418596 0.684518 0.335932 -0.515584
O18   O     O_2   0.076304 0.383359 0.196108 -0.596478
O19   O     O_2   0.421507 0.382474 0.797481 -0.594931
O20   O     O_2   0.830973 0.634894 0.204183 -0.563536
O21   O     O_2   0.099583 0.616417 0.800181 -0.601837
O22   O     O_3   0.686580 0.398330 0.583860 -0.489031
O23   O     O_2   0.848530 0.442401 0.669044 -0.481072
O24   O     O_3   0.038089 0.668051 0.629459 -0.627970
O25   O     O_3   0.688178 0.329568 0.673299 -0.584851
O26   O     O_2   0.844570 0.306830 0.467970 -0.429088
O27   O     O_3   0.101900 0.357890 0.557750 -0.484514
O28   O     O_2   0.060986 0.218244 0.504223 -0.446171
P1    P     P_3+3 0.071770 0.565500 0.613330 0.995248
P2    P     P_3+3 0.664870 0.318630 0.453960 1.023603
P3    P     P_3+3 0.150523 0.256311 0.551673 0.966708
P4    P     P_3+3 0.117940 0.434440 0.386660 1.006390
P5    P     P_3+3 0.054749 0.742953 0.442040 0.963018
P6    P     P_3+3 0.681123 0.417648 0.649996 0.988596
P7    P     P_3+3 0.532358 0.694287 0.545613 0.947812
P8    P     P_3+3 0.517101 0.595328 0.351036 1.017139
Cl1   Cl    Cl    0.059935 0.172710 0.377739 -0.635868
Cl2   Cl    Cl    0.075219 0.672213 0.294937 -0.624964

loop_
_geom_bond_atom_site_label_1
_geom_bond_atom_site_label_2
_ccdc_geom_bond_type
C25   C46   A    
C66   H12   S    
C46   H42   S    
C5    Cl2   S    
Ba2   O13   S    
Ba2   O14   S    
C17   C18   A    
C65   H9    S    
O12   P1    S    
C23   H58   S    
C23   H54   S    
C1    H11   S    
Ba2   P4    S    
C5    C6    S    
O15   P7    S    
C51   C52   D    
O10   P5    D    
C65   H10   S    
Ba2   O4    S    
C11   C16   D    
C34   C45   S    
C1    H22   S    
C66   H13   S    
Ba1   P1    S    
C35   C36   S    
C49   C54   D    
C39   N2    S    
C29   C30   A    
C9    O18   D    
C55   C57   A    
O13   P2    S    
C52   C61   S    
C5    H24   S    
C31   C47   A    
C64   H6    S    
C10   C20   A    
C22   C37   D    
C4    H20   S    
Ba1   O22   S    
Ba1   Ba2   S    
C8    H30   S    
O8    P7    S    
C60   C62   S    
Ba1   O12   S    
C56   O24   S    
O28   P3    D    
C25   C42   A    
C56   C64   S    
C65   O2    S    
C14   C15   D    
C22   C36   S    
C13   P8    S    
C7    C8    S    
C59   C60   A    
C50   P3    S    
C55   H51   S    
C3    H17   S    
C13   C21   S    
O16   P8    D    
C49   H56   S    
C34   H60   S    
C6    H27   S    
C11   H40   S    
C9    N1    Am   
C2    H1    S    
C17   C41   A    
C31   C32   A    
C19   C43   A    
C8    H33   S    
C12   H43   S    
C9    C18   A    
C23   H23   S    
C3    O15   S    
C10   N1    Am   
O23   P6    D    
C65   C66   S    
Ba2   O8    S    
C10   O20   D    
O26   P2    D    
C17   C20   A    
C6    H26   S    
C37   C38   D    
C1    H16   S    
C55   C60   A    
C7    O17   S    
Ba2   O6    S    
C62   H49   S    
O4    P4    D    
C58   C59   A    
C48   H46   S    
C40   C43   A    
C63   H57   S    
C22   H48   S    
Ba1   O26   S    
C15   H34   S    
C45   H2    S    
C27   C28   A    
Ba1   O13   S    
O17   P8    S    
C45   Cl1   S    
C38   H45   S    
C33   N2    Am   
C26   C30   A    
C28   C29   A    
C64   H8    S    
C53   C54   D    
C15   C16   S    
O2    P2    S    
O1    P1    D    
C7    H28   S    
C45   H3    S    
O22   P6    S    
C47   H44   S    
C3    H18   S    
C46   C47   A    
C20   C44   A    
C58   C63   A    
O11   P5    S    
C14   C21   D    
C11   C13   S    
C41   C42   A    
Ba2   O12   S    
O5    P4    S    
C29   C33   A    
C27   H38   S    
C34   H59   S    
C40   C41   A    
Ba2   O9    S    
C1    C2    S    
O27   P3    S    
C5    O11   S    
C50   C51   S    
C24   C40   A    
C34   O7    S    
C42   C48   A    
C52   C53   S    
C38   C39   S    
C7    H29   S    
C37   P1    S    
Ba1   P2    S    
C6    H25   S    
Ba2   O5    S    
Ba1   O1    S    
O3    P3    S    
C35   H36   S    
C32   O21   D    
C12   H32   S    
C12   O3    S    
O25   P6    S    
C4    H21   S    
C44   C48   A    
C24   C26   A    
C58   P7    S    
O14   P7    D    
C59   H55   S    
C14   P4    S    
C30   C31   A    
Ba1   O27   S    
C66   H14   S    
C49   C50   S    
C28   H37   S    
C51   H53   S    
O7    P4    S    
C57   C63   A    
C61   H52   S    
C36   P6    S    
C56   H4    S    
C3    C4    S    
C2    H15   S    
O6    P8    S    
C64   H7    S    
O9    P5    S    
C12   C23   S    
C35   C39   D    
C8    H31   S    
C57   P5    S    
C4    H19   S    
C21   H47   S    
C61   C62   D    
C19   H35   S    
O24   P1    S    
C2    O25   S    
C18   C19   A    
C32   N2    Am   
C24   C27   A    
C54   P2    S    
C44   H41   S    
C25   C26   A    
C16   N1    S    
C33   O19   D    
Ba1   O5    S    
Ba1   O8    S    
C43   H39   S    
C56   H5    S    
C53   H50   S    
