data_mof_unit_738.cif
_audit_creation_date              2012-10-26T21:33:17-0400
_audit_creation_method            fapswitch 2.2
_symmetry_space_group_name_H-M    P1
_symmetry_Int_Tables_number       1
_space_group_crystal_system       triclinic
_cell_length_a                    28.530088
_cell_length_b                    18.497725
_cell_length_c                    16.992428
_cell_angle_alpha                 89.987434
_cell_angle_beta                  60.936121
_cell_angle_gamma                 89.98651
_cell_volume                      7838.39897831

loop_
_atom_site_label
_atom_site_type_symbol
_atom_type_description
_atom_site_fract_x
_atom_site_fract_y
_atom_site_fract_z
_atom_type_partial_charge
C1    C     C_R   0.705052 0.276718 0.673756 0.905727
C2    C     C_R   0.101287 0.498007 0.491578 0.015355
C3    C     C_R   0.182917 0.231462 0.910062 0.110999
C4    C     C_R   0.077100 0.095812 0.930786 0.943043
C5    C     C_R   0.930639 0.895082 0.061847 0.896390
C6    C     C_R   0.922799 0.095677 0.069302 0.945596
C7    C     C_R   0.069326 0.894995 0.938231 0.886002
C8    C     C_R   0.577100 0.595811 0.930786 0.943044
C9    C     C_R   0.430639 0.395082 0.061847 0.896390
C10   C     C_R   0.422799 0.595677 0.069302 0.945597
C11   C     C_R   0.569326 0.394995 0.938231 0.886000
C12   C     C_R   0.552826 0.129112 0.486842 0.043490
C13   C     C_R   0.399279 0.998007 0.506835 0.015130
C14   C     C_R   0.448932 0.867251 0.508032 0.033803
C15   C     C_R   0.448024 0.129128 0.510540 0.043410
C16   C     C_R   0.551404 0.867233 0.491255 0.034221
C17   C     C_R   0.052825 0.629112 0.486845 0.043489
C18   C     C_R   0.948932 0.367251 0.508032 0.033802
C19   C     C_R   0.948023 0.629128 0.510544 0.043411
C20   C     C_R   0.051404 0.367233 0.491255 0.034221
C21   C     C_R   0.526830 0.194659 0.490968 -0.165775
C22   C     C_R   0.475344 0.801962 0.502337 -0.139305
C23   C     C_R   0.474107 0.194672 0.505989 -0.167647
C24   C     C_R   0.601287 0.998007 0.491576 0.015355
C25   C     C_R   0.524861 0.801963 0.497515 -0.139282
C26   C     C_R   0.026828 0.694659 0.490972 -0.165775
C27   C     C_R   0.975344 0.301962 0.502337 -0.139305
C28   C     C_R   0.974105 0.694672 0.505993 -0.167646
C29   C     C_R   0.024862 0.301963 0.497514 -0.139282
C30   C     C_R   0.474762 0.063706 0.502326 0.032243
C31   C     C_R   0.525667 0.932844 0.496494 0.031209
C32   C     C_R   0.526002 0.063705 0.495370 0.031923
C33   C     C_R   0.474826 0.932844 0.502191 0.031196
C34   C     C_R   0.974761 0.563706 0.502329 0.032243
C35   C     C_R   0.104550 0.367509 0.472785 0.147344
C36   C     C_R   0.025667 0.432845 0.496495 0.031209
C37   C     C_R   0.026002 0.563705 0.495373 0.031923
C38   C     C_R   0.974826 0.432844 0.502192 0.031196
C39   C     C_R   0.949223 0.498159 0.505238 -0.044178
C40   C     C_R   0.051402 0.498157 0.492966 -0.044174
C41   C     C_R   0.449224 0.998158 0.505236 -0.044178
C42   C     C_R   0.551403 0.998157 0.492965 -0.044174
C43   C     C_R   0.873329 0.432113 0.510965 0.020083
C44   C     C_R   0.126372 0.564053 0.490012 0.020499
C45   C     C_R   0.127071 0.432081 0.488008 0.018832
C46   C     C_R   0.894787 0.627268 0.527857 0.129640
C47   C     C_R   0.874236 0.564054 0.508275 0.021538
C48   C     C_R   0.373329 0.932113 0.510964 0.020083
C49   C     C_R   0.626373 0.064053 0.490011 0.020499
C50   C     C_R   0.627071 0.932080 0.488007 0.018832
C51   C     C_R   0.374237 0.064054 0.508273 0.021537
C52   C     C_R   0.828301 0.434677 0.494896 -0.077054
C53   C     C_R   0.171217 0.563371 0.506359 -0.094469
C54   C     C_R   0.171950 0.434660 0.504436 -0.078154
C55   C     C_R   0.829164 0.563365 0.492553 -0.093738
C56   C     C_R   0.328302 0.934677 0.494896 -0.077053
C57   C     C_R   0.895766 0.367601 0.526545 0.149191
C58   C     C_R   0.671218 0.063371 0.506358 -0.094470
C59   C     C_R   0.671950 0.934660 0.504436 -0.078154
C60   C     C_R   0.329165 0.063365 0.492551 -0.093738
C61   C     C_R   0.808113 0.499185 0.484610 -0.289836
C62   C     C_R   0.192154 0.499179 0.514625 -0.290178
C63   C     C_R   0.308114 0.999185 0.484609 -0.289836
C64   C     C_R   0.692154 0.999179 0.514625 -0.290177
C65   C     C_R   0.105999 0.627234 0.469927 0.128705
C66   C     C_R   0.604550 0.867509 0.472785 0.147345
C67   C     C_R   0.394788 0.127268 0.527853 0.129642
C68   C     C_R   0.395766 0.867601 0.526545 0.149191
C69   C     C_R   0.300314 0.736370 0.323631 0.922333
C70   C     C_R   0.606000 0.127233 0.469925 0.128705
C71   C     C_R   0.725401 0.286746 0.949872 -0.243532
C72   C     C_R   0.287017 0.755507 0.040131 -0.215570
C73   C     C_R   0.275428 0.284058 0.049259 -0.165121
C74   C     C_R   0.712642 0.755501 0.960388 -0.173551
C75   C     C_R   0.225402 0.786746 0.949872 -0.243534
C76   C     C_R   0.787017 0.255507 0.040131 -0.215567
C77   C     C_R   0.775429 0.784057 0.049258 -0.165119
C78   C     C_R   0.212642 0.255501 0.960388 -0.173550
C79   C     C_R   0.775287 0.249171 0.905943 0.433478
C80   C     C_R   0.294991 0.276585 0.326194 0.908126
C81   C     C_R   0.234239 0.784087 0.086980 0.450112
C82   C     C_R   0.225175 0.247342 0.093689 0.397593
C83   C     C_R   0.765610 0.783094 0.913239 0.338280
C84   C     C_R   0.275288 0.749172 0.905943 0.433478
C85   C     C_R   0.734239 0.284087 0.086980 0.450109
C86   C     C_R   0.725177 0.747339 0.093687 0.397595
C87   C     C_R   0.265611 0.283090 0.913238 0.338270
C88   C     C_R   0.808622 0.244554 0.945716 0.357982
C89   C     C_R   0.208728 0.810760 0.039120 0.279382
C90   C     C_R   0.191378 0.244031 0.054629 0.363013
C91   C     C_R   0.699694 0.736360 0.676390 0.923876
C92   C     C_R   0.791851 0.808825 0.960774 0.293414
C93   C     C_R   0.308623 0.744555 0.945716 0.357982
C94   C     C_R   0.708728 0.310761 0.039120 0.279386
C95   C     C_R   0.691379 0.744028 0.054628 0.363012
C96   C     C_R   0.291851 0.308824 0.960774 0.293431
C97   C     C_R   0.636255 0.316125 0.951220 -0.204375
C98   C     C_R   0.352032 0.671042 0.060136 -0.234608
C99   C     C_R   0.364017 0.316017 0.048664 -0.126106
C100  C     C_R   0.647478 0.671475 0.940431 -0.245542
C101  C     C_R   0.136255 0.816125 0.951220 -0.204375
C102  C     C_R   0.205051 0.776718 0.673756 0.905726
C103  C     C_R   0.852032 0.171042 0.060136 -0.234609
C104  C     C_R   0.864017 0.816016 0.048663 -0.126105
C105  C     C_R   0.147477 0.171476 0.940432 -0.245539
C106  C     C_R   0.609775 0.338554 0.903387 -0.090311
C107  C     C_R   0.379746 0.648651 0.106163 -0.089674
C108  C     C_R   0.390165 0.338810 0.096820 -0.119860
C109  C     C_R   0.620005 0.648953 0.894092 -0.087581
C110  C     C_R   0.109775 0.838555 0.903386 -0.090311
C111  C     C_R   0.879746 0.148651 0.106163 -0.089674
C112  C     C_R   0.890165 0.838810 0.096820 -0.119861
C113  C     C_R   0.800314 0.236370 0.323631 0.922333
C114  C     C_R   0.120005 0.148953 0.894092 -0.087581
C115  C     C_R   0.630290 0.318555 0.814746 -0.248038
C116  C     C_R   0.364857 0.674879 0.190254 -0.271301
C117  C     C_R   0.369603 0.318897 0.185474 -0.254365
C118  C     C_R   0.635024 0.675119 0.809909 -0.271467
C119  C     C_R   0.130290 0.818555 0.814745 -0.248039
C120  C     C_R   0.864857 0.174879 0.190254 -0.271302
C121  C     C_R   0.869603 0.818897 0.185475 -0.254365
C122  C     C_R   0.135023 0.175120 0.809909 -0.271470
C123  C     C_R   0.683264 0.297203 0.767977 -0.128518
C124  C     C_R   0.794991 0.776586 0.326194 0.908126
C125  C     C_R   0.326375 0.727749 0.226411 -0.141163
C126  C     C_R   0.316805 0.296858 0.231910 -0.134208
C127  C     C_R   0.673612 0.727851 0.773689 -0.141445
C128  C     C_R   0.183264 0.797203 0.767977 -0.128518
C129  C     C_R   0.826375 0.227749 0.226411 -0.141162
C130  C     C_R   0.816805 0.796859 0.231910 -0.134207
C131  C     C_R   0.173612 0.227851 0.773689 -0.141442
C132  C     C_R   0.715782 0.308127 0.809012 0.190620
C133  C     C_R   0.308860 0.764175 0.171765 0.271649
C134  C     C_R   0.284407 0.306871 0.190459 0.170546
C135  C     C_R   0.199694 0.236360 0.676390 0.923876
C136  C     C_R   0.691162 0.764205 0.828375 0.278662
C137  C     C_R   0.215782 0.808127 0.809012 0.190621
C138  C     C_R   0.808860 0.264175 0.171765 0.271650
C139  C     C_R   0.784408 0.806870 0.190459 0.170545
C140  C     C_R   0.191163 0.264204 0.828375 0.278653
C141  C     C_R   0.696292 0.128132 0.517828 0.916120
C142  C     C_R   0.303355 0.871310 0.482903 0.897415
C143  C     C_R   0.303867 0.128134 0.481690 0.916139
C144  C     C_R   0.696702 0.871301 0.516939 0.896943
C145  C     C_R   0.196292 0.628132 0.517829 0.916120
C146  C     C_R   0.899278 0.498007 0.506836 0.015130
C147  C     C_R   0.803355 0.371310 0.482903 0.897415
C148  C     C_R   0.803866 0.628134 0.481690 0.916138
C149  C     C_R   0.196702 0.371301 0.516940 0.896942
C150  C     C_R   0.691747 0.300012 0.903385 0.079636
C151  C     C_R   0.316696 0.731206 0.090474 0.106891
C152  C     C_R   0.308745 0.298525 0.096072 0.103854
C153  C     C_R   0.682916 0.731462 0.910061 0.110996
C154  C     C_R   0.191747 0.800012 0.903384 0.079637
C155  C     C_R   0.816695 0.231206 0.090474 0.106894
C156  C     C_R   0.808746 0.798524 0.096071 0.103853
H1    H     H_    0.042115 0.250140 0.498664 0.169959
H2    H     H_    0.225216 0.499483 0.529154 0.201711
H3    H     H_    0.274910 0.999493 0.470440 0.201752
H4    H     H_    0.725216 0.999482 0.529154 0.201711
H5    H     H_    0.614538 0.318012 0.023807 0.203610
H6    H     H_    0.358881 0.641864 0.000395 0.215307
H7    H     H_    0.386253 0.317632 0.976191 0.212132
H8    H     H_    0.640461 0.642404 0.000340 0.213528
H9    H     H_    0.114538 0.818013 0.023807 0.203609
H10   H     H_    0.858880 0.141863 0.000395 0.215307
H11   H     H_    0.886254 0.817632 0.976191 0.212135
H12   H     H_    0.954336 0.745873 0.511341 0.165730
H13   H     H_    0.140460 0.142405 0.000342 0.213526
H14   H     H_    0.606816 0.325878 0.780760 0.184401
H15   H     H_    0.381868 0.651588 0.229377 0.195921
H16   H     H_    0.392907 0.326674 0.219678 0.188769
H17   H     H_    0.618066 0.651807 0.770729 0.195647
H18   H     H_    0.106817 0.825878 0.780760 0.184401
H19   H     H_    0.881869 0.151588 0.229377 0.195922
H20   H     H_    0.892907 0.826675 0.219679 0.188770
H21   H     H_    0.118066 0.151808 0.770730 0.195646
H22   H     H_    0.673068 0.397740 0.034514 0.363822
H23   H     H_    0.957992 0.250124 0.501638 0.169960
H24   H     H_    0.383188 0.749674 0.914847 0.332614
H25   H     H_    0.329055 0.385111 0.873448 0.363035
H26   H     H_    0.616735 0.749945 0.086078 0.331421
H27   H     H_    0.173067 0.897739 0.034515 0.363822
H28   H     H_    0.883187 0.249673 0.914846 0.332614
H29   H     H_    0.829045 0.885124 0.873469 0.363050
H30   H     H_    0.116734 0.249948 0.086077 0.331420
H31   H     H_    0.762266 0.195095 0.821599 0.332393
H32   H     H_    0.170190 0.800918 0.202762 0.391614
H33   H     H_    0.238205 0.193361 0.178173 0.330331
H34   H     H_    0.046629 0.745856 0.485426 0.166229
H35   H     H_    0.831408 0.787167 0.798270 0.359382
H36   H     H_    0.262267 0.695096 0.821598 0.332394
H37   H     H_    0.670192 0.300927 0.202761 0.391621
H38   H     H_    0.738207 0.693359 0.178170 0.330331
H39   H     H_    0.331410 0.287153 0.798270 0.359375
H40   H     H_    0.542115 0.750140 0.498666 0.169959
H41   H     H_    0.454337 0.245873 0.511336 0.165730
H42   H     H_    0.457992 0.750124 0.501640 0.169960
H43   H     H_    0.546630 0.245856 0.485422 0.166229
H44   H     H_    0.774910 0.499493 0.470441 0.201752
I1    I     I_    0.148286 0.282830 0.377818 -0.210902
I2    I     I_    0.289608 0.876576 0.198848 -0.271944
I3    I     I_    0.242221 0.407089 0.226459 -0.271441
I4    I     I_    0.712285 0.876014 0.799854 -0.292620
I5    I     I_    0.257824 0.908392 0.771807 -0.306412
I6    I     I_    0.789609 0.376576 0.198847 -0.271950
I7    I     I_    0.742219 0.907087 0.226459 -0.271446
I8    I     I_    0.212294 0.376012 0.799848 -0.292619
I9    I     I_    0.842159 0.686484 0.644418 -0.264031
I10   I     I_    0.851859 0.283297 0.622024 -0.212714
I11   I     I_    0.158905 0.686627 0.353638 -0.257409
I12   I     I_    0.648286 0.782828 0.377819 -0.210902
I13   I     I_    0.342160 0.186485 0.644414 -0.264024
I14   I     I_    0.351858 0.783298 0.622024 -0.212715
I15   I     I_    0.658907 0.186626 0.353636 -0.257406
I16   I     I_    0.757824 0.408392 0.771807 -0.306415
O1    O     O_R   0.746490 0.236330 0.638080 -0.593227
O2    O     O_R   0.325830 0.813840 0.483730 -0.628324
O3    O     O_R   0.325830 0.186160 0.483730 -0.618172
O4    O     O_R   0.674170 0.813840 0.516270 -0.628527
O5    O     O_R   0.174170 0.686160 0.516270 -0.618856
O6    O     O_R   0.825830 0.313840 0.483730 -0.628324
O7    O     O_R   0.825830 0.686160 0.483730 -0.618172
O8    O     O_R   0.174170 0.313840 0.516270 -0.628526
O9    O     O_R   0.739960 0.127620 0.525000 -0.622380
O10   O     O_R   0.260040 0.872380 0.475000 -0.628107
O11   O     O_R   0.260040 0.127620 0.475000 -0.622233
O12   O     O_R   0.253510 0.763670 0.361920 -0.569840
O13   O     O_R   0.739960 0.872380 0.525000 -0.628218
O14   O     O_R   0.239960 0.627620 0.525000 -0.622381
O15   O     O_R   0.760040 0.372380 0.475000 -0.628107
O16   O     O_R   0.760040 0.627620 0.475000 -0.622232
O17   O     O_R   0.239960 0.372380 0.525000 -0.628218
O18   O     O_R   0.680700 0.294870 0.629350 -0.633631
O19   O     O_R   0.319300 0.705130 0.370650 -0.636567
O20   O     O_R   0.319300 0.294870 0.370650 -0.633760
O21   O     O_R   0.680700 0.705130 0.629350 -0.636457
O22   O     O_R   0.180700 0.794870 0.629350 -0.633631
O23   O     O_R   0.253510 0.236330 0.361920 -0.593777
O24   O     O_R   0.819300 0.205130 0.370650 -0.636567
O25   O     O_R   0.819300 0.794870 0.370650 -0.633761
O26   O     O_R   0.180700 0.205130 0.629350 -0.636457
O27   O     O_R   0.062020 0.072840 0.007170 -0.611532
O28   O     O_R   0.937980 0.927160 0.992830 -0.602469
O29   O     O_R   0.937980 0.072840 0.992830 -0.609149
O30   O     O_R   0.062020 0.927160 0.007170 -0.614326
O31   O     O_R   0.562020 0.572840 0.007170 -0.611532
O32   O     O_R   0.437980 0.427160 0.992830 -0.602469
O33   O     O_R   0.437980 0.572840 0.992830 -0.609148
O34   O     O_R   0.746490 0.763670 0.638080 -0.568376
O35   O     O_R   0.562020 0.427160 0.007170 -0.614326
O36   O     O_R   0.947860 0.073950 0.109290 -0.620624
O37   O     O_R   0.052140 0.926050 0.890710 -0.625181
O38   O     O_R   0.052140 0.073950 0.890710 -0.620628
O39   O     O_R   0.947860 0.926050 0.109290 -0.624744
O40   O     O_R   0.447860 0.573950 0.109290 -0.620623
O41   O     O_R   0.552140 0.426050 0.890710 -0.625182
O42   O     O_R   0.552140 0.573950 0.890710 -0.620628
O43   O     O_R   0.447860 0.426050 0.109290 -0.624743
O44   O     O_3   0.669437 0.362371 0.081018 -0.759174
O45   O     O_R   0.246490 0.736330 0.638080 -0.593228
O46   O     O_3   0.361700 0.727129 0.889894 -0.693296
O47   O     O_3   0.332136 0.359732 0.922135 -0.764705
O48   O     O_3   0.638241 0.727187 0.110879 -0.691900
O49   O     O_3   0.169437 0.862370 0.081019 -0.759170
O50   O     O_3   0.861700 0.227127 0.889894 -0.693297
O51   O     O_3   0.832135 0.859732 0.922136 -0.764724
O52   O     O_3   0.138239 0.227191 0.110880 -0.691900
O53   O     O_3   0.793538 0.216541 0.823389 -0.661188
O54   O     O_3   0.207983 0.785983 0.179719 -0.701848
O55   O     O_3   0.206922 0.214635 0.176229 -0.659617
O56   O     O_R   0.753510 0.263670 0.361920 -0.569841
O57   O     O_3   0.792381 0.781997 0.820545 -0.714377
O58   O     O_3   0.293539 0.716542 0.823388 -0.661187
O59   O     O_3   0.707983 0.285984 0.179718 -0.701857
O60   O     O_3   0.706925 0.714630 0.176226 -0.659617
O61   O     O_3   0.292385 0.281983 0.820544 -0.714383
O62   O     O_R   0.753510 0.736330 0.361920 -0.593776
O63   O     O_R   0.246490 0.263670 0.638080 -0.568375
O64   O     O_R   0.674170 0.186160 0.516270 -0.618856
Zn1   Zn    Zn3+2 0.792340 0.208750 0.507670 1.023448
Zn2   Zn    Zn3+2 0.494040 0.500000 0.919480 1.004076
Zn3   Zn    Zn3+2 0.005960 0.000000 0.080520 0.999903
Zn4   Zn    Zn3+2 0.994040 0.000000 0.919480 1.004077
Zn5   Zn    Zn3+2 0.207660 0.791250 0.492330 1.030369
Zn6   Zn    Zn3+2 0.207660 0.208750 0.492330 1.024226
Zn7   Zn    Zn3+2 0.792340 0.791250 0.507670 1.029890
Zn8   Zn    Zn3+2 0.292340 0.708750 0.507670 1.023448
Zn9   Zn    Zn3+2 0.707660 0.291250 0.492330 1.030367
Zn10  Zn    Zn3+2 0.707660 0.708750 0.492330 1.024227
Zn11  Zn    Zn3+2 0.292340 0.291250 0.507670 1.029890
Zn12  Zn    Zn3+2 0.505960 0.500000 0.080520 0.999904

loop_
_geom_bond_atom_site_label_1
_geom_bond_atom_site_label_2
_ccdc_geom_bond_type
C100  C153  A    
C145  O14   A    
C31   C42   A    
C84   O58   S    
C132  C150  A    
C133  C151  A    
O10   Zn5   S    
C74   C83   A    
C14   C33   A    
O32   Zn2   S    
C19   C46   A    
C3    C105  A    
C16   C31   A    
C7    O30   A    
C105  H13   S    
C50   C59   A    
C52   C61   A    
C77   C156  S    
O16   Zn10  S    
C145  O5    A    
C131  C140  A    
H36   O58   S    
C13   C51   A    
C147  O15   A    
C44   C53   A    
C118  H17   S    
O31   Zn12  S    
C97   C150  A    
C113  O56   A    
C132  I16   S    
C117  C126  A    
C4    O27   A    
C119  C128  A    
C47   C146  A    
C100  C109  A    
C24   C50   A    
O6    Zn1   S    
C98   H6    S    
C109  C118  A    
O28   Zn4   S    
C115  C123  A    
O33   Zn2   S    
C144  O13   A    
C127  C136  A    
C124  O62   A    
C35   I1    S    
C101  C110  A    
C34   C39   A    
C116  H15   S    
C9    C108  S    
C120  H19   S    
C72   C151  S    
C91   O21   A    
O29   Zn4   S    
C124  C130  S    
O30   Zn3   S    
O5    Zn5   S    
C91   C127  S    
C135  O63   A    
C66   I12   S    
C35   C45   A    
C15   C30   A    
C16   C25   A    
H32   O54   S    
H33   O55   S    
C143  O11   A    
C76   C155  S    
O64   Zn9   S    
H27   O49   S    
C106  C115  A    
C18   C38   A    
C136  C153  A    
C117  H16   S    
C80   C126  S    
C81   O54   S    
C84   C93   A    
C8    O42   A    
C86   C95   A    
C28   H12   S    
C2    C40   A    
C126  C134  A    
O39   Zn3   S    
C76   C85   A    
C91   O34   A    
O38   Zn4   S    
C78   C87   A    
C122  H21   S    
C123  C132  A    
C27   C29   A    
C6    C111  S    
C80   O20   A    
C58   C141  S    
C63   H3    S    
C121  C130  A    
C71   C79   A    
C134  I3    S    
C99   C108  A    
C79   O53   S    
C11   O41   A    
C144  O4    A    
C37   C40   A    
C102  C128  S    
C60   C143  S    
C38   C39   A    
C75   C84   A    
C71   C150  S    
C53   C62   A    
O18   Zn9   S    
C9    O32   A    
C142  O2    A    
C20   C35   A    
C94   O44   S    
C8    O31   A    
C2    C44   A    
C22   C25   A    
C30   C41   A    
C44   C65   A    
C21   H43   S    
C115  H14   S    
C2    C45   A    
C58   C64   A    
C120  C129  A    
O36   Zn3   S    
C104  C112  A    
C149  O17   A    
C82   O55   S    
O56   Zn9   S    
C15   C67   A    
C62   H2    S    
O19   Zn8   S    
C51   C67   A    
O25   Zn7   S    
C19   C28   A    
C147  O6    A    
C25   H40   S    
C139  I7    S    
C99   H7    S    
C59   C144  S    
C97   H5    S    
C116  C125  A    
C73   C152  S    
C118  C127  A    
C69   O12   A    
C122  C131  A    
H29   O51   S    
C93   O46   S    
H30   O52   S    
C12   C70   A    
C32   C42   A    
C108  C117  A    
C110  C119  A    
C45   C54   A    
C5    C112  S    
C96   O47   S    
C99   C152  A    
C7    C110  S    
C14   C22   A    
C69   O19   A    
C56   C142  S    
C112  C121  A    
C104  H11   S    
O3    Zn11  S    
C55   C148  S    
C101  C154  A    
C55   C61   A    
C89   O49   S    
O20   Zn11  S    
C107  C116  A    
C43   C57   A    
C143  O3    A    
C51   C60   A    
C124  O25   A    
C83   O57   S    
H35   O57   S    
C138  C155  A    
C34   C37   A    
C24   C42   A    
C136  I4    S    
C13   C41   A    
C138  I6    S    
C78   C90   A    
C10   O40   A    
C70   I15   S    
C80   O23   A    
C4    C114  S    
C148  O7    A    
C27   H23   S    
H39   O61   S    
O4    Zn10  S    
C103  C111  A    
O26   Zn6   S    
O12   Zn5   S    
C113  O24   A    
O34   Zn7   S    
O17   Zn11  S    
C148  O16   A    
C149  O8    A    
O9    Zn1   S    
C68   I14   S    
C72   C81   A    
C81   C89   A    
C69   C125  S    
O35   Zn12  S    
C130  C139  A    
C140  I8    S    
C79   C88   A    
C142  O10   A    
C98   C151  A    
O2    Zn8   S    
O62   Zn10  S    
C29   H1    S    
C54   C62   A    
C98   C107  A    
C85   O59   S    
C86   O60   S    
C90   O52   S    
C1    C123  S    
C18   C57   A    
C1    O18   A    
C134  C152  A    
C64   H4    S    
C11   C106  S    
C53   C145  S    
C102  O45   A    
C100  H8    S    
C46   C47   A    
C48   C68   A    
C101  H9    S    
C97   C106  A    
C103  C155  A    
C95   O48   S    
C49   C70   A    
C9    O43   A    
C16   C66   A    
C73   C82   A    
C133  I2    S    
C57   I10   S    
C17   C65   A    
C22   H42   S    
C141  O64   A    
C46   I9    S    
C82   C90   A    
C33   C41   A    
C36   C38   A    
C119  H18   S    
C43   C146  A    
C5    O39   A    
C39   C146  A    
O22   Zn5   S    
C137  C154  A    
C5    O28   A    
C43   C52   A    
O15   Zn9   S    
C20   C36   A    
H31   O53   S    
O14   Zn8   S    
C14   C68   A    
C1    O1    A    
C73   C96   A    
C3    C78   S    
O8    Zn6   S    
C77   C92   A    
H28   O50   S    
C6    O29   A    
C26   H34   S    
C71   C94   A    
C137  I5    S    
C83   C92   A    
C59   C64   A    
C113  C129  S    
C60   C63   A    
C17   C26   A    
O43   Zn12  S    
C135  O26   A    
C131  C135  S    
O21   Zn10  S    
C121  H20   S    
C87   O61   S    
O27   Zn3   S    
C92   O51   S    
C129  C138  A    
C31   C33   A    
C76   C88   A    
O37   Zn4   S    
O45   Zn8   S    
C15   C23   A    
C12   C32   A    
C10   C107  S    
C61   H44   S    
C54   C149  S    
C20   C29   A    
C141  O9    A    
C102  O22   A    
C105  C114  A    
C36   C40   A    
O42   Zn2   S    
O11   Zn6   S    
C75   C89   A    
C12   C21   A    
C11   O35   A    
C49   C58   A    
C74   C153  S    
C111  C120  A    
C128  C137  A    
H24   O46   S    
C85   C94   A    
O1    Zn1   S    
H25   O47   S    
H26   O48   S    
C87   C96   A    
C56   C63   A    
C17   C37   A    
C104  C156  A    
C50   C66   A    
H22   O44   S    
O7    Zn7   S    
O23   Zn6   S    
C77   C86   A    
C52   C147  S    
O63   Zn11  S    
O24   Zn1   S    
O41   Zn2   S    
C67   I13   S    
C72   C93   A    
O40   Zn12  S    
C47   C55   A    
C125  C133  A    
C24   C49   A    
C48   C56   A    
C74   C95   A    
C18   C27   A    
C19   C34   A    
C13   C48   A    
H37   O59   S    
C23   H41   S    
C26   C28   A    
C6    O36   A    
C10   O33   A    
C21   C23   A    
C8    C109  S    
C30   C32   A    
C75   C154  S    
C88   O50   S    
C139  C156  A    
C4    O38   A    
C65   I11   S    
C114  C122  A    
O13   Zn7   S    
C103  H10   S    
C3    C140  A    
C7    O37   A    
H38   O60   S    
