data_mof_unit_1694.cif
_audit_creation_date              2012-12-10T17:33:44-0500
_audit_creation_method            fapswitch 2.2
_symmetry_space_group_name_H-M    P1
_symmetry_Int_Tables_number       1
_space_group_crystal_system       triclinic
_cell_length_a                    11.66449
_cell_length_b                    12.468004
_cell_length_c                    13.216482
_cell_angle_alpha                 117.41794
_cell_angle_beta                  77.474011
_cell_angle_gamma                 101.510071
_cell_volume                      1654.53709129

loop_
_atom_site_label
_atom_site_type_symbol
_atom_type_description
_atom_site_fract_x
_atom_site_fract_y
_atom_site_fract_z
_atom_type_partial_charge
C1    C     C_R   0.509305 0.854729 0.285923 0.904339
C2    C     C_R   0.509197 0.225778 0.836834 -0.325213
C3    C     C_R   0.585564 0.813103 0.079495 -0.149789
C4    C     C_R   0.661913 0.736046 0.988658 0.329367
C5    C     C_R   0.660071 0.617145 0.977233 0.491135
C6    C     C_R   0.556312 0.564793 0.024238 -0.075381
C7    C     C_R   0.486088 0.646029 0.121301 -0.204782
C8    C     C_R   0.523003 0.437007 0.984033 -0.066355
C9    C     C_R   0.437932 0.395975 0.056767 -0.229031
C10   C     C_R   0.362397 0.476347 0.146134 0.406896
C11   C     C_R   0.383344 0.600171 0.175194 0.457484
C12   C     C_R   0.715602 0.999448 0.498829 0.790710
C13   C     C_R   0.559949 0.348604 0.870658 0.487885
C14   C     C_R   0.464235 0.186448 0.924362 -0.192001
C15   C     C_R   0.519388 0.772040 0.160293 -0.211385
C16   C     C_R   0.708167 0.361559 0.348913 -0.116742
C17   C     C_R   0.319376 0.736901 0.613520 0.018901
C18   C     C_R   0.268024 0.621152 0.604616 0.287927
C19   C     C_R   0.330814 0.520661 0.538299 0.379281
C20   C     C_R   0.453416 0.541260 0.510293 -0.150376
C21   C     C_R   0.502922 0.658803 0.516405 0.103474
C22   C     C_R   0.528219 0.445910 0.467750 -0.079377
C23   C     C_R   0.496347 0.144634 0.713271 0.840038
C24   C     C_R   0.635186 0.455971 0.397319 -0.064864
C25   C     C_R   0.669161 0.566170 0.385941 -0.069371
C26   C     C_R   0.623619 0.671149 0.474235 -0.022984
C27   C     C_R   0.502530 0.345477 0.496975 0.169655
C28   C     C_R   0.669306 0.254673 0.365472 0.035684
C29   C     C_R   0.284531 0.999790 0.499925 0.840140
C30   C     C_1   0.837645 0.999861 0.498512 -0.102592
C31   C     C_1   0.940341 0.999915 0.498532 0.032145
C32   C     C_1   0.060134 0.999525 0.498950 0.025051
C33   C     C_1   0.162667 0.999360 0.499457 -0.096366
C34   C     C_R   0.427255 0.273115 0.035620 0.472938
Cu1   Cu    Cu3+1 0.526510 0.098270 0.475420 1.018801
Cu2   Cu    Cu3+1 0.473490 0.901730 0.524580 1.041494
N1    N     N_R   0.566700 0.246290 0.438210 -0.276365
N2    N     N_R   0.434010 0.754320 0.561170 -0.225423
O1    O     O_R   0.533340 0.972510 0.318140 -0.551258
O2    O     O_R   0.488570 0.806530 0.359650 -0.552809
O3    O     O_R   0.685190 0.083000 0.479260 -0.595548
O4    O     O_R   0.640410 0.917020 0.520770 -0.558813
O5    O     O_R   0.511430 0.193470 0.640350 -0.552121
O6    O     O_R   0.466660 0.027490 0.681860 -0.527146
O7    O     O_R   0.359590 0.082980 0.479230 -0.538308
O8    O     O_R   0.314810 0.917000 0.520740 -0.571409
C35   C     C_2   0.462648 0.058909 0.904205 1.014625
O9    O     O_2   0.545667 0.002199 0.843820 -0.516928
O10   O     O_R   0.368506 0.004598 0.956903 -0.704758
H1    H     H_    0.377303 0.916924 0.934806 0.327885
C36   C     C_2   0.734116 0.571275 0.278347 0.874772
O11   O     O_2   0.789497 0.666549 0.280941 -0.597247
O12   O     O_R   0.726779 0.468191 0.173060 -0.775901
H2    H     H_    0.774394 0.482016 0.105501 0.344391
C37   C     C_2   0.832141 0.381608 0.296496 0.889329
O13   O     O_2   0.869632 0.308287 0.200099 -0.581901
O14   O     O_R   0.905354 0.484945 0.358813 -0.717508
H3    H     H_    0.987019 0.490974 0.314725 0.336522
C38   C     C_2   0.431734 0.367697 0.611205 0.960371
O15   O     O_2   0.341465 0.302000 0.620664 -0.570158
O16   O     O_R   0.465890 0.470491 0.708524 -0.786959
H4    H     H_    0.410549 0.478595 0.781734 0.311045
C39   C     C_2   0.239780 0.833823 0.673842 0.968800
O17   O     O_2   0.142322 0.816391 0.644889 -0.557100
O18   O     O_R   0.271801 0.941896 0.766333 -0.752112
H5    H     H_    0.208976 0.999703 0.800088 0.327015
O19   O     O_3   0.274859 0.402256 0.502393 -0.600336
C40   C     C_3   0.179100 0.383392 0.444006 -0.111334
H6    H     H_    0.176510 0.290360 0.372284 0.182765
H7    H     H_    0.185503 0.448052 0.406044 0.197891
H8    H     H_    0.094668 0.388384 0.503242 0.207791
O20   O     O_3   0.152116 0.605101 0.653564 -0.549146
C41   C     C_3   0.152681 0.591315 0.753498 -0.285191
H9    H     H_    0.193795 0.509147 0.733108 0.193999
H10   H     H_    0.198226 0.673872 0.818121 0.150184
H11   H     H_    0.059912 0.578990 0.792728 0.187245
C42   C     C_2   0.705993 0.750920 0.558363 0.873118
O21   O     O_2   0.667476 0.818319 0.657009 -0.552524
O22   O     O_R   0.828149 0.748013 0.525128 -0.709330
H12   H     H_    0.875010 0.806516 0.589607 0.345295
O23   O     O_3   0.265995 0.434622 0.205690 -0.563292
C43   C     C_3   0.174068 0.380669 0.137211 -0.200302
H13   H     H_    0.203874 0.314848 0.047531 0.157114
H14   H     H_    0.130978 0.451473 0.135599 0.147145
H15   H     H_    0.106898 0.328833 0.176272 0.217615
O24   O     O_3   0.374664 0.235986 0.120682 -0.537326
C44   C     C_3   0.447183 0.284846 0.208128 -0.206369
H16   H     H_    0.452788 0.385508 0.253812 0.187900
H17   H     H_    0.537590 0.256202 0.173111 0.168486
H18   H     H_    0.407405 0.250277 0.273197 0.196888
O25   O     O_3   0.629815 0.384114 0.789513 -0.540706
C45   C     C_3   0.735224 0.327200 0.748172 -0.122311
H19   H     H_    0.720127 0.230578 0.686849 0.125292
H20   H     H_    0.777209 0.333323 0.819066 0.165205
H21   H     H_    0.799352 0.373610 0.701484 0.187807
C46   C     C_2   0.563027 0.927833 0.083383 0.967837
O26   O     O_2   0.634076 0.979210 0.032347 -0.487071
O27   O     O_R   0.456284 0.974468 0.142810 -0.783251
H22   H     H_    0.449337 0.051675 0.139027 0.352899
O28   O     O_3   0.759626 0.556177 0.929380 -0.585495
C47   C     C_3   0.857224 0.626950 0.986217 -0.332599
H23   H     H_    0.921072 0.565031 0.973043 0.165455
H24   H     H_    0.832124 0.678992 0.080840 0.198947
H25   H     H_    0.903452 0.689803 0.948378 0.220790
O29   O     O_3   0.745834 0.782122 0.922365 -0.546490
C48   C     C_3   0.739151 0.707752 0.804352 -0.099371
H26   H     H_    0.797510 0.754172 0.754819 0.206587
H27   H     H_    0.647567 0.693470 0.784833 0.177128
H28   H     H_    0.772538 0.619057 0.774032 0.187767
O30   O     O_3   0.302527 0.674761 0.258519 -0.542002
C49   C     C_3   0.236204 0.712957 0.205860 -0.297444
H29   H     H_    0.207826 0.637991 0.124688 0.127922
H30   H     H_    0.286480 0.789823 0.188748 0.184419
H31   H     H_    0.155009 0.746223 0.266301 0.209914
C50   C     C_2   0.753448 0.163307 0.320133 0.959746
O31   O     O_2   0.735289 0.065309 0.238506 -0.566537
O32   O     O_R   0.858590 0.193461 0.366923 -0.783400
H32   H     H_    0.911098 0.125427 0.327300 0.328960

loop_
_geom_bond_atom_site_label_1
_geom_bond_atom_site_label_2
_ccdc_geom_bond_type
C16   C28   A    
C44   H16   S    
C39   O18   S    
C8    C13   A    
C41   H9    S    
Cu2   O4    S    
C19   C20   A    
C21   C26   A    
O23   C43   S    
C35   O10   S    
C42   O21   D    
C7    C11   A    
C47   H23   S    
Cu1   N1    S    
C5    C6    A    
C48   H26   S    
C50   O31   D    
C29   C33   S    
C23   O5    A    
C18   C19   A    
C34   O24   S    
C2    C13   A    
O30   C49   S    
O28   C47   S    
C12   O4    A    
C1    O2    A    
C21   N2    A    
C49   H29   S    
C40   H6    S    
C50   O32   S    
C46   O27   S    
C19   O19   S    
C3    C46   S    
C1    C15   S    
Cu1   O5    S    
C9    C10   A    
C7    C15   A    
C38   O15   D    
C16   C24   A    
C13   O25   S    
C11   O30   S    
C41   H10   S    
Cu1   O3    S    
C42   O22   S    
C18   O20   S    
C38   O16   S    
C26   C42   S    
C36   O11   D    
Cu2   O2    S    
C24   C25   A    
O25   C45   S    
O24   C44   S    
C8    C9    A    
C6    C8    A    
C25   C26   A    
O12   H2    S    
C43   H13   S    
C45   H21   S    
C23   O6    A    
O19   C40   S    
C29   O7    A    
C36   O12   S    
Cu1   Cu2   S    
Cu1   O1    S    
C25   C36   S    
C12   O3    A    
C28   C50   S    
C35   O9    D    
C5    O28   S    
C46   O26   D    
C37   O13   D    
C45   H20   S    
C17   C18   A    
C49   H30   S    
Cu2   O8    S    
C6    C7    A    
C40   H7    S    
C20   C22   A    
O10   H1    S    
C47   H25   S    
C43   H14   S    
C22   C27   A    
C37   O14   S    
C9    C34   A    
C41   H11   S    
C22   C24   A    
O22   H12   S    
Cu2   O6    S    
C3    C4    A    
Cu1   O7    S    
C3    C15   A    
O29   C48   S    
C12   C30   S    
C31   C32   S    
O20   C41   S    
C14   C34   A    
C14   C35   S    
C43   H15   S    
C4    O29   S    
C10   O23   S    
C29   O8    A    
C32   C33   T    
C44   H17   S    
C16   C37   S    
C27   C38   S    
O32   H32   S    
C17   C39   S    
O14   H3    S    
C30   C31   T    
C48   H27   S    
C28   N1    A    
C27   N1    A    
C40   H8    S    
Cu2   N2    S    
C45   H19   S    
C49   H31   S    
C17   N2    A    
O18   H5    S    
O16   H4    S    
C2    C14   A    
C10   C11   A    
C1    O1    A    
C39   O17   D    
C4    C5    A    
C20   C21   A    
C47   H24   S    
O27   H22   S    
C44   H18   S    
C2    C23   S    
C48   H28   S    
