data_mof_unit_2333.cif
_audit_creation_date              2012-10-26T17:12:28-0400
_audit_creation_method            fapswitch 2.2
_symmetry_space_group_name_H-M    P1
_symmetry_Int_Tables_number       1
_space_group_crystal_system       triclinic
_cell_length_a                    16.799587
_cell_length_b                    16.748241
_cell_length_c                    16.766258
_cell_angle_alpha                 67.816021
_cell_angle_beta                  67.67164
_cell_angle_gamma                 67.753059
_cell_volume                      3885.43940004

loop_
_atom_site_label
_atom_site_type_symbol
_atom_type_description
_atom_site_fract_x
_atom_site_fract_y
_atom_site_fract_z
_atom_type_partial_charge
C1    C     C_R   0.028148 0.828171 0.564663 0.550917
C2    C     C_R   0.028508 0.564440 0.827977 0.553547
C3    C     C_3   0.308685 0.744332 0.983796 -0.108403
C4    C     C_3   0.848742 0.695223 0.390791 -0.136223
C5    C     C_3   0.977763 0.312703 0.740832 -0.102586
C6    C     C_R   0.171504 0.973221 0.434853 0.539456
C7    C     C_R   0.828484 0.026742 0.565175 0.559531
C8    C     C_R   0.454539 0.060886 0.706432 -0.119827
C9    C     C_R   0.546766 0.931914 0.294819 -0.112805
C10   C     C_R   0.076177 0.706542 0.449319 -0.120797
C11   C     C_R   0.077009 0.255322 0.484886 -0.101991
C12   C     C_R   0.707117 0.449731 0.069972 -0.100365
C13   C     C_R   0.255521 0.486063 0.075552 -0.104362
C14   C     C_R   0.292973 0.938175 0.546621 -0.088918
C15   C     C_R   0.986783 0.168210 0.430054 0.552296
C16   C     C_R   0.707874 0.058421 0.454395 -0.115020
C17   C     C_R   0.539585 0.298585 0.945421 -0.097287
C18   C     C_R   0.449011 0.704354 0.078002 -0.110747
C19   C     C_R   0.949652 0.540075 0.296755 -0.089623
C20   C     C_R   0.075823 0.448954 0.704133 -0.111659
C21   C     C_R   0.545126 0.017413 0.544043 -0.082810
C22   C     C_R   0.457834 0.975720 0.456835 -0.087156
C23   C     C_R   0.057440 0.534022 0.530909 -0.081509
C24   C     C_R   0.030235 0.442670 0.436692 -0.088026
C25   C     C_R   0.533684 0.532949 0.054226 -0.078966
C26   C     C_R   0.828158 0.564818 0.027746 0.545859
C27   C     C_R   0.442441 0.439863 0.025395 -0.081259
C28   C     C_R   0.588537 0.008741 0.455512 0.046356
C29   C     C_R   0.415587 0.982622 0.545612 0.023675
C30   C     C_R   0.066730 0.440574 0.565694 0.011696
C31   C     C_R   0.015626 0.536680 0.405410 0.027142
C32   C     C_R   0.440215 0.567654 0.064957 0.014868
C33   C     C_R   0.536336 0.409048 0.009403 0.010285
C34   C     C_R   0.547502 0.979532 0.415067 0.047724
C35   C     C_R   0.455930 0.011792 0.586355 0.021957
C36   C     C_R   0.393082 0.513207 0.063013 0.007118
C37   C     C_R   0.168162 0.430073 0.986625 0.549963
C38   C     C_R   0.578349 0.447570 0.038972 0.010028
C39   C     C_R   0.066112 0.393310 0.510724 0.003103
C40   C     C_R   0.044297 0.579007 0.444671 0.021297
C41   C     C_R   0.407354 0.044555 0.663019 0.286147
C42   C     C_R   0.595655 0.943746 0.340206 0.318334
C43   C     C_R   0.063792 0.662590 0.399794 0.290215
C44   C     C_R   0.101673 0.299209 0.524240 0.298910
C45   C     C_R   0.660875 0.402089 0.059859 0.296891
C46   C     C_R   0.299408 0.525643 0.099971 0.297523
C47   C     C_R   0.339470 0.949419 0.593226 0.322509
C48   C     C_R   0.565093 0.026867 0.828449 0.551624
C49   C     C_R   0.666090 0.039853 0.407208 0.310058
C50   C     C_R   0.584830 0.343922 0.960687 0.299792
C51   C     C_R   0.399179 0.656199 0.073888 0.292375
C52   C     C_R   0.966479 0.585317 0.341045 0.320049
C53   C     C_R   0.072235 0.399572 0.655160 0.289251
C54   C     C_R   0.548266 0.042557 0.677642 -0.025022
C55   C     C_R   0.452770 0.953350 0.322955 -0.024711
C56   C     C_R   0.059013 0.674649 0.543242 -0.026029
C57   C     C_R   0.024802 0.303706 0.424163 -0.037714
C58   C     C_R   0.674988 0.543614 0.056263 -0.033570
C59   C     C_R   0.434979 0.972830 0.171554 0.551222
C60   C     C_R   0.303673 0.425540 0.022698 -0.036309
C61   C     C_R   0.322328 0.955318 0.452663 -0.036797
C62   C     C_R   0.678360 0.041652 0.548065 -0.026411
C63   C     C_R   0.445694 0.319768 0.972698 -0.031557
C64   C     C_R   0.542913 0.673317 0.060993 -0.032525
C65   C     C_R   0.975890 0.445916 0.318176 -0.034721
C66   C     C_R   0.060666 0.542863 0.673009 -0.032977
C67   C     C_R   0.599784 0.039894 0.730010 -0.023901
C68   C     C_R   0.400374 0.958977 0.270070 -0.023170
C69   C     C_R   0.046075 0.728778 0.597944 -0.023719
C70   C     C_R   0.434971 0.171654 0.973013 0.549755
C71   C     C_R   0.992812 0.261276 0.388016 -0.019607
C72   C     C_R   0.728882 0.598001 0.044948 -0.025734
C73   C     C_R   0.261161 0.388363 0.991962 -0.019473
C74   C     C_R   0.269765 0.959887 0.400374 -0.025007
C75   C     C_R   0.730230 0.039583 0.599783 -0.023890
C76   C     C_R   0.397828 0.268873 0.966567 -0.026869
C77   C     C_R   0.597451 0.728393 0.046841 -0.024794
C78   C     C_R   0.967849 0.397915 0.268454 -0.028459
C79   C     C_R   0.046484 0.597469 0.728340 -0.024883
C80   C     C_R   0.689934 0.037914 0.689975 -0.160990
C81   C     C_R   0.564361 0.828052 0.028697 0.547739
C82   C     C_R   0.309791 0.962652 0.309855 -0.159505
C83   C     C_R   0.040204 0.688924 0.689098 -0.158804
C84   C     C_R   0.968984 0.308029 0.308084 -0.158549
C85   C     C_R   0.688771 0.689031 0.040310 -0.160462
C86   C     C_R   0.307897 0.308016 0.968508 -0.157296
C87   C     C_R   0.590977 0.032823 0.590317 0.001067
C88   C     C_R   0.410646 0.962310 0.410447 -0.003913
C89   C     C_R   0.058841 0.583856 0.582696 0.003776
C90   C     C_R   0.009835 0.397552 0.393278 -0.004397
C91   C     C_R   0.583856 0.583556 0.057158 0.001881
C92   C     C_R   0.973267 0.434915 0.171649 0.535153
C93   C     C_R   0.397411 0.395529 0.006171 -0.000238
C94   C     C_3   0.272310 0.061783 0.776099 -0.041130
C95   C     C_3   0.733819 0.897090 0.237564 -0.119102
C96   C     C_3   0.059635 0.785049 0.272476 -0.044649
C97   C     C_3   0.249826 0.262226 0.510364 -0.082874
C98   C     C_3   0.648750 0.267205 0.159066 -0.098121
C99   C     C_3   0.259113 0.505765 0.249848 -0.082770
C100  C     C_3   0.368686 0.835011 0.714358 -0.141467
C101  C     C_3   0.782046 0.055109 0.274000 -0.114991
C102  C     C_3   0.695044 0.391425 0.842002 -0.115468
Cu1   Cu    Cu3+1 0.995180 0.995180 0.424630 0.869629
Cu2   Cu    Cu3+1 0.004820 0.004820 0.575370 0.943390
Cu3   Cu    Cu3+1 0.995180 0.424630 0.995180 0.922356
Cu4   Cu    Cu3+1 0.004820 0.575370 0.004820 0.938037
Cu5   Cu    Cu3+1 0.424630 0.995180 0.995180 0.889899
Cu6   Cu    Cu3+1 0.575370 0.004820 0.004820 0.918646
H1    H     H_    0.416945 0.094601 0.758349 0.136113
H2    H     H_    0.410801 0.766483 0.095137 0.166878
H3    H     H_    0.910488 0.579976 0.249575 0.150856
H4    H     H_    0.090848 0.410215 0.766925 0.168689
H5    H     H_    0.729962 0.032907 0.730211 0.158447
H6    H     H_    0.269275 0.969670 0.269185 0.157644
H7    H     H_    0.027333 0.730708 0.731074 0.158163
H8    H     H_    0.954496 0.273240 0.274520 0.152142
H9    H     H_    0.730285 0.730885 0.028148 0.155652
H10   H     H_    0.273032 0.273748 0.955129 0.153203
H11   H     H_    0.266849 0.119392 0.797312 0.105066
H12   H     H_    0.582048 0.899088 0.242104 0.128399
H13   H     H_    0.306779 0.997226 0.817003 0.106715
H14   H     H_    0.203161 0.059486 0.789493 0.171100
H15   H     H_    0.710497 0.957257 0.184932 0.129335
H16   H     H_    0.728031 0.835274 0.232685 0.111479
H17   H     H_    0.806069 0.887805 0.225147 0.136859
H18   H     H_    0.112866 0.813492 0.264908 0.103299
H19   H     H_    0.994052 0.817162 0.314213 0.110271
H20   H     H_    0.052135 0.801643 0.204636 0.158480
H21   H     H_    0.249918 0.333731 0.488972 0.091245
H22   H     H_    0.268425 0.237669 0.450790 0.096286
H23   H     H_    0.103241 0.763216 0.413300 0.139484
H24   H     H_    0.302150 0.222750 0.546028 0.183460
H25   H     H_    0.575291 0.289065 0.167889 0.110074
H26   H     H_    0.663344 0.277814 0.213149 0.113004
H27   H     H_    0.671046 0.194389 0.165440 0.189332
H28   H     H_    0.330343 0.475885 0.251086 0.091301
H29   H     H_    0.227096 0.452157 0.266044 0.097637
H30   H     H_    0.224106 0.540688 0.303336 0.177271
H31   H     H_    0.438910 0.836665 0.697478 0.117157
H32   H     H_    0.366096 0.786222 0.685679 0.108005
H33   H     H_    0.344540 0.810905 0.788243 0.121809
H34   H     H_    0.105204 0.183500 0.497485 0.166835
H35   H     H_    0.823036 0.991967 0.310168 0.129211
H36   H     H_    0.800382 0.114493 0.268457 0.103197
H37   H     H_    0.798514 0.051405 0.204649 0.132045
H38   H     H_    0.672216 0.459417 0.852133 0.116139
H39   H     H_    0.664410 0.391086 0.793793 0.097849
H40   H     H_    0.768524 0.375744 0.811682 0.130569
H41   H     H_    0.335415 0.695854 0.942961 0.104950
H42   H     H_    0.345808 0.796302 0.952858 0.099999
H43   H     H_    0.237959 0.778814 0.983221 0.146094
H44   H     H_    0.858294 0.665233 0.459269 0.109759
H45   H     H_    0.766316 0.410282 0.092004 0.161459
H46   H     H_    0.797645 0.671536 0.385834 0.115282
H47   H     H_    0.822871 0.768764 0.380688 0.180829
H48   H     H_    0.938699 0.341106 0.690842 0.105291
H49   H     H_    0.946698 0.350096 0.792693 0.114006
H50   H     H_    0.974495 0.242488 0.774971 0.152985
H51   H     H_    0.184013 0.497815 0.104947 0.165233
H52   H     H_    0.237777 0.909460 0.586707 0.161502
H53   H     H_    0.759230 0.092572 0.416772 0.136686
H54   H     H_    0.579191 0.250356 0.907072 0.153075
O1    O     O_R   0.124540 0.978640 0.385460 -0.517144
O2    O     O_R   0.124540 0.385460 0.978640 -0.512548
O3    O     O_R   0.021360 0.875460 0.614540 -0.506428
O4    O     O_R   0.978640 0.124540 0.385460 -0.515911
O5    O     O_R   0.013780 0.867370 0.487190 -0.521348
O6    O     O_R   0.986220 0.132630 0.512810 -0.508598
O7    O     O_R   0.867370 0.487190 0.013780 -0.514456
O8    O     O_R   0.132630 0.512810 0.986220 -0.511374
O9    O     O_R   0.487190 0.013780 0.867370 -0.521053
O10   O     O_R   0.512810 0.986220 0.132630 -0.514664
O11   O     O_R   0.512810 0.132630 0.986220 -0.506445
O12   O     O_R   0.875460 0.021360 0.614540 -0.500331
O13   O     O_R   0.487190 0.867370 0.013780 -0.519893
O14   O     O_R   0.986220 0.512810 0.132630 -0.519918
O15   O     O_R   0.013780 0.487190 0.867370 -0.518090
O16   O     O_R   0.132630 0.986220 0.512810 -0.521080
O17   O     O_R   0.867370 0.013780 0.487190 -0.519139
O18   O     O_3   0.314189 0.074858 0.683119 -0.516016
O19   O     O_3   0.688428 0.908156 0.324555 -0.562240
O20   O     O_3   0.085217 0.690675 0.306376 -0.505598
O21   O     O_3   0.166586 0.249593 0.569141 -0.487062
O22   O     O_3   0.696394 0.310326 0.074030 -0.528486
O23   O     O_R   0.978640 0.385460 0.124540 -0.512824
O24   O     O_3   0.250808 0.568558 0.166894 -0.482103
O25   O     O_3   0.312681 0.921123 0.685774 -0.542262
O26   O     O_3   0.689056 0.066058 0.313706 -0.564665
O27   O     O_3   0.676558 0.325746 0.923987 -0.515802
O28   O     O_3   0.311209 0.700225 0.073319 -0.506426
O29   O     O_3   0.929706 0.677124 0.323727 -0.553099
O30   O     O_3   0.068307 0.312250 0.699216 -0.513961
O31   O     O_R   0.021360 0.614540 0.875460 -0.501642
O32   O     O_R   0.385460 0.124540 0.978640 -0.511149
O33   O     O_R   0.614540 0.875460 0.021360 -0.511931
O34   O     O_R   0.614540 0.021360 0.875460 -0.505722
O35   O     O_R   0.385460 0.978640 0.124540 -0.509304
O36   O     O_R   0.875460 0.614540 0.021360 -0.509275

loop_
_geom_bond_atom_site_label_1
_geom_bond_atom_site_label_2
_ccdc_geom_bond_type
C95   H16   S    
C4    H46   S    
C21   C87   A    
Cu1   O5    S    
C22   C29   A    
C76   C86   A    
C26   C72   S    
C64   C77   A    
C41   O18   S    
C34   C42   A    
C31   C52   A    
C18   C64   A    
C24   C39   A    
C72   C85   A    
C13   C60   A    
Cu5   O9    S    
C27   C33   A    
C66   C79   A    
C98   H25   S    
C101  H37   S    
C9    C42   A    
Cu3   O7    S    
C29   C47   A    
C81   O13   A    
C20   C66   A    
C100  H31   S    
C97   H22   S    
C100  H33   S    
C54   C87   A    
C59   C68   S    
C101  H36   S    
C81   O33   A    
C63   C76   A    
C1    O5    A    
C23   C40   A    
C7    O12   A    
C60   C73   A    
C102  O27   S    
C31   C40   A    
C96   H20   S    
C28   C49   A    
Cu3   O23   S    
C55   C88   A    
C50   O27   S    
C10   H23   S    
C38   C45   A    
C2    C79   S    
C100  H32   S    
C102  H40   S    
Cu2   O3    S    
C20   H4    S    
C19   C52   A    
C40   C43   A    
Cu2   O16   S    
C26   O7    A    
C99   H28   S    
Cu5   Cu6   S    
C23   C89   A    
C99   H30   S    
C36   C46   A    
C9    C55   A    
C2    O15   A    
C22   C88   A    
Cu6   O34   S    
C101  O26   S    
C10   C56   A    
C58   C91   A    
C12   H45   S    
Cu4   O36   S    
C12   C58   A    
C60   C93   A    
C25   C32   A    
C28   C34   A    
C84   H8    S    
C48   O34   A    
Cu4   O8    S    
C4    O29   S    
C16   C62   A    
C74   C82   A    
C22   C34   A    
C11   H34   S    
C18   C51   A    
C55   C68   A    
Cu4   O31   S    
C42   O19   S    
C65   C90   A    
C4    H44   S    
C30   C53   A    
C3    H41   S    
C25   C91   A    
C57   C90   A    
C62   C87   A    
C7    O17   A    
C23   C30   A    
C83   H7    S    
C100  O25   S    
C8    C41   A    
C82   H6    S    
C86   H10   S    
C3    O28   S    
Cu3   O15   S    
C37   O8    A    
Cu5   O35   S    
C92   O23   A    
C95   O19   S    
Cu2   O12   S    
C54   C67   A    
C78   C92   S    
C33   C50   A    
C6    C74   S    
C98   H27   S    
C1    C69   S    
C96   H19   S    
C14   H52   S    
C52   O29   S    
C32   C51   A    
C69   C83   A    
C61   C88   A    
C102  H39   S    
Cu2   O6    S    
C48   O9    A    
C53   O30   S    
C94   H11   S    
C95   H17   S    
C80   H5    S    
C77   C81   S    
C70   O32   A    
Cu6   O11   S    
C101  H35   S    
Cu3   O2    S    
C96   H18   S    
C11   C44   A    
C15   O4    A    
C94   O18   S    
C57   C71   A    
Cu6   O33   S    
C85   H9    S    
C44   O21   S    
C14   C47   A    
C51   O28   S    
C37   O2    A    
C21   C35   A    
C94   H14   S    
C56   C89   A    
C21   C28   A    
C5    H50   S    
C5    H49   S    
Cu6   O10   S    
C70   C76   S    
C27   C36   A    
C62   C75   A    
C27   C93   A    
C66   C89   A    
C47   O25   S    
C59   O10   A    
C25   C38   A    
C16   C49   A    
C71   C84   A    
C75   C80   A    
C95   H15   S    
C9    H12   S    
C37   C73   S    
C3    H42   S    
C65   C78   A    
C10   C43   A    
Cu1   O1    S    
C92   O14   A    
C1    O3    A    
C67   C80   A    
C18   H2    S    
C97   H24   S    
C96   O20   S    
C20   C53   A    
C24   C90   A    
C17   C50   A    
C7    C75   S    
C5    O30   S    
C32   C36   A    
C39   C44   A    
C12   C45   A    
C19   H3    S    
C16   H53   S    
C5    H48   S    
C15   C71   S    
Cu3   Cu4   S    
C29   C35   A    
C43   O20   S    
C3    H43   S    
C33   C38   A    
C15   O6    A    
C8    C54   A    
C2    O31   A    
C68   C82   A    
C61   C74   A    
C24   C31   A    
C97   H21   S    
C8    H1    S    
C17   C63   A    
C79   C83   A    
C14   C61   A    
C58   C72   A    
C13   C46   A    
C49   O26   S    
Cu5   O13   S    
C59   O35   A    
C30   C39   A    
C19   C65   A    
Cu1   O17   S    
C98   H26   S    
C99   O24   S    
C48   C67   S    
C98   O22   S    
C26   O36   A    
C70   O11   A    
C73   C86   A    
C17   H54   S    
C77   C85   A    
C94   H13   S    
C78   C84   A    
C4    H47   S    
C6    O1    A    
C46   O24   S    
Cu1   O4    S    
C56   C69   A    
Cu1   Cu2   S    
C35   C41   A    
Cu4   O14   S    
C99   H29   S    
C97   O21   S    
C64   C91   A    
C63   C93   A    
C11   C57   A    
C13   H51   S    
Cu5   O32   S    
C102  H38   S    
C6    O16   A    
C45   O22   S    
