data_mof_unit_4797.cif
_audit_creation_date              2012-12-10T20:25:41-0500
_audit_creation_method            fapswitch 2.2
_symmetry_space_group_name_H-M    P1
_symmetry_Int_Tables_number       1
_space_group_crystal_system       triclinic
_cell_length_a                    8.562987
_cell_length_b                    10.649202
_cell_length_c                    9.885583
_cell_angle_alpha                 89.968342
_cell_angle_beta                  98.029001
_cell_angle_gamma                 90.698538
_cell_volume                      892.552745974

loop_
_atom_site_label
_atom_site_type_symbol
_atom_type_description
_atom_site_fract_x
_atom_site_fract_y
_atom_site_fract_z
_atom_type_partial_charge
C1    C     C_R   0.513218 0.260035 0.500902 0.881424
C2    C     C_R   0.363600 0.475446 0.912678 0.185105
C3    C     C_3   0.265872 0.356795 0.897372 -0.173704
C4    C     C_R   0.201402 0.500827 0.464409 0.981601
C5    C     C_3   0.271047 0.354856 0.053160 -0.154140
C6    C     C_R   0.508671 0.740144 0.500832 0.867499
C7    C     C_R   0.798467 0.504937 0.535047 0.946775
C8    C     C_2   0.036374 0.497381 0.444890 -0.376139
C9    C     C_2   0.962779 0.519884 0.551467 -0.371442
C10   C     C_R   0.586386 0.064302 0.624993 -0.036009
C11   C     C_R   0.555562 0.129572 0.501784 -0.108796
C12   C     C_R   0.561312 0.933333 0.380618 -0.228831
C13   C     C_R   0.568197 0.063984 0.378597 0.082052
C14   C     C_2   0.622029 0.862502 0.867619 0.431401
C15   C     C_2   0.646563 0.131831 0.866001 0.474047
C16   C     C_R   0.546677 0.870842 0.503075 -0.109913
C17   C     C_R   0.581015 0.935994 0.625512 -0.023288
C18   C     C_3   0.514677 0.929135 0.757541 -0.230923
C19   C     C_3   0.524511 0.073275 0.758764 -0.218281
C20   C     C_R   0.364953 0.473834 0.055665 0.174159
C21   C     C_R   0.630394 0.535397 0.087480 -0.056679
C22   C     C_R   0.630610 0.534922 0.943858 -0.041327
H1    H     H_    0.976087 0.471075 0.344452 0.177984
H2    H     H_    0.053909 0.451987 0.854920 0.183726
H3    H     H_    0.041224 0.294867 0.828156 0.190856
H4    H     H_    0.042489 0.299641 0.068005 0.195919
H5    H     H_    0.070360 0.458197 0.077892 0.183431
H6    H     H_    0.687535 0.171899 0.259508 0.205898
H7    H     H_    0.570971 0.064464 0.170602 0.226330
H8    H     H_    0.738277 0.832480 0.850024 0.048473
H9    H     H_    0.768476 0.101977 0.876364 0.038559
H10   H     H_    0.736950 0.561458 0.902959 0.118398
H11   H     H_    0.328245 0.278003 0.857567 0.204464
H12   H     H_    0.339725 0.275610 0.103453 0.213283
H13   H     H_    0.023076 0.551616 0.649406 0.177556
H14   H     H_    0.555967 0.882143 0.285355 0.202617
H15   H     H_    0.391493 0.891857 0.743982 0.169286
H16   H     H_    0.406322 0.116402 0.748556 0.159334
H17   H     H_    0.736555 0.562516 0.153965 0.134248
N1    N     N_R   0.498950 0.499140 0.142680 -0.112585
N2    N     N_R   0.498950 0.499180 0.857030 -0.102468
N3    N     N_3   0.110205 0.375155 0.818398 -0.436545
N4    N     N_3   0.120760 0.371410 0.105973 -0.435711
N5    N     N_3   0.576654 0.128150 0.251659 -0.409212
O1    O     O_R   0.500020 0.316790 0.614690 -0.610625
O2    O     O_2   0.610037 0.213663 0.941443 -0.625969
O3    O     O_R   0.500000 0.316760 0.385350 -0.596213
O4    O     O_R   0.271760 0.500010 0.587850 -0.598959
O5    O     O_R   0.271740 0.499970 0.358500 -0.606555
O6    O     O_R   0.500000 0.683240 0.614650 -0.631151
O7    O     O_R   0.499980 0.683210 0.385310 -0.616296
O8    O     O_R   0.728260 0.500030 0.641500 -0.637994
O9    O     O_R   0.728240 0.499990 0.412150 -0.626862
O10   O     O_2   0.579535 0.843725 0.978751 -0.608786
Zn1   Zn    Zn3+2 0.500010 0.500020 0.653130 0.962356
Zn2   Zn    Zn3+2 0.499990 0.499980 0.346870 0.968619

loop_
_geom_bond_atom_site_label_1
_geom_bond_atom_site_label_2
_ccdc_geom_bond_type
H3    N3    S    
C7    O8    A    
O4    Zn1   S    
C3    N3    S    
C15   H9    S    
C19   H16   S    
C6    O7    A    
C12   H14   S    
O5    Zn2   S    
H2    N3    S    
C14   C18   S    
O6    Zn1   S    
C21   H17   S    
O8    Zn1   S    
C4    O5    A    
C4    C8    S    
C5    H12   S    
C17   C18   S    
C5    N4    S    
C5    C20   S    
C21   C22   A    
C6    O6    A    
C15   C19   S    
C11   C13   A    
C1    O1    A    
C16   C17   A    
C21   N1    A    
C22   H10   S    
C14   H8    S    
C14   O10   D    
C10   C19   S    
H6    N5    S    
H4    N4    S    
C2    C3    S    
H7    N5    S    
C20   N1    A    
C22   N2    A    
C10   C11   A    
C3    H11   S    
C2    N2    A    
C2    C20   A    
H5    N4    S    
C8    H1    S    
C18   C19   S    
C12   C13   A    
O1    Zn1   S    
C8    C9    D    
C9    H13   S    
O7    Zn2   S    
C4    O4    A    
O9    Zn2   S    
C7    C9    S    
C7    O9    A    
C1    O3    A    
C10   C17   A    
C15   O2    D    
C3    C5    S    
C6    C16   S    
C18   H15   S    
C13   N5    S    
N2    Zn1   S    
C12   C16   A    
O3    Zn2   S    
N1    Zn2   S    
C1    C11   S    
