data_mof_unit_4542.cif
_audit_creation_date              2013-03-05T16:13:54-0500
_audit_creation_method            fapswitch 2.2
_symmetry_space_group_name_H-M    P1
_symmetry_Int_Tables_number       1
_space_group_crystal_system       triclinic
_cell_length_a                    20.254164
_cell_length_b                    22.712287
_cell_length_c                    6.942333
_cell_angle_alpha                 90.000356
_cell_angle_beta                  86.555636
_cell_angle_gamma                 90.000107
_cell_volume                      3187.83192435

loop_
_atom_site_label
_atom_site_type_symbol
_atom_site_description
_atom_site_fract_x
_atom_site_fract_y
_atom_site_fract_z
_atom_type_partial_charge
O1    O     O_R   0.751270 0.447300 0.600030 -0.597589
O2    O     O_R   0.248730 0.947300 0.399970 -0.597583
O3    O     O_R   0.613530 0.440160 0.952150 -0.594779
O4    O     O_R   0.386470 0.940160 0.047850 -0.594779
O5    O     O_R   0.613050 0.552700 0.122560 -0.592435
O6    O     O_R   0.386950 0.052700 0.877440 -0.592433
C1    C     C_R   0.591513 0.425462 0.787373 0.918900
C2    C     C_R   0.408487 0.925462 0.212625 0.918901
O7    O     O_R   0.750780 0.440350 0.929820 -0.596847
O8    O     O_R   0.249220 0.940350 0.070180 -0.596863
O9    O     O_R   0.751280 0.552900 0.100070 -0.561630
O10   O     O_R   0.248720 0.052900 0.899930 -0.561593
C3    C     C_R   0.774158 0.426369 0.757023 0.989928
C4    C     C_R   0.225842 0.926369 0.242976 0.989896
O11   O     O_R   0.613040 0.447100 0.622520 -0.592426
O12   O     O_R   0.386960 0.947100 0.377480 -0.592427
O13   O     O_3   0.682160 0.536920 0.777780 -0.247361
O14   O     O_3   0.317840 0.036920 0.222220 -0.247322
V1    V     V_3+5 0.682160 0.493150 0.052630 1.200498
V2    V     V_3+5 0.317840 0.993150 0.947370 1.200496
O15   O     O_R   0.750790 0.559840 0.429870 -0.563607
O16   O     O_R   0.249210 0.059840 0.570130 -0.563599
C5    C     C_R   0.774632 0.573332 0.256754 0.962467
C6    C     C_R   0.225367 0.073332 0.743248 0.962432
O17   O     O_R   0.613540 0.559650 0.452200 -0.593942
O18   O     O_R   0.386460 0.059650 0.547800 -0.593942
C7    C     C_R   0.591646 0.574436 0.287394 0.926373
C8    C     C_R   0.408354 0.074436 0.712607 0.926380
V3    V     V_3+5 0.682160 0.506850 0.552630 1.208706
V4    V     V_3+5 0.317840 0.006850 0.447370 1.208714
O19   O     O_3   0.682150 0.463080 0.277610 -0.285874
O20   O     O_3   0.317850 0.963080 0.722390 -0.285881
C9    C     C_R   0.578866 0.859836 0.150909 -0.153649
C10   C     C_R   0.421131 0.359839 0.849030 -0.153646
H1    H     H_    0.537699 0.946380 0.130138 0.122984
H2    H     H_    0.462298 0.446383 0.869799 0.122986
H3    H     H_    0.669544 0.775750 0.137901 0.139063
H4    H     H_    0.330451 0.275755 0.862010 0.139065
H5    H     H_    0.628566 0.875367 0.113103 0.129449
H6    H     H_    0.371430 0.375371 0.886807 0.129449
C11   C     C_R   0.462679 0.882085 0.210141 -0.104122
C12   C     C_R   0.537321 0.382085 0.789853 -0.104120
C13   C     C_R   0.472991 0.595707 0.338311 -0.225224
C14   C     C_R   0.527011 0.095705 0.661730 -0.225230
C15   C     C_R   0.418301 0.633360 0.351180 -0.018106
C16   C     C_R   0.581702 0.133358 0.648878 -0.018106
C17   C     C_R   0.427492 0.693836 0.316895 -0.241352
C18   C     C_R   0.572510 0.193834 0.683147 -0.241352
C19   C     C_R   0.490931 0.717757 0.269430 0.084450
C20   C     C_R   0.509069 0.217757 0.730578 0.084451
C21   C     C_R   0.546090 0.678282 0.255248 0.113014
C22   C     C_R   0.453909 0.178283 0.744741 0.113010
C23   C     C_R   0.501422 0.779578 0.235928 0.098897
C24   C     C_R   0.498578 0.279578 0.764067 0.098898
C25   C     C_R   0.566732 0.799875 0.187337 0.168929
C26   C     C_R   0.433266 0.299877 0.812621 0.168925
C27   C     C_R   0.619707 0.760336 0.174509 -0.224388
C28   C     C_R   0.380290 0.260339 0.825430 -0.224385
C29   C     C_R   0.609708 0.700633 0.208231 -0.209910
C30   C     C_R   0.390289 0.200635 0.791724 -0.209899
C31   C     C_R   0.449726 0.822231 0.247980 -0.238034
C32   C     C_R   0.550275 0.322230 0.752034 -0.238033
C33   C     C_R   0.527255 0.900432 0.161000 -0.147322
C34   C     C_R   0.472743 0.400435 0.838955 -0.147324
C35   C     C_R   0.536490 0.617166 0.290362 -0.184156
C36   C     C_R   0.463510 0.117166 0.709644 -0.184153
H7    H     H_    0.398908 0.810621 0.283860 0.106538
H8    H     H_    0.601094 0.310619 0.716182 0.106533
H9    H     H_    0.466434 0.549037 0.366188 0.159724
H10   H     H_    0.533568 0.049034 0.633868 0.159723
H11   H     H_    0.384112 0.721231 0.328529 0.157372
H12   H     H_    0.615890 0.221229 0.671527 0.157371
H13   H     H_    0.652510 0.671996 0.196754 0.112813
H14   H     H_    0.347487 0.171999 0.803186 0.112813
C37   C     C_R   0.169955 0.883591 0.262365 -0.129587
C38   C     C_R   0.830046 0.383592 0.737629 -0.129573
C39   C     C_R   0.146585 0.855359 0.099203 -0.136919
C40   C     C_R   0.853417 0.355360 0.900789 -0.136844
C41   C     C_R   0.093416 0.815813 0.117555 -0.123775
C42   C     C_R   0.906585 0.315814 0.882432 -0.123780
C43   C     C_R   0.061952 0.803622 0.300537 0.229302
C44   C     C_R   0.938048 0.303623 0.699448 0.229301
C45   C     C_R   0.085099 0.832057 0.462478 -0.142911
C46   C     C_R   0.914901 0.332058 0.537510 -0.142912
C47   C     C_R   0.138494 0.871286 0.444323 -0.129026
C48   C     C_R   0.861505 0.371287 0.555669 -0.129034
C49   C     C_R   0.893929 0.696562 0.369058 -0.139464
C50   C     C_R   0.106066 0.196556 0.630921 -0.139456
C51   C     C_R   0.840356 0.657325 0.382265 -0.134458
C52   C     C_R   0.159640 0.157320 0.617726 -0.134463
C53   C     C_R   0.940022 0.694932 0.208420 0.189056
C54   C     C_R   0.059975 0.194932 0.791563 0.189036
N1    N     N_2   0.006828 0.764381 0.328192 -0.096369
N2    N     N_2   0.993171 0.264381 0.671788 -0.096365
N3    N     N_2   0.995119 0.734210 0.183546 -0.088996
N4    N     N_2   0.004879 0.234210 0.816434 -0.088995
C55   C     C_R   0.831223 0.615495 0.236455 -0.306245
C56   C     C_R   0.168777 0.115496 0.763551 -0.306262
H15   H     H_    0.805517 0.660119 0.506488 0.171043
H16   H     H_    0.194477 0.160109 0.493497 0.171067
H17   H     H_    0.898753 0.728285 0.483733 0.129965
H18   H     H_    0.101241 0.228274 0.516234 0.129964
H19   H     H_    0.061627 0.823663 0.604129 0.114330
H20   H     H_    0.938371 0.323664 0.395857 0.114336
H21   H     H_    0.154725 0.892341 0.573212 0.135015
H22   H     H_    0.845274 0.392343 0.426782 0.135035
C57   C     C_R   0.877786 0.613818 0.075500 0.371648
C58   C     C_R   0.122215 0.113824 0.924514 0.371603
C59   C     C_R   0.931051 0.653425 0.063471 -0.259797
C60   C     C_R   0.068947 0.153430 0.936525 -0.259736
H23   H     H_    0.076819 0.795328 0.988224 0.116441
H24   H     H_    0.923183 0.295330 0.011761 0.116440
H25   H     H_    0.966206 0.651610 0.939598 0.158311
H26   H     H_    0.033794 0.151621 0.060403 0.158338
H27   H     H_    0.169304 0.863833 0.956707 0.129496
H28   H     H_    0.830699 0.363834 0.043287 0.129494
N5    N     N_R   0.873557 0.570755 0.926378 0.228104
O21   O     O_R   0.918389 0.529831 0.906803 -0.403808
O22   O     O_R   0.834659 0.579984 0.787144 -0.403959
N6    N     N_R   0.126447 0.070773 0.073673 0.228073
O23   O     O_R   0.081546 0.029913 0.093505 -0.403791
O24   O     O_R   0.165406 0.079987 0.212769 -0.403929
C61   C     C_2   0.351317 0.609175 0.401891 1.012885
O25   O     O_2   0.303132 0.641747 0.413596 -0.641048
O26   O     O_R   0.343051 0.548867 0.436618 -0.811085
H29   H     H_    0.295221 0.537801 0.469853 0.334407
C62   C     C_2   0.648687 0.109170 0.598203 1.012887
O27   O     O_2   0.696873 0.141742 0.586514 -0.641046
O28   O     O_R   0.656954 0.048862 0.563492 -0.811083
H30   H     H_    0.704785 0.037794 0.530281 0.334409

loop_
_geom_bond_atom_site_label_1
_geom_bond_atom_site_label_2
_geom_bond_distance
_ccdc_geom_bond_type
C9    C25   1.404123 A    
C10   C26   1.404121 A    
C44   N2    1.432470 S    
C49   C53   1.411214 A    
O13   V3    1.705754 S    
C58   N6    1.430508 S    
C14   C36   1.396788 A    
C11   C31   1.406270 A    
O4    C2    1.296213 A    
V1    O19   1.704668 S    
C61   O25   1.223460 D    
C17   C19   1.415571 A    
C15   C61   1.486246 S    
C30   H14   1.082872 S    
O9    V1    1.991325 S    
C9    H5    1.083902 S    
C45   H19   1.083161 S    
C51   H15   1.082842 S    
C6    C56   1.493753 S    
C46   C48   1.401054 A    
O3    C1    1.296215 A    
N5    O22   1.300182 A    
C40   C42   1.402189 A    
C61   O26   1.399081 S    
C28   C30   1.388839 A    
C54   N4    1.430999 S    
C56   C58   1.418772 A    
C21   C35   1.420686 A    
C1    C12   1.474229 S    
C52   H16   1.082842 S    
C37   C39   1.408086 A    
O7    C3    1.302250 A    
C22   C30   1.404994 A    
O5    C7    1.296740 A    
C23   C31   1.425227 A    
O7    V1    1.988538 S    
O6    C8    1.296735 A    
C50   C54   1.411211 A    
O8    V2    1.988539 S    
C19   C21   1.431241 A    
C20   C22   1.431241 A    
O3    V1    1.995940 S    
O14   V4    1.705761 S    
C60   H26   1.083823 S    
C59   H25   1.083819 S    
C18   C20   1.415573 A    
C2    O12   1.296723 A    
C49   H17   1.082493 S    
C57   N5    1.430501 S    
C57   C59   1.403314 A    
C42   H24   1.082529 S    
C48   H22   1.082936 S    
C15   C17   1.404504 A    
C18   H12   1.075693 S    
C47   H21   1.082936 S    
C10   C34   1.392480 A    
C43   C45   1.401476 A    
C14   C16   1.398016 A    
O11   V3    1.988799 S    
C16   C18   1.404503 A    
C23   C25   1.422135 A    
O17   V3    1.993071 S    
C24   C26   1.422137 A    
C9    C33   1.392478 A    
C16   C62   1.486247 S    
C2    C11   1.474232 S    
C42   C44   1.413947 A    
O8    C4    1.302247 A    
C41   C43   1.413945 A    
C1    O11   1.296721 A    
C24   C32   1.425224 A    
O15   V3    1.991145 S    
C51   C55   1.408543 A    
O4    V2    1.995950 S    
C8    C36   1.479024 S    
C62   O28   1.399081 S    
C7    C35   1.479027 S    
C43   N1    1.432470 S    
C31   H7    1.077106 S    
C3    C38   1.491664 S    
C13   C35   1.396789 A    
O10   V2    1.991332 S    
O1    V3    1.988036 S    
C39   C41   1.402189 A    
H4    C28   1.084095 S    
N2    N4    1.250127 D    
C13   C15   1.398015 A    
C17   H11   1.075692 S    
C45   C47   1.401053 A    
C50   C52   1.402856 A    
O18   V4    1.993062 S    
C44   C46   1.401474 A    
C25   C27   1.397899 A    
O26   H29   1.013934 S    
C46   H20   1.083161 S    
O16   C6    1.304529 A    
O1    C3    1.299806 A    
C11   C33   1.395397 A    
C62   O27   1.223461 D    
C12   C34   1.395393 A    
C22   C36   1.420684 A    
N6    O23   1.300847 A    
N6    O24   1.300191 A    
C37   C47   1.408237 A    
O28   H30   1.013933 S    
V2    O20   1.704660 S    
C12   C32   1.406271 A    
O16   V4    1.991142 S    
C5    C55   1.493738 S    
C40   H28   1.082924 S    
C13   H9    1.084244 S    
C38   C40   1.408084 A    
C50   H18   1.082495 S    
C58   C60   1.403321 A    
O5    V1    1.985616 S    
C32   H8    1.077108 S    
O17   C7    1.295934 A    
O6    V2    1.985621 S    
O10   C6    1.297711 A    
O18   C8    1.295935 A    
C41   H23   1.082530 S    
O2    V4    1.988029 S    
C4    C37   1.491668 S    
C53   C59   1.398681 A    
O15   C5    1.304516 A    
C20   C24   1.436931 A    
H2    C34   1.083618 S    
N5    O21   1.300802 A    
V4    O20   2.152602 S    
C54   C60   1.398675 A    
N1    N3    1.250127 D    
C19   C23   1.436933 A    
O9    C5    1.297716 A    
O13   V1    2.151545 S    
C26   C28   1.397900 A    
O14   V2    2.151534 S    
C14   H10   1.084244 S    
C29   H13   1.082872 S    
O2    C4    1.299807 A    
C27   C29   1.388838 A    
C53   N3    1.431002 S    
C55   C57   1.418746 A    
C21   C29   1.404995 A    
V3    O19   2.152591 S    
C38   C48   1.408238 A    
C49   C51   1.402858 A    
C10   H6    1.083901 S    
H1    C33   1.083618 S    
C39   H27   1.082924 S    
O12   V4    1.988800 S    
C52   C56   1.408551 A    
H3    C27   1.084095 S    
