data_mof_unit_4532.cif
_audit_creation_date              2013-03-05T16:01:46-0500
_audit_creation_method            fapswitch 2.2
_symmetry_space_group_name_H-M    P1
_symmetry_Int_Tables_number       1
_space_group_crystal_system       triclinic
_cell_length_a                    14.918845
_cell_length_b                    14.024551
_cell_length_c                    11.535487
_cell_angle_alpha                 89.974507
_cell_angle_beta                  90.403984
_cell_angle_gamma                 90.786627
_cell_volume                      2413.28352742

loop_
_atom_site_label
_atom_site_type_symbol
_atom_site_description
_atom_site_fract_x
_atom_site_fract_y
_atom_site_fract_z
_atom_type_partial_charge
O1    O     O_R   0.367850 0.580280 0.500030 -0.618738
O2    O     O_R   0.632150 0.419720 0.499970 -0.607162
O3    O     O_R   0.632150 0.580280 0.499970 -0.611088
O4    O     O_R   0.367850 0.419720 0.500030 -0.600227
C1    C     C_R   0.327022 0.499241 0.498474 0.940477
C2    C     C_R   0.672989 0.500728 0.501548 0.943484
O5    O     O_R   0.500010 0.580270 0.334450 -0.603276
O6    O     O_R   0.499990 0.419730 0.665550 -0.614683
O7    O     O_R   0.499990 0.580270 0.665550 -0.596015
O8    O     O_R   0.500010 0.419730 0.334450 -0.606325
C3    C     C_R   0.500928 0.500050 0.281773 0.944182
C4    C     C_R   0.498897 0.499957 0.718222 0.945258
Zn1   Zn    Zn3+2 0.500000 0.607200 0.500000 1.034126
Zn2   Zn    Zn3+2 0.500000 0.392800 0.500000 1.033465
C5    C     C_1   0.500758 0.500120 0.161406 -0.067264
C6    C     C_1   0.498883 0.499930 0.838590 -0.070877
C7    C     C_1   0.500182 0.500097 0.059275 0.078873
C8    C     C_1   0.499361 0.500001 0.940722 0.076120
C9    C     C_R   0.811992 0.501594 0.399626 -0.207319
C10   C     C_R   0.188059 0.498237 0.600438 -0.210403
C11   C     C_R   0.768295 0.503283 0.504770 -0.153495
C12   C     C_R   0.231735 0.496495 0.495315 -0.148976
C13   C     C_R   0.814426 0.504523 0.611012 0.314602
C14   C     C_R   0.185655 0.494245 0.389077 0.305225
C15   C     C_R   0.908790 0.511254 0.610887 -0.111238
C16   C     C_R   0.091267 0.487517 0.389130 -0.117619
C17   C     C_R   0.953276 0.501652 0.502282 0.009671
C18   C     C_R   0.046773 0.497241 0.497745 0.011152
C19   C     C_R   0.904161 0.496808 0.397622 0.083949
C20   C     C_R   0.095876 0.502405 0.602424 0.091280
C21   C     C_R   0.960881 0.526366 0.713397 0.437705
C22   C     C_R   0.039105 0.472453 0.286607 0.431429
C23   C     C_R   0.053345 0.516299 0.707986 -0.211281
C24   C     C_R   0.946659 0.482849 0.292051 -0.197573
H1    H     H_    0.773426 0.499033 0.319410 0.157275
H2    H     H_    0.226625 0.501227 0.680639 0.150873
H3    H     H_    0.093439 0.524491 0.786196 0.192899
H4    H     H_    0.906527 0.475003 0.213813 0.214535
C25   C     C_R   0.565541 0.798832 0.443019 0.087588
C26   C     C_R   0.432818 0.201143 0.553689 0.087412
C27   C     C_R   0.434515 0.796905 0.557063 0.088918
C28   C     C_R   0.567114 0.203112 0.446205 0.090477
N1    N     N_R   0.500000 0.750030 0.500000 -0.144162
N2    N     N_R   0.500000 0.249970 0.500000 -0.143334
C29   C     C_R   0.433205 0.897910 0.561212 -0.130527
C30   C     C_R   0.570927 0.102184 0.447207 -0.131282
C31   C     C_R   0.566836 0.899894 0.438843 -0.129776
C32   C     C_R   0.429029 0.100083 0.552744 -0.130025
C33   C     C_R   0.500010 0.949517 0.500010 -0.010347
C34   C     C_R   0.499987 0.050494 0.499993 -0.009948
C35   C     C_R   0.366182 0.948019 0.622402 0.330650
C36   C     C_R   0.642409 0.052236 0.395127 0.328301
C37   C     C_R   0.633853 0.952021 0.377649 0.334019
C38   C     C_R   0.357575 0.047986 0.604877 0.330513
H5    H     H_    0.617562 0.757624 0.403355 0.193581
H6    H     H_    0.383605 0.242289 0.599111 0.190443
H7    H     H_    0.382527 0.754203 0.596854 0.194183
H8    H     H_    0.616265 0.245662 0.400603 0.191637
N3    N     N_R   0.765977 0.482997 0.714888 0.231157
O9    O     O_R   0.701357 0.537820 0.747924 -0.371482
O10   O     O_R   0.773053 0.398649 0.760739 -0.302688
N4    N     N_R   0.234338 0.514442 0.285045 0.228686
O11   O     O_R   0.230185 0.599434 0.240302 -0.306383
O12   O     O_R   0.297424 0.457665 0.251880 -0.361996
S1    S     S_3+6 0.918777 0.575245 0.844248 0.102429
O13   O     O_2   0.878897 0.497465 0.918067 -0.203566
O14   O     O_2   0.993500 0.623149 0.911370 -0.241970
O15   O     O_3   0.840862 0.657247 0.813852 -0.497360
H9    H     H_    0.817836 0.677323 0.890262 0.403385
S2    S     S_3+6 0.080987 0.423970 0.155356 0.115283
O16   O     O_2   0.150357 0.350246 0.181907 -0.224871
O17   O     O_2   0.005961 0.377037 0.087782 -0.233469
O18   O     O_3   0.125931 0.511068 0.073187 -0.448549
H10   H     H_    0.149314 0.478142 0.003965 0.383723
S3    S     S_3+6 0.301593 0.887472 0.730448 0.093905
O19   O     O_2   0.224899 0.835086 0.672651 -0.244756
O20   O     O_2   0.359249 0.816863 0.793392 -0.297225
O21   O     O_3   0.261655 0.963578 0.829492 -0.436946
H11   H     H_    0.221264 0.924424 0.878613 0.405489
S4    S     S_3+6 0.745959 0.113361 0.367017 0.092708
O22   O     O_2   0.739344 0.163679 0.252254 -0.239275
O23   O     O_2   0.764411 0.185824 0.460569 -0.295879
O24   O     O_3   0.832553 0.037890 0.365140 -0.438039
H12   H     H_    0.885739 0.078415 0.347977 0.403145
S5    S     S_3+6 0.698448 0.893469 0.269608 0.089530
O25   O     O_2   0.775190 0.843351 0.327383 -0.245747
O26   O     O_2   0.640818 0.821167 0.206715 -0.303307
O27   O     O_3   0.738322 0.970832 0.170541 -0.436445
H13   H     H_    0.778313 0.932786 0.120995 0.400818
S6    S     S_3+6 0.254048 0.106025 0.633154 0.092040
O28   O     O_2   0.260890 0.156485 0.747882 -0.247159
O29   O     O_2   0.235368 0.177977 0.539644 -0.290869
O30   O     O_3   0.167476 0.027988 0.635289 -0.438194
H14   H     H_    0.115342 0.065776 0.659937 0.402532

loop_
_geom_bond_atom_site_label_1
_geom_bond_atom_site_label_2
_geom_bond_distance
_ccdc_geom_bond_type
C15   C21   1.424751 A    
C16   C22   1.425348 A    
O30   H14   0.990559 S    
C17   C19   1.409026 A    
O18   H10   0.990565 S    
O3    C2    1.278590 A    
C28   H8    1.078732 S    
C31   C33   1.416169 A    
C10   C20   1.377653 A    
S5    O25   1.503310 D    
O5    C3    1.279190 A    
O1    C1    1.282146 A    
C25   C31   1.418017 A    
C9    C11   1.381391 A    
C14   C16   1.410029 A    
C38   S6    1.787817 S    
C29   C35   1.421828 A    
C30   C36   1.420851 A    
C21   S1    1.780160 S    
C28   C30   1.417428 A    
O7    Zn1   1.946525 S    
N4    O12   1.300822 A    
C3    C5    1.388476 S    
C25   H5    1.078532 S    
C1    C12   1.421777 S    
C4    C6    1.388511 S    
O15   H9    0.990623 S    
C26   H6    1.078842 S    
C14   N4    1.433260 S    
C21   C23   1.390424 A    
S2    O16   1.502837 D    
C26   N2    1.358884 A    
O3    Zn1   2.012436 S    
C31   C37   1.421903 A    
C32   C34   1.415732 A    
N3    O9    1.300599 A    
C37   S5    1.787692 S    
C27   N1    1.359049 A    
O2    C2    1.281843 A    
C28   N2    1.358916 A    
S4    O24   1.681584 S    
O7    C4    1.279506 A    
S5    O26   1.503886 D    
N3    O10   1.300905 A    
S4    O23   1.504083 D    
O8    Zn2   1.946526 S    
O21   H11   0.990545 S    
S4    O22   1.503174 D    
C22   S2    1.780737 S    
S1    O14   1.503768 D    
C2    C11   1.422039 S    
C19   C24   1.392080 A    
C23   H3    1.084219 S    
C22   C24   1.390723 A    
C32   C38   1.420967 A    
C13   N3    1.433637 S    
S3    O19   1.503350 D    
N4    O11   1.300790 A    
S6    O29   1.503999 D    
O24   H12   0.990726 S    
C29   C33   1.416081 A    
O6    C4    1.279313 A    
S1    O15   1.681469 S    
S2    O18   1.680930 S    
C7    C8    1.367536 S    
S3    O20   1.503878 D    
C10   C12   1.381048 A    
S1    O13   1.502508 D    
C11   C13   1.401331 A    
C12   C14   1.401077 A    
O1    Zn1   2.002256 S    
C9    C19   1.377960 A    
Zn1   N1    2.003127 S    
C36   C37   1.423815 A    
S6    O30   1.681707 S    
Zn2   N2    2.003128 S    
S5    O27   1.681600 S    
C26   C32   1.417715 A    
O6    Zn2   1.946855 S    
C20   C23   1.392086 A    
C24   H4    1.084334 S    
C35   S3    1.787881 S    
O4    C1    1.278114 A    
C25   N1    1.358989 A    
C5    C7    1.178107 T    
C15   C17   1.429158 A    
C30   C34   1.415642 A    
C16   C18   1.429482 A    
C35   C38   1.423814 A    
C18   C20   1.409308 A    
C27   H7    1.078384 S    
C9    H1    1.086521 S    
S6    O28   1.503222 D    
C13   C15   1.409671 A    
O4    Zn2   2.012437 S    
O2    Zn2   2.002254 S    
S3    O21   1.681588 S    
O8    C3    1.279606 A    
C10   H2    1.086551 S    
O5    Zn1   1.946856 S    
O27   H13   0.990524 S    
C6    C8    1.178108 T    
C33   C34   1.416152 A    
C17   C18   1.398425 A    
C27   C29   1.417780 A    
S2    O17   1.503861 D    
C36   S4    1.788024 S    
