data_mof_unit_4470.cif
_audit_creation_date              2013-03-05T16:46:36-0500
_audit_creation_method            fapswitch 2.2
_symmetry_space_group_name_H-M    P1
_symmetry_Int_Tables_number       1
_space_group_crystal_system       triclinic
_cell_length_a                    13.083863
_cell_length_b                    8.915492
_cell_length_c                    8.254848
_cell_angle_alpha                 89.998299
_cell_angle_beta                  97.895771
_cell_angle_gamma                 89.996345
_cell_volume                      953.791522929

loop_
_atom_site_label
_atom_site_type_symbol
_atom_site_description
_atom_site_fract_x
_atom_site_fract_y
_atom_site_fract_z
_atom_type_partial_charge
O1    O     O_R   0.499990 0.285340 0.636850 -0.612264
O2    O     O_R   0.500010 0.714660 0.363150 -0.605036
O3    O     O_R   0.500010 0.285340 0.363150 -0.608716
O4    O     O_R   0.499990 0.714660 0.636850 -0.604542
N1    N     N_1   0.500020 0.500000 0.073640 0.053902
N2    N     N_1   0.499980 0.500000 0.926360 0.051851
C1    C     C_R   0.499988 0.218639 0.499998 0.911739
C2    C     C_R   0.499994 0.781363 0.499997 0.908275
O5    O     O_R   0.346350 0.500000 0.614250 -0.565565
O6    O     O_R   0.653650 0.500000 0.385750 -0.564271
O7    O     O_R   0.346360 0.500000 0.340500 -0.563357
O8    O     O_R   0.653640 0.500000 0.659500 -0.575989
C3    C     C_R   0.297800 0.505593 0.467686 0.910739
C4    C     C_R   0.702241 0.505054 0.532057 0.900691
Zn1   Zn    Zn3+2 0.499990 0.500000 0.682780 1.135058
Zn2   Zn    Zn3+2 0.500010 0.500000 0.317220 1.140944
C5    C     C_R   0.814859 0.521044 0.548904 -0.287471
C6    C     C_R   0.185258 0.523011 0.449544 -0.271560
C7    C     C_R   0.019242 0.536696 0.280797 -0.177702
C8    C     C_R   0.981356 0.527789 0.716066 -0.164053
C9    C     C_R   0.125044 0.520931 0.295100 0.260273
C10   C     C_R   0.875659 0.513202 0.702340 0.259037
C11   C     C_R   0.136166 0.541755 0.589847 0.262958
C12   C     C_R   0.863621 0.541931 0.407991 0.272712
C13   C     C_R   0.029536 0.538752 0.576263 -0.045190
C14   C     C_R   0.970482 0.541031 0.420882 -0.037149
H1    H     H_    0.975751 0.536909 0.159382 0.216264
H2    H     H_    0.025251 0.523285 0.837226 0.211151
C15   C     C_1   0.499983 0.065365 0.499997 -0.118793
C16   C     C_1   0.499985 0.934627 0.499993 -0.111078
N3    N     N_R   0.805173 0.560571 0.250543 0.233572
O9    O     O_R   0.766369 0.441917 0.173569 -0.288690
O10   O     O_R   0.767599 0.692383 0.208949 -0.327904
N4    N     N_R   0.194055 0.560372 0.747622 0.227256
O11   O     O_R   0.229313 0.441181 0.827090 -0.293638
O12   O     O_R   0.234214 0.690964 0.787976 -0.323880
N5    N     N_R   0.831743 0.487858 0.846786 0.222916
O13   O     O_R   0.857155 0.367487 0.931867 -0.336587
O14   O     O_R   0.784478 0.597935 0.907952 -0.299994
N6    N     N_R   0.169990 0.498667 0.150943 0.219929
O15   O     O_R   0.191496 0.362214 0.111229 -0.313829
O16   O     O_R   0.215687 0.611696 0.092272 -0.302012

loop_
_geom_bond_atom_site_label_1
_geom_bond_atom_site_label_2
_geom_bond_distance
_ccdc_geom_bond_type
N3    O10   1.301585 A    
C15   C16   1.165590 T    
O1    Zn1   1.951006 S    
C6    C9    1.403739 A    
O2    Zn2   1.951006 S    
O7    Zn2   2.045610 S    
N4    O12   1.301783 A    
C5    C10   1.401827 A    
O8    Zn1   2.045610 S    
O4    C2    1.276659 A    
C11   N4    1.423548 S    
C2    C16   1.366428 S    
O4    Zn1   1.950984 S    
N6    O16   1.298904 A    
O5    Zn1   2.012091 S    
C12   N3    1.424280 S    
N5    O14   1.298557 A    
C13   C14   1.403668 A    
O6    Zn2   2.012091 S    
O7    C3    1.300664 A    
C4    C5    1.467830 S    
N5    O13   1.300478 A    
C9    N6    1.411935 S    
C3    C6    1.467694 S    
C1    C15   1.366518 S    
N6    O15   1.300748 A    
C7    C9    1.380229 A    
O8    C4    1.302667 A    
O3    C1    1.276642 A    
C11   C13   1.384456 A    
N1    N2    1.215702 T    
C5    C12   1.413749 A    
C8    C13   1.392352 A    
C8    C10   1.378107 A    
C6    C11   1.409351 A    
C7    H1    1.082422 S    
N4    O11   1.299654 A    
O6    C4    1.286047 A    
C7    C14   1.395845 A    
O5    C3    1.287868 A    
N1    Zn2   2.010733 S    
C8    H2    1.083495 S    
N2    Zn1   2.010734 S    
O1    C1    1.276659 A    
C10   N5    1.411102 S    
O2    C2    1.276662 A    
O3    Zn2   1.950985 S    
N3    O9    1.300795 A    
C12   C14   1.387567 A    
