data_mof_unit_249.cif
_audit_creation_date              2012-12-10T20:27:54-0500
_audit_creation_method            fapswitch 2.2
_symmetry_space_group_name_H-M    P1
_symmetry_Int_Tables_number       1
_space_group_crystal_system       triclinic
_cell_length_a                    12.823859
_cell_length_b                    10.667124
_cell_length_c                    9.868637
_cell_angle_alpha                 89.934895
_cell_angle_beta                  97.229636
_cell_angle_gamma                 89.98805
_cell_volume                      1339.23377197

loop_
_atom_site_label
_atom_site_type_symbol
_atom_type_description
_atom_site_fract_x
_atom_site_fract_y
_atom_site_fract_z
_atom_type_partial_charge
C1    C     C_R   0.502273 0.260065 0.500558 0.877064
C2    C     C_R   0.027664 0.537442 0.553385 0.086549
C3    C     C_R   0.972752 0.457483 0.454235 0.060991
C4    C     C_R   0.866008 0.442140 0.450988 -0.263655
C5    C     C_R   0.866386 0.582527 0.644785 -0.325756
C6    C     C_R   0.975042 0.596967 0.652593 0.476848
C7    C     C_R   0.499401 0.063776 0.622514 0.115693
C8    C     C_R   0.515839 0.128515 0.504666 -0.098718
C9    C     C_R   0.549427 0.064920 0.393727 -0.224982
C10   C     C_R   0.549276 0.935273 0.393643 -0.206797
C11   C     C_R   0.515555 0.871487 0.504522 -0.126691
C12   C     C_R   0.298291 0.498547 0.473288 0.912341
C13   C     C_R   0.499268 0.935903 0.622633 0.099320
C14   C     C_3   0.408587 0.929092 0.704338 -0.213216
C15   C     C_3   0.409436 0.071589 0.705176 -0.526747
C16   C     C_R   0.414286 0.458242 0.057298 0.214526
C17   C     C_R   0.587793 0.530897 0.086088 -0.124526
C18   C     C_R   0.587841 0.530693 0.942312 -0.116223
C19   C     C_R   0.414195 0.458712 0.914637 0.218137
C20   C     C_3   0.307281 0.515363 0.891516 -0.515798
C21   C     C_3   0.307219 0.514484 0.044885 -0.494671
C22   C     C_R   0.502146 0.739938 0.500414 0.874298
C23   C     C_R   0.701607 0.500813 0.526925 0.907788
C24   C     C_R   0.813419 0.506056 0.544077 -0.100277
C25   C     C_R   0.186296 0.489863 0.457975 -0.164146
C26   C     C_R   0.024920 0.394146 0.358937 -0.294754
C27   C     C_R   0.133045 0.406319 0.363596 0.447995
C28   C     C_R   0.134178 0.555017 0.551625 -0.328561
H1    H     H_    0.823101 0.382383 0.374197 0.156089
H2    H     H_    0.337893 0.113385 0.647038 0.180708
H3    H     H_    0.433332 0.114853 0.806931 0.207964
H4    H     H_    0.657924 0.559358 0.151129 0.153269
H5    H     H_    0.657928 0.558756 0.899681 0.143132
H6    H     H_    0.307519 0.611384 0.847560 0.222434
H7    H     H_    0.248542 0.450296 0.837216 0.203410
H8    H     H_    0.307266 0.609683 0.090659 0.226019
H9    H     H_    0.248335 0.448688 0.077417 0.247784
H10   H     H_    0.822654 0.635190 0.712677 0.157311
H11   H     H_    0.982592 0.332820 0.283530 0.150013
H12   H     H_    0.177775 0.617198 0.625027 0.202102
H13   H     H_    0.569489 0.114459 0.304674 0.169496
H14   H     H_    0.569286 0.885908 0.304555 0.179537
H15   H     H_    0.336589 0.887155 0.647514 0.144447
N1    N     N_R   0.499290 0.499140 0.142710 -0.107956
N2    N     N_R   0.499290 0.499180 0.857070 -0.104608
O1    O     O_R   0.500010 0.316790 0.614690 -0.613255
O2    O     O_R   0.500000 0.316760 0.385350 -0.628939
O3    O     O_R   0.346360 0.499990 0.595720 -0.635351
O4    O     O_R   0.346350 0.499960 0.366370 -0.579466
O5    O     O_R   0.500000 0.683240 0.614650 -0.615849
O6    O     O_R   0.499990 0.683210 0.385310 -0.616983
O7    O     O_R   0.653650 0.500040 0.633630 -0.629994
O8    O     O_R   0.653640 0.500010 0.404280 -0.632004
Zn1   Zn    Zn3+2 0.500010 0.500020 0.653130 0.943598
Zn2   Zn    Zn3+2 0.499990 0.499980 0.346870 0.951959
C29   C     C_1   0.438697 0.873371 0.840130 0.234789
N3    N     N_1   0.462183 0.829475 0.946923 -0.231986
O9    O     O_3   0.027901 0.679189 0.746102 -0.656022
C30   C     C_3   0.025246 0.633354 0.880145 0.067395
H16   H     H_    0.066333 0.541241 0.893116 0.146035
H17   H     H_    0.943155 0.622263 0.903844 0.137367
C31   C     C_3   0.080746 0.726747 0.982238 -0.316621
H18   H     H_    0.164100 0.736711 0.964152 0.225664
H19   H     H_    0.042397 0.820039 0.966916 0.229204
C32   C     C_3   0.076141 0.684311 0.129245 -0.952621
H20   H     H_    0.993467 0.682733 0.151922 0.265874
H21   H     H_    0.121730 0.750027 0.200920 0.263229
H22   H     H_    0.110233 0.589202 0.145951 0.281315
O10   O     O_3   0.186479 0.337754 0.275492 -0.662013
C33   C     C_3   0.200391 0.214168 0.325926 0.077695
H23   H     H_    0.122966 0.167411 0.328614 0.141567
H24   H     H_    0.244867 0.214314 0.430580 0.119555
C34   C     C_3   0.262970 0.139293 0.231754 -0.314733
H25   H     H_    0.222014 0.142833 0.125620 0.220419
H26   H     H_    0.342104 0.181782 0.232197 0.236915
C35   C     C_3   0.274898 0.002653 0.277114 -0.960907
H27   H     H_    0.313582 0.996676 0.384043 0.270701
H28   H     H_    0.323611 0.951513 0.209859 0.277606
H29   H     H_    0.196608 0.957095 0.270377 0.258670

loop_
_geom_bond_atom_site_label_1
_geom_bond_atom_site_label_2
_ccdc_geom_bond_type
C14   C29   S    
C16   C21   S    
C10   H14   S    
C1    C8    S    
C34   H25   S    
C6    O9    S    
C19   C20   S    
C35   H29   S    
C12   O3    A    
C12   O4    A    
C7    C8    A    
C21   H8    S    
C25   C28   A    
O3    Zn1   S    
C26   C27   A    
O5    Zn1   S    
C35   H28   S    
C5    C6    A    
C4    C24   A    
C26   H11   S    
C28   H12   S    
C29   N3    T    
C31   H19   S    
C20   H7    S    
C8    C9    A    
C32   H21   S    
C23   C24   S    
C33   H23   S    
C9    C10   A    
C16   N1    A    
C4    H1    S    
C27   O10   S    
C22   O5    A    
C20   H6    S    
C7    C15   S    
C30   H16   S    
C13   C14   S    
C34   H26   S    
C2    C6    A    
O7    Zn1   S    
C23   O8    A    
O8    Zn2   S    
C30   H17   S    
C35   H27   S    
C1    O2    A    
O9    C30   S    
O4    Zn2   S    
C31   H18   S    
C32   H22   S    
O1    Zn1   S    
C33   C34   S    
C17   C18   A    
N2    Zn1   S    
C34   C35   S    
C3    C4    A    
C18   N2    A    
C15   H2    S    
O2    Zn2   S    
C30   C31   S    
C31   C32   S    
C3    C26   A    
C2    C28   A    
C19   N2    A    
C15   H3    S    
C25   C27   A    
C11   C22   S    
C9    H13   S    
C12   C25   S    
C2    C3    A    
C17   N1    A    
C11   C13   A    
N1    Zn2   S    
C23   O7    A    
C5    C24   A    
C16   C19   A    
O6    Zn2   S    
O10   C33   S    
C1    O1    A    
C18   H5    S    
C10   C11   A    
C7    C13   A    
C21   H9    S    
C20   C21   S    
C32   H20   S    
C17   H4    S    
C14   C15   S    
C14   H15   S    
C33   H24   S    
C5    H10   S    
C22   O6    A    
