data_mof_unit_508.cif
_audit_creation_date              2012-10-26T18:50:04-0400
_audit_creation_method            fapswitch 2.2
_symmetry_space_group_name_H-M    P1
_symmetry_Int_Tables_number       1
_space_group_crystal_system       triclinic
_cell_length_a                    10.748605
_cell_length_b                    12.945542
_cell_length_c                    11.758449
_cell_angle_alpha                 99.424657
_cell_angle_beta                  92.912412
_cell_angle_gamma                 91.435595
_cell_volume                      1611.05231678

loop_
_atom_site_label
_atom_site_type_symbol
_atom_type_description
_atom_site_fract_x
_atom_site_fract_y
_atom_site_fract_z
_atom_type_partial_charge
C1    C     C_R   0.496347 0.299429 0.479032 0.521405
C2    C     C_R   0.457206 0.861470 0.442957 -0.125333
C3    C     C_R   0.523968 0.030795 0.551528 0.046613
C4    C     C_R   0.467291 0.969510 0.450704 0.040605
C5    C     C_R   0.363576 0.420787 0.028797 -0.193251
C6    C     C_R   0.647372 0.564281 0.968656 -0.197011
C7    C     C_R   0.379838 0.424567 0.148411 -0.018620
C8    C     C_R   0.629858 0.561459 0.849124 -0.019383
C9    C     C_R   0.563791 0.531561 0.153964 0.417549
C10   C     C_R   0.430348 0.478523 0.849021 0.419569
C11   C     C_R   0.554255 0.524136 0.031201 -0.030294
C12   C     C_R   0.501641 0.700583 0.521140 0.514967
C13   C     C_R   0.448437 0.474251 0.969361 -0.027426
C14   C     C_R   0.263153 0.499365 0.500599 0.528502
C15   C     C_R   0.736961 0.501713 0.499479 0.527836
C16   C     C_R   0.140861 0.689504 0.578088 -0.076329
C17   C     C_R   0.859341 0.312561 0.418039 -0.093199
C18   C     C_R   0.083636 0.783526 0.616726 0.278552
C19   C     C_R   0.918125 0.219655 0.375419 0.264284
C20   C     C_R   0.953085 0.781482 0.624196 -0.131180
C21   C     C_R   0.047798 0.219512 0.377823 -0.110241
C22   C     C_R   0.883117 0.688830 0.587247 -0.163594
C23   C     C_R   0.505407 0.813960 0.533397 0.009265
C24   C     C_R   0.118111 0.311247 0.418384 -0.166097
C25   C     C_R   0.940730 0.594751 0.542769 -0.005244
C26   C     C_R   0.059804 0.406400 0.457971 -0.010006
C27   C     C_R   0.071193 0.594520 0.541234 -0.050144
C28   C     C_R   0.929072 0.407134 0.457252 -0.032590
C29   C     C_R   0.870915 0.501428 0.498938 0.005437
C30   C     C_R   0.129370 0.499937 0.500939 -0.009260
C31   C     C_3   0.101422 0.967654 0.650365 0.005539
C32   C     C_3   0.199946 0.055080 0.650880 -0.249282
C33   C     C_3   0.142806 0.162866 0.668422 -0.484249
C34   C     C_R   0.488858 0.186186 0.467726 0.000229
C35   C     C_3   0.769596 0.132668 0.245412 0.012561
C36   C     C_3   0.712843 0.023824 0.198094 -0.257088
C37   C     C_3   0.622140 0.025897 0.094419 -0.488890
C38   C     C_3   0.221817 0.504473 0.820612 -0.008492
C39   C     C_3   0.098099 0.444537 0.788107 -0.377634
C40   C     C_3   0.649335 0.694964 0.225168 -0.004212
C41   C     C_3   0.741443 0.752161 0.318202 -0.347673
C42   C     C_R   0.421919 0.017245 0.359229 -0.157187
C43   C     C_R   0.569297 0.983160 0.643039 -0.137119
C44   C     C_R   0.433338 0.125361 0.367466 -0.153527
C45   C     C_R   0.560202 0.874931 0.633918 -0.128779
C46   C     C_R   0.533956 0.138818 0.559423 -0.119637
Cu1   Cu    Cu3+1 0.509250 0.507730 0.615930 0.964485
Cu2   Cu    Cu3+1 0.490750 0.492270 0.384070 0.961146
H1    H     H_    0.094599 0.147535 0.349096 0.127034
H2    H     H_    0.577262 0.185935 0.636763 0.124949
H3    H     H_    0.598077 0.838829 0.704426 0.120161
H4    H     H_    0.397119 0.161506 0.296375 0.119316
H5    H     H_    0.378408 0.971106 0.281507 0.104943
H6    H     H_    0.612635 0.029348 0.720827 0.098695
H7    H     H_    0.702967 0.593017 0.803690 0.135870
H8    H     H_    0.313269 0.383618 0.192475 0.133986
H9    H     H_    0.048063 0.985533 0.729480 0.133607
H10   H     H_    0.038208 0.965071 0.571640 0.140174
H11   H     H_    0.272509 0.052622 0.721144 0.186466
H12   H     H_    0.903886 0.850674 0.658164 0.089121
H13   H     H_    0.245315 0.042700 0.567163 0.181011
H14   H     H_    0.065966 0.165951 0.602501 0.163110
H15   H     H_    0.215281 0.223580 0.660497 0.187618
H16   H     H_    0.105656 0.180393 0.755673 0.143468
H17   H     H_    0.820444 0.161524 0.175729 0.130590
H18   H     H_    0.692267 0.185628 0.270939 0.146656
H19   H     H_    0.788335 0.969200 0.171949 0.163719
H20   H     H_    0.662219 0.994413 0.266928 0.181399
H21   H     H_    0.544790 0.078873 0.119177 0.151933
H22   H     H_    0.582126 0.945760 0.063101 0.139627
H23   H     H_    0.284410 0.376079 0.983460 0.137271
H24   H     H_    0.671162 0.053083 0.023239 0.144893
H25   H     H_    0.225747 0.572518 0.774242 0.163681
H26   H     H_    0.222792 0.536841 0.914393 0.101165
H27   H     H_    0.086322 0.383909 0.843799 0.133188
H28   H     H_    0.020018 0.499186 0.799955 0.108442
H29   H     H_    0.095116 0.405421 0.696836 0.175177
H30   H     H_    0.553415 0.718299 0.246491 0.136019
H31   H     H_    0.669247 0.722159 0.143155 0.098735
H32   H     H_    0.838429 0.734921 0.294732 0.154582
H33   H     H_    0.729017 0.837837 0.328247 0.097847
H34   H     H_    0.735201 0.595883 0.010686 0.132259
H35   H     H_    0.725743 0.726527 0.401703 0.169774
H36   H     H_    0.241281 0.692544 0.575688 0.144523
H37   H     H_    0.759272 0.309265 0.422487 0.123721
H38   H     H_    0.783236 0.692253 0.593462 0.122639
H39   H     H_    0.218430 0.306237 0.419508 0.131352
H40   H     H_    0.411979 0.814463 0.366590 0.106407
N1    N     N_R   0.523180 0.519350 0.790130 -0.217930
N2    N     N_R   0.476820 0.480650 0.209870 -0.219122
O1    O     O_R   0.506570 0.354460 0.582000 -0.477740
O2    O     O_3   0.851391 0.125781 0.341703 -0.579205
O3    O     O_3   0.321163 0.436708 0.790084 -0.537992
O4    O     O_3   0.663878 0.585627 0.217622 -0.526811
O5    O     O_R   0.493430 0.645540 0.418000 -0.500554
O6    O     O_R   0.490940 0.341410 0.386200 -0.526508
O7    O     O_R   0.509060 0.658590 0.613800 -0.516897
O8    O     O_R   0.327470 0.506520 0.597900 -0.465559
O9    O     O_R   0.672530 0.493480 0.402100 -0.444034
O10   O     O_R   0.311840 0.493460 0.402100 -0.515833
O11   O     O_R   0.688160 0.506540 0.597900 -0.528277
O12   O     O_3   0.161977 0.872027 0.650483 -0.574236

loop_
_geom_bond_atom_site_label_1
_geom_bond_atom_site_label_2
_ccdc_geom_bond_type
C6    H34   S    
Cu2   O5    S    
C37   H21   S    
C35   C36   S    
C41   H32   S    
C21   H1    S    
C36   H19   S    
C12   C23   S    
C3    C43   A    
Cu1   O8    S    
C23   C45   A    
C39   H29   S    
C31   H10   S    
C36   C37   S    
C19   C21   A    
C24   C26   A    
C32   H13   S    
C1    O6    A    
C42   H5    S    
C38   C39   S    
C35   H17   S    
C41   H35   S    
C16   H36   S    
C18   O12   S    
C19   O2    S    
C31   C32   S    
C10   N1    A    
C33   H14   S    
C22   C25   A    
C12   O5    A    
C14   O8    A    
C34   C46   A    
C39   H27   S    
C20   H12   S    
C5    C13   A    
C35   O2    S    
C44   H4    S    
C16   C27   A    
C1    O1    A    
Cu2   N2    S    
C37   H22   S    
C27   C30   A    
Cu1   N1    S    
C42   C44   A    
C7    H8    S    
C14   C30   S    
C17   H37   S    
C8    H7    S    
C1    C34   S    
C15   C29   S    
C25   C29   A    
Cu2   O10   S    
C31   O12   S    
C34   C44   A    
C15   O9    A    
C6    C11   A    
C5    C7    A    
C6    C8    A    
C35   H18   S    
C7    N2    A    
C2    C4    A    
C43   C45   A    
C43   H6    S    
Cu1   Cu2   S    
C33   H15   S    
C41   H33   S    
C40   H31   S    
C39   H28   S    
C15   O11   A    
C2    H40   S    
C9    C11   A    
C12   O7    A    
C40   C41   S    
C20   C22   A    
C26   C30   A    
C40   H30   S    
C21   C24   A    
C3    C4    A    
C38   H26   S    
Cu2   O9    S    
C28   C29   A    
Cu2   O6    S    
C17   C28   A    
Cu1   O1    S    
C40   O4    S    
C10   C13   A    
Cu1   O7    S    
C9    N2    A    
C36   H20   S    
C14   O10   A    
C25   C27   A    
C46   H2    S    
C3    C46   A    
C26   C28   A    
C10   O3    S    
C32   C33   S    
C31   H9    S    
C5    H23   S    
C11   C13   A    
C4    C42   A    
C33   H16   S    
C38   O3    S    
C17   C19   A    
C18   C20   A    
Cu1   O11   S    
C22   H38   S    
C24   H39   S    
C16   C18   A    
C37   H24   S    
C2    C23   A    
C45   H3    S    
C8    N1    A    
C32   H11   S    
C9    O4    S    
C38   H25   S    
