data_mof_unit_2635.cif
_audit_creation_date              2012-12-10T18:59:17-0500
_audit_creation_method            fapswitch 2.2
_symmetry_space_group_name_H-M    P1
_symmetry_Int_Tables_number       1
_space_group_crystal_system       triclinic
_cell_length_a                    10.850617
_cell_length_b                    10.751617
_cell_length_c                    9.55805
_cell_angle_alpha                 90.126641
_cell_angle_beta                  91.221423
_cell_angle_gamma                 90.246316
_cell_volume                      1114.79153664

loop_
_atom_site_label
_atom_site_type_symbol
_atom_type_description
_atom_site_fract_x
_atom_site_fract_y
_atom_site_fract_z
_atom_type_partial_charge
Br1   Br    Br    0.124027 0.435239 0.196495 -0.514665
Br2   Br    Br    0.313635 0.305755 0.837315 -0.459296
Br3   Br    Br    0.767609 0.844806 0.574032 -0.433820
C1    C     C_R   0.501988 0.262743 0.499688 0.822542
C2    C     C_R   0.617602 0.934135 0.534701 0.234947
C3    C     C_R   0.507916 0.870669 0.496927 -0.238489
C4    C     C_R   0.262048 0.507561 0.498353 0.899868
C5    C     C_R   0.411141 0.936596 0.435503 -0.016140
C6    C     C_3   0.275828 0.930991 0.460735 -0.452016
C7    C     C_3   0.277792 0.072591 0.459565 0.208257
C8    C     C_R   0.581307 0.572724 0.075824 0.155588
C9    C     C_R   0.429726 0.418652 0.073736 -0.047168
C10   C     C_R   0.427523 0.419402 0.925597 0.333449
C11   C     C_R   0.582316 0.572056 0.928566 0.239679
C12   C     C_R   0.063912 0.546359 0.620345 -0.034143
C13   C     C_3   0.594834 0.710405 0.924894 0.163361
C14   C     C_3   0.592565 0.710522 0.083736 -0.507826
C15   C     C_R   0.500887 0.737406 0.499769 0.904676
C16   C     C_R   0.737563 0.490505 0.502541 0.844923
C17   C     C_R   0.116904 0.617392 0.732281 0.462705
C18   C     C_R   0.061041 0.615948 0.863552 -0.203098
C19   C     C_R   0.956914 0.543382 0.884547 -0.176066
C20   C     C_R   0.898392 0.482299 0.771274 0.481674
C21   C     C_R   0.942520 0.501648 0.634086 0.011803
C22   C     C_R   0.126969 0.516488 0.495559 -0.142107
C23   C     C_R   0.058101 0.476739 0.375797 0.251370
C24   C     C_R   0.931712 0.466206 0.382458 -0.220841
C25   C     C_R   0.872097 0.479614 0.509174 -0.104169
C26   C     C_R   0.412753 0.064228 0.434456 0.147470
C27   C     C_R   0.510221 0.129646 0.496562 -0.291075
C28   C     C_R   0.619031 0.064966 0.537706 0.369735
Cu1   Cu    Cu3+1 0.499990 0.499980 0.640670 1.051757
Cu2   Cu    Cu3+1 0.500010 0.500020 0.359330 0.996214
H1    H     H_    0.254362 0.892246 0.564963 0.214323
H2    H     H_    0.223670 0.888476 0.371220 0.231357
H3    H     H_    0.127228 0.126324 0.369073 0.356081
H4    H     H_    0.714655 0.837275 0.886649 0.362868
H5    H     H_    0.241760 0.736201 0.797653 0.315483
H6    H     H_    0.792502 0.388929 0.896084 0.320129
H7    H     H_    0.717972 0.215258 0.570312 0.329613
H8    H     H_    0.255263 0.117969 0.560733 0.141022
H9    H     H_    0.372229 0.353861 0.129226 0.222963
H10   H     H_    0.515785 0.758952 0.873206 0.139270
H11   H     H_    0.680706 0.740370 0.135275 0.229358
H12   H     H_    0.508670 0.755655 0.124683 0.197955
H13   H     H_    0.100839 0.667423 0.951055 0.169894
H14   H     H_    0.921495 0.534986 0.989189 0.170943
H15   H     H_    0.879782 0.444749 0.287230 0.187739
N1    N     N_R   0.500790 0.500930 0.147930 -0.214789
N2    N     N_R   0.500790 0.500890 0.852020 -0.243028
O1    O     O_R   0.500000 0.319640 0.618810 -0.542205
O2    O     O_3   0.710175 0.745600 0.875289 -0.666304
O3    O     O_3   0.216751 0.694181 0.708960 -0.746378
O4    O     O_3   0.809455 0.392731 0.794607 -0.694545
O5    O     O_3   0.726501 0.124299 0.581387 -0.654964
O6    O     O_R   0.500010 0.319680 0.381230 -0.572380
O7    O     O_R   0.319640 0.499980 0.618820 -0.524619
O8    O     O_R   0.319650 0.500020 0.381230 -0.553384
O9    O     O_R   0.499990 0.680320 0.618770 -0.560879
O10   O     O_R   0.500000 0.680360 0.381190 -0.583242
O11   O     O_R   0.680350 0.499980 0.618770 -0.516106
O12   O     O_R   0.680360 0.500020 0.381180 -0.596570
O13   O     O_3   0.215128 0.122195 0.342995 -0.658703

loop_
_geom_bond_atom_site_label_1
_geom_bond_atom_site_label_2
_ccdc_geom_bond_type
C24   H15   S    
C9    H9    S    
C20   C21   A    
Cu1   O1    S    
C26   C27   A    
C8    N1    A    
H3    O13   S    
C6    C7    S    
C4    O8    A    
C7    O13   S    
C7    C26   S    
Cu2   O8    S    
C27   C28   A    
H7    O5    S    
C28   O5    S    
Cu1   Cu2   S    
Cu2   O6    S    
C19   H14   S    
C14   H11   S    
C18   C19   A    
C1    O6    A    
C7    H8    S    
C16   C25   S    
Br2   C10   S    
C13   H10   S    
Cu1   N2    S    
C23   C24   A    
C11   N2    A    
H5    O3    S    
C2    C28   A    
Cu1   O7    S    
C16   O11   A    
C2    C3    A    
C17   O3    S    
C15   O10   A    
C12   C21   A    
C14   H12   S    
Cu1   O11   S    
C9    N1    A    
Cu2   O10   S    
C12   C17   A    
C3    C15   S    
C8    C11   A    
C11   C13   S    
C12   C22   A    
H6    O4    S    
C13   C14   S    
C4    O7    A    
C5    C26   A    
C16   O12   A    
Cu2   N1    S    
C10   N2    A    
C13   O2    S    
C15   O9    A    
C17   C18   A    
C20   O4    S    
C18   H13   S    
C24   C25   A    
C6    H2    S    
H4    O2    S    
C19   C20   A    
C8    C14   S    
C3    C5    A    
C1    O1    A    
Cu1   O9    S    
C9    C10   A    
C22   C23   A    
Cu2   O12   S    
Br1   C23   S    
C1    C27   S    
C21   C25   A    
C6    H1    S    
C5    C6    S    
Br3   C2    S    
C4    C22   S    
