data_mof_unit_350.cif
_audit_creation_date              2012-12-11T17:34:27-0500
_audit_creation_method            fapswitch 2.2
_symmetry_space_group_name_H-M    P1
_symmetry_Int_Tables_number       1
_space_group_crystal_system       triclinic
_cell_length_a                    23.781832
_cell_length_b                    7.222128
_cell_length_c                    20.620987
_cell_angle_alpha                 90.001912
_cell_angle_beta                  105.47259
_cell_angle_gamma                 89.997096
_cell_volume                      3413.40654513

loop_
_atom_site_label
_atom_site_type_symbol
_atom_type_description
_atom_site_fract_x
_atom_site_fract_y
_atom_site_fract_z
_atom_type_partial_charge
O1    O     O_R   0.449110 0.494310 0.552140 -0.538709
O2    O     O_R   0.550890 0.994310 0.447860 -0.538694
O3    O     O_R   0.440010 0.824420 0.415850 -0.531868
O4    O     O_R   0.559990 0.324420 0.584150 -0.531900
C1    C     C_R   0.425311 0.655465 0.390958 0.685938
C2    C     C_R   0.574688 0.155460 0.609043 0.685960
O5    O     O_R   0.442260 0.824040 0.549660 -0.540901
O6    O     O_R   0.557740 0.324040 0.450340 -0.540890
O7    O     O_R   0.553160 0.993960 0.582620 -0.528086
O8    O     O_R   0.446840 0.493960 0.417380 -0.528099
C3    C     C_R   0.428466 0.655417 0.567406 0.679980
C4    C     C_R   0.571535 0.155409 0.432595 0.680033
O9    O     O_3   0.536380 0.660670 0.510660 -0.369616
O10   O     O_3   0.463620 0.160670 0.489340 -0.369630
V1    V     V_3+5 0.493250 0.935680 0.498020 1.452447
V2    V     V_3+5 0.506750 0.435680 0.501980 1.452397
C5    C     C_R   0.812221 0.910272 0.156002 0.015608
C6    C     C_R   0.187828 0.410282 0.844054 0.015499
C7    C     C_R   0.851708 0.904261 0.115544 -0.212813
C8    C     C_R   0.148322 0.404267 0.884491 -0.212817
H1    H     H_    0.855605 0.778356 0.088530 0.164902
H2    H     H_    0.144436 0.278395 0.911523 0.164994
C9    C     C_R   0.886351 0.058156 0.109618 -0.078867
C10   C     C_R   0.113653 0.558134 0.890387 -0.078908
C11   C     C_R   0.880791 0.220591 0.144969 -0.122345
C12   C     C_R   0.119196 0.720540 0.855018 -0.122245
H3    H     H_    0.906814 0.341743 0.141963 0.132287
H4    H     H_    0.093153 0.841667 0.858001 0.132294
C13   C     C_R   0.842243 0.228554 0.185617 -0.130679
C14   C     C_R   0.157754 0.728504 0.814384 -0.130639
H5    H     H_    0.839324 0.355556 0.212527 0.147238
H6    H     H_    0.160656 0.855483 0.787457 0.147151
C15   C     C_R   0.807674 0.075670 0.191647 0.037325
C16   C     C_R   0.192354 0.575658 0.808387 0.037300
C17   C     C_1   0.767593 0.094596 0.233685 0.031645
C18   C     C_1   0.232433 0.594601 0.766346 0.031686
C19   C     C_1   0.734210 0.108949 0.268800 0.004427
C20   C     C_1   0.265811 0.608969 0.731227 0.004439
C21   C     C_R   0.672481 0.960871 0.333142 -0.113401
C22   C     C_R   0.327526 0.460898 0.666860 -0.113308
H7    H     H_    0.685877 0.826034 0.319650 0.136835
H8    H     H_    0.314128 0.326060 0.680343 0.136800
C23   C     C_R   0.633141 0.971863 0.372923 -0.178117
C24   C     C_R   0.366859 0.471887 0.627072 -0.178080
H9    H     H_    0.617285 0.844062 0.389089 0.128552
H10   H     H_    0.382708 0.344083 0.610892 0.128485
C25   C     C_R   0.614458 0.144921 0.391238 -0.047724
C26   C     C_R   0.385546 0.644943 0.608769 -0.047620
C27   C     C_R   0.636802 0.306567 0.368811 -0.149476
C28   C     C_R   0.363211 0.806591 0.631213 -0.149509
H11   H     H_    0.623633 0.442233 0.381655 0.122787
H12   H     H_    0.376383 0.942255 0.618379 0.122743
C29   C     C_R   0.676196 0.295069 0.328905 -0.126980
C30   C     C_R   0.323823 0.795095 0.671127 -0.127029
H13   H     H_    0.692499 0.421255 0.312026 0.131245
H14   H     H_    0.307527 0.921281 0.688020 0.131215
C31   C     C_R   0.694095 0.122135 0.310718 0.115093
C32   C     C_R   0.305921 0.622161 0.689303 0.115120
C33   C     C_R   0.640616 0.134029 0.796208 -0.150711
C34   C     C_R   0.359358 0.634888 0.203781 -0.150691
H15   H     H_    0.554110 0.160163 0.731102 0.107860
H16   H     H_    0.445864 0.661027 0.268888 0.107859
H17   H     H_    0.724843 0.123658 0.909614 0.131294
H18   H     H_    0.275113 0.624983 0.090383 0.131289
H19   H     H_    0.625267 0.142132 0.841124 0.119930
H20   H     H_    0.374693 0.643424 0.158864 0.119924
C35   C     C_R   0.618506 0.145116 0.674934 -0.040106
C36   C     C_R   0.381491 0.645169 0.325066 -0.040079
C37   C     C_R   0.903444 0.023069 0.768188 -0.209660
C38   C     C_R   0.096588 0.522496 0.231796 -0.209604
C39   C     C_R   0.865905 0.990128 0.704541 -0.030034
C40   C     C_R   0.134151 0.489233 0.295403 -0.030001
C41   C     C_R   0.804552 0.998674 0.695007 -0.074830
C42   C     C_R   0.195498 0.497976 0.304920 -0.074864
C43   C     C_R   0.781370 0.057060 0.749326 0.007110
C44   C     C_R   0.218647 0.556900 0.250643 0.007155
C45   C     C_R   0.821177 0.070176 0.815208 0.068503
C46   C     C_R   0.178822 0.570344 0.184782 0.068506
C47   C     C_R   0.720258 0.095523 0.742132 0.088349
C48   C     C_R   0.279746 0.595576 0.257850 0.088401
C49   C     C_R   0.700281 0.111529 0.801065 0.135770
C50   C     C_R   0.299704 0.612129 0.198922 0.135775
C51   C     C_R   0.739875 0.108948 0.864656 -0.183812
C52   C     C_R   0.260097 0.609855 0.135337 -0.183814
C53   C     C_R   0.799333 0.094930 0.871561 -0.165990
C54   C     C_R   0.200644 0.595619 0.128438 -0.166029
C55   C     C_R   0.678324 0.127009 0.679307 -0.150734
C56   C     C_R   0.321682 0.626780 0.320696 -0.150565
C57   C     C_R   0.600019 0.146287 0.733667 -0.166652
C58   C     C_R   0.399963 0.646892 0.266325 -0.166643
C59   C     C_R   0.882192 0.053221 0.823946 -0.094154
C60   C     C_R   0.117814 0.553163 0.176050 -0.094163
H21   H     H_    0.690838 0.144924 0.633243 0.115634
H22   H     H_    0.309171 0.644304 0.366781 0.115568
H23   H     H_    0.950209 0.010277 0.775572 0.136408
H24   H     H_    0.049829 0.509511 0.224417 0.136374
H25   H     H_    0.828186 0.100716 0.921976 0.107540
H26   H     H_    0.171779 0.601662 0.078035 0.107603
O11   O     O_R   0.053190 0.709680 0.082610 -0.529679
O12   O     O_R   0.946810 0.209680 0.917390 -0.529661
O13   O     O_R   0.057740 0.380240 0.950340 -0.539319
O14   O     O_R   0.942260 0.880240 0.049660 -0.539326
C61   C     C_R   0.071329 0.548801 0.932414 0.684899
C62   C     C_R   0.928671 0.048809 0.067586 0.684893
O15   O     O_R   0.060000 0.379940 0.084150 -0.533510
O16   O     O_R   0.940000 0.879940 0.915850 -0.533513
O17   O     O_R   0.949110 0.210100 0.052140 -0.537902
O18   O     O_R   0.050890 0.710100 0.947860 -0.537902
C63   C     C_R   0.074729 0.548264 0.109109 0.685756
C64   C     C_R   0.925272 0.048269 0.890891 0.685769
O19   O     O_3   0.963630 0.543720 0.989330 -0.371649
O20   O     O_3   0.036370 0.043720 0.010670 -0.371651
V3    V     V_3+5 0.006750 0.268680 0.001980 1.435692
V4    V     V_3+5 0.993250 0.768680 0.998020 1.435662
C65   C     C_2   0.776754 0.741857 0.159168 0.725060
O21   O     O_2   0.753406 0.720770 0.204780 -0.568955
O22   O     O_R   0.770525 0.604960 0.109736 -0.673062
H27   H     H_    0.745431 0.497521 0.116989 0.296255
C66   C     C_2   0.223333 0.241902 0.840936 0.725167
O23   O     O_2   0.246858 0.221057 0.795462 -0.568964
O24   O     O_R   0.229408 0.104771 0.890260 -0.673103
H28   H     H_    0.254549 0.997394 0.883054 0.296272
C67   C     C_2   0.766494 0.924272 0.631364 0.790537
O25   O     O_2   0.733691 0.794884 0.632902 -0.546007
O26   O     O_R   0.767919 0.002947 0.569840 -0.647996
H29   H     H_    0.739650 0.941181 0.530114 0.303907
C68   C     C_2   0.233589 0.423207 0.368480 0.790468
O27   O     O_2   0.266433 0.294027 0.366796 -0.546036
O28   O     O_R   0.232152 0.501299 0.430092 -0.648030
H30   H     H_    0.260447 0.439325 0.469745 0.303852
C69   C     C_2   0.893086 0.933361 0.650448 0.823935
O29   O     O_2   0.937496 0.010722 0.645440 -0.543268
O30   O     O_R   0.869738 0.787235 0.607111 -0.641168
H31   H     H_    0.892716 0.761487 0.573148 0.317985
C70   C     C_2   0.107004 0.431870 0.349455 0.823890
O31   O     O_2   0.062600 0.509043 0.354584 -0.543239
O32   O     O_R   0.130378 0.285400 0.392608 -0.641218
H32   H     H_    0.107420 0.259244 0.426559 0.317967

loop_
_geom_bond_atom_site_label_1
_geom_bond_atom_site_label_2
_ccdc_geom_bond_type
O12   C64   A    
O13   V3    S    
C55   H21   S    
C29   H13   S    
C7    C9    A    
O1    C3    A    
O2    C4    A    
C2    O7    A    
C47   C55   A    
C67   O25   D    
C25   C27   A    
O5    C3    A    
C28   C30   A    
C42   C44   A    
O16   V4    S    
C59   C64   S    
O15   V3    S    
C7    H1    S    
C44   C46   A    
C1    C36   S    
O16   C64   A    
C60   C63   S    
C67   O26   S    
C37   H23   S    
C65   O21   D    
C21   C31   A    
C13   C15   A    
C35   C57   A    
C33   C57   A    
O18   V4    S    
C37   C39   A    
H18   C52   S    
C5    C7    A    
C20   C32   S    
C34   C50   A    
O17   V3    S    
C8    C10   A    
H15   C57   S    
C65   O22   S    
C28   H12   S    
C61   O18   A    
C6    C8    A    
C46   C54   A    
C26   C28   A    
C34   H20   S    
O6    V2    S    
C48   C56   A    
C41   C43   A    
C3    C26   S    
C5    C15   A    
O11   V4    S    
C4    C25   S    
O20   V3    S    
C49   C51   A    
C24   H10   S    
C56   H22   S    
C66   O24   S    
C11   C13   A    
C30   H14   S    
C22   C32   A    
C14   C16   A    
C44   C48   A    
C70   O31   D    
C40   C42   A    
C39   C41   A    
C29   C31   A    
C40   C70   S    
C21   C23   A    
O5    V1    S    
C27   H11   S    
H17   C51   S    
O4    V2    S    
C38   H24   S    
C68   O28   S    
O14   V4    S    
C6    C16   A    
C36   C58   A    
C9    C62   S    
O6    C4    A    
O1    V2    S    
O14   C62   A    
O2    V1    S    
C43   C45   A    
O24   H28   S    
C48   C50   A    
C2    C35   S    
C51   C53   A    
C8    H2    S    
C12   C14   A    
C42   C68   S    
C50   C52   A    
O30   H31   S    
C36   C56   A    
O4    C2    A    
C69   O29   D    
O3    C1    A    
O3    V1    S    
C5    C65   S    
C47   C49   A    
O28   H30   S    
C30   C32   A    
C70   O32   S    
O15   C63   A    
C45   C59   A    
C17   C19   T    
C35   C55   A    
C38   C60   A    
O12   V3    S    
C33   C49   A    
C10   C12   A    
C69   O30   S    
C66   O23   D    
C34   C58   A    
C11   H3    S    
O32   H32   S    
C12   H4    S    
C10   C61   S    
C46   C60   A    
C18   C20   T    
O7    V1    S    
C1    O8    A    
C13   H5    S    
C41   C67   S    
O8    V2    S    
O22   H27   S    
C33   H19   S    
C14   H6    S    
O26   H29   S    
C23   C25   A    
C45   C53   A    
C27   C29   A    
H16   C58   S    
C22   H8    S    
C15   C17   S    
O19   V4    S    
C16   C18   S    
C9    C11   A    
C54   H26   S    
C53   H25   S    
C39   C69   S    
C24   C26   A    
C22   C24   A    
C21   H7    S    
O13   C61   A    
O9    V2    S    
O10   V1    S    
C52   C54   A    
C38   C40   A    
C37   C59   A    
C43   C47   A    
C6    C66   S    
C23   H9    S    
C62   O17   A    
C19   C31   S    
C68   O27   D    
O11   C63   A    
