data_mof_unit_4633.cif
_audit_creation_date              2012-12-11T14:50:47-0500
_audit_creation_method            fapswitch 2.2
_symmetry_space_group_name_H-M    P1
_symmetry_Int_Tables_number       1
_space_group_crystal_system       triclinic
_cell_length_a                    20.669855
_cell_length_b                    7.208771
_cell_length_c                    20.267953
_cell_angle_alpha                 89.999052
_cell_angle_beta                  101.86251
_cell_angle_gamma                 89.999944
_cell_volume                      2955.51489717

loop_
_atom_site_label
_atom_site_type_symbol
_atom_type_description
_atom_site_fract_x
_atom_site_fract_y
_atom_site_fract_z
_atom_type_partial_charge
O1    O     O_R   0.423690 0.494470 0.435930 -0.531693
O2    O     O_R   0.576310 0.994470 0.564070 -0.531693
O3    O     O_R   0.556070 0.822310 0.435760 -0.534740
O4    O     O_R   0.443930 0.322310 0.564240 -0.534739
C1    C     C_R   0.575266 0.656164 0.420738 0.721662
C2    C     C_R   0.424734 0.156163 0.579261 0.721670
O5    O     O_R   0.422940 0.824080 0.428040 -0.535616
O6    O     O_R   0.577060 0.324080 0.571960 -0.535619
O7    O     O_R   0.442240 0.995960 0.556300 -0.536140
O8    O     O_R   0.557760 0.495960 0.443700 -0.536138
C3    C     C_R   0.399123 0.655283 0.410621 0.687086
C4    C     C_R   0.600877 0.155280 0.589378 0.687090
O9    O     O_3   0.506490 0.661310 0.542090 -0.371762
O10   O     O_3   0.493510 0.161310 0.457910 -0.371762
V1    V     V_3+5 0.498800 0.935560 0.492190 1.448854
V2    V     V_3+5 0.501200 0.435560 0.507810 1.448850
C5    C     C_R   0.834773 0.090317 0.861615 -0.120967
C6    C     C_R   0.165225 0.590308 0.138387 -0.120955
C7    C     C_R   0.661760 0.142873 0.642495 -0.048789
C8    C     C_R   0.338240 0.642885 0.357505 -0.048779
C9    C     C_R   0.779512 0.079721 0.674795 -0.156172
C10   C     C_R   0.220479 0.579871 0.325209 -0.156168
C11   C     C_R   0.722177 0.101125 0.624960 -0.171032
C12   C     C_R   0.277816 0.601259 0.375044 -0.171040
C13   C     C_R   0.659042 0.159383 0.710946 -0.178231
C14   C     C_R   0.340964 0.659297 0.289051 -0.178226
C15   C     C_R   0.716275 0.131318 0.762477 0.065857
C16   C     C_R   0.283727 0.631258 0.237523 0.065859
C17   C     C_R   0.777298 0.094741 0.743443 0.156770
C18   C     C_R   0.222698 0.594795 0.256560 0.156772
C19   C     C_R   0.835558 0.075091 0.792855 -0.239755
C20   C     C_R   0.164436 0.575164 0.207149 -0.239760
C21   C     C_R   0.773863 0.120388 0.881777 -0.071319
C22   C     C_R   0.226139 0.620287 0.118224 -0.071328
C23   C     C_R   0.714416 0.141058 0.832172 -0.076839
C24   C     C_R   0.285588 0.640923 0.167827 -0.076845
H1    H     H_    0.882207 0.050238 0.777764 0.103147
H2    H     H_    0.117783 0.550389 0.222241 0.103139
H3    H     H_    0.825729 0.050118 0.659582 0.109455
H4    H     H_    0.174257 0.550358 0.340425 0.109455
H5    H     H_    0.724982 0.085651 0.572450 0.103261
H6    H     H_    0.275006 0.585865 0.427555 0.103255
H7    H     H_    0.611797 0.192301 0.723085 0.141312
H8    H     H_    0.388214 0.692127 0.276910 0.141304
C25   C     C_3   0.263328 0.281957 0.825465 0.263475
C26   C     C_3   0.736675 0.781968 0.174534 0.263472
C27   C     C_3   0.255010 0.936679 0.798215 -0.418394
C28   C     C_3   0.744986 0.436685 0.201783 -0.418397
C29   C     C_3   0.308555 0.961157 0.754094 -0.111672
C30   C     C_3   0.691442 0.461164 0.245904 -0.111660
H9    H     H_    0.220379 0.824483 0.776185 0.146070
H10   H     H_    0.779616 0.324483 0.223812 0.146070
H11   H     H_    0.277645 0.890842 0.850092 0.186187
H12   H     H_    0.722350 0.390856 0.149905 0.186195
H13   H     H_    0.298618 0.855755 0.713480 0.150182
H14   H     H_    0.701377 0.355757 0.286519 0.150183
C31   C     C_1   0.380729 0.152042 0.626434 -0.155695
C32   C     C_1   0.619270 0.652047 0.373565 -0.155709
C33   C     C_3   0.213808 0.117130 0.799071 0.196825
C34   C     C_3   0.786191 0.617130 0.200928 0.196826
C35   C     C_3   0.309889 0.316038 0.769904 0.157133
C36   C     C_3   0.690111 0.816046 0.230093 0.157129
C37   C     C_3   0.299049 0.149843 0.715717 0.175325
C38   C     C_3   0.700949 0.649847 0.284281 0.175330
C39   C     C_3   0.224622 0.143342 0.675204 0.002367
C40   C     C_3   0.775376 0.643337 0.324794 0.002368
C41   C     C_3   0.176716 0.153808 0.725108 -0.370577
C42   C     C_3   0.823283 0.653797 0.274891 -0.370575
C43   C     C_1   0.344136 0.153085 0.666301 0.007180
C44   C     C_1   0.655862 0.653092 0.333697 0.007169
C45   C     C_1   0.163382 0.092836 0.841886 -0.056478
C46   C     C_1   0.836618 0.592833 0.158114 -0.056483
C47   C     C_1   0.122916 0.084853 0.877592 -0.176081
C48   C     C_1   0.877084 0.584850 0.122408 -0.176106
H15   H     H_    0.150561 0.288602 0.721622 0.156405
H16   H     H_    0.849441 0.788586 0.278377 0.156406
H17   H     H_    0.137237 0.047780 0.709977 0.134921
H18   H     H_    0.862760 0.547761 0.290023 0.134921
H19   H     H_    0.216653 0.003347 0.651453 0.129538
H20   H     H_    0.783343 0.503341 0.348547 0.129539
O11   O     O_R   0.942280 0.741210 0.056360 -0.538377
O12   O     O_R   0.057720 0.241210 0.943640 -0.538374
O13   O     O_R   0.077070 0.409690 0.071960 -0.541596
O14   O     O_R   0.922930 0.909690 0.928040 -0.541594
C49   C     C_R   0.101776 0.578518 0.088217 0.723684
C50   C     C_R   0.898222 0.078519 0.911785 0.723680
O15   O     O_R   0.943940 0.411580 0.064250 -0.525109
O16   O     O_R   0.056060 0.911580 0.935750 -0.525112
O17   O     O_R   0.923670 0.239840 0.935920 -0.514991
O18   O     O_R   0.076330 0.739840 0.064080 -0.514996
C51   C     C_R   0.924155 0.579298 0.078415 0.739911
C52   C     C_R   0.075845 0.079300 0.921585 0.739897
O19   O     O_3   0.993540 0.572620 0.957940 -0.375409
O20   O     O_3   0.006460 0.072620 0.042060 -0.375413
V3    V     V_3+5 0.001200 0.298330 0.007800 1.473104
V4    V     V_3+5 0.998800 0.798330 0.992200 1.473100
C53   C     C_3   0.379838 0.915361 0.791932 -0.690240
H21   H     H_    0.399767 0.010183 0.833395 0.220875
H22   H     H_    0.382226 0.778069 0.815888 0.236968
H23   H     H_    0.414125 0.912710 0.756369 0.235474
C54   C     C_3   0.620158 0.415378 0.208067 -0.690255
H24   H     H_    0.600239 0.510174 0.166591 0.220874
H25   H     H_    0.617763 0.278062 0.184131 0.236968
H26   H     H_    0.585867 0.412787 0.243626 0.235483
C55   C     C_3   0.204531 0.275421 0.613708 -0.801284
H27   H     H_    0.168518 0.382910 0.621723 0.207441
H28   H     H_    0.247501 0.346603 0.600188 0.220786
H29   H     H_    0.179948 0.195384 0.568601 0.201267
C56   C     C_3   0.795467 0.775414 0.386289 -0.801294
H30   H     H_    0.831488 0.882885 0.378276 0.207442
H31   H     H_    0.752498 0.846617 0.399802 0.220790
H32   H     H_    0.820041 0.695370 0.431399 0.201269
C57   C     C_3   0.223445 0.457921 0.839035 -0.749186
H33   H     H_    0.257620 0.572546 0.858900 0.222219
H34   H     H_    0.187672 0.507525 0.794323 0.181720
H35   H     H_    0.194600 0.431624 0.878660 0.223887
C58   C     C_3   0.776562 0.957930 0.160968 -0.749171
H36   H     H_    0.742389 0.072560 0.141101 0.222223
H37   H     H_    0.812332 0.007526 0.205682 0.181719
H38   H     H_    0.805410 0.931636 0.121345 0.223883
C59   C     C_3   0.291419 0.497242 0.731127 -0.849177
H39   H     H_    0.321297 0.520809 0.692107 0.216331
H40   H     H_    0.238596 0.510615 0.708137 0.223586
H41   H     H_    0.301716 0.607536 0.768151 0.228295
C60   C     C_3   0.708581 0.997246 0.268869 -0.849203
H42   H     H_    0.678699 0.020813 0.307887 0.216328
H43   H     H_    0.761403 0.010614 0.291863 0.223594
H44   H     H_    0.698286 0.107543 0.231844 0.228298
C61   C     C_2   0.771835 0.121509 0.954746 0.770954
O21   O     O_2   0.732692 0.021637 0.975726 -0.555349
O22   O     O_R   0.814146 0.237372 0.999238 -0.656636
H45   H     H_    0.807454 0.226939 0.047266 0.283467
C62   C     C_2   0.228165 0.621376 0.045254 0.770963
O23   O     O_2   0.267295 0.521454 0.024277 -0.555357
O24   O     O_R   0.185866 0.737267 0.000760 -0.656640
H46   H     H_    0.192556 0.726815 0.952732 0.283466
C63   C     C_2   0.650867 0.175599 0.853606 0.818257
O25   O     O_2   0.645968 0.306133 0.890808 -0.536384
O26   O     O_R   0.597138 0.057021 0.832030 -0.651179
H47   H     H_    0.556745 0.094733 0.849977 0.319428
C64   C     C_2   0.349142 0.675355 0.146392 0.818274
O27   O     O_2   0.354062 0.805852 0.109178 -0.536373
O28   O     O_R   0.402853 0.556722 0.167980 -0.651192
H48   H     H_    0.443252 0.594365 0.150030 0.319410
C65   C     C_2   0.383472 0.348478 0.802910 0.744518
O29   O     O_2   0.427790 0.291318 0.776542 -0.562438
O30   O     O_R   0.400403 0.462043 0.859744 -0.675702
H49   H     H_    0.449944 0.477365 0.875478 0.316178
C66   C     C_2   0.616530 0.848485 0.197083 0.744544
O31   O     O_2   0.572210 0.791304 0.223445 -0.562434
O32   O     O_R   0.599600 0.962069 0.140252 -0.675700
H50   H     H_    0.550059 0.977386 0.124514 0.316188
C67   C     C_3   0.303380 0.230919 0.897797 -0.641177
H51   H     H_    0.342928 0.129259 0.897752 0.184429
H52   H     H_    0.326304 0.354206 0.925995 0.272383
H53   H     H_    0.270704 0.171897 0.929625 0.218049
C68   C     C_3   0.696625 0.730947 0.102199 -0.641190
H54   H     H_    0.657077 0.629289 0.102241 0.184429
H55   H     H_    0.673703 0.854242 0.074003 0.272383
H56   H     H_    0.729303 0.671932 0.070372 0.218039

loop_
_geom_bond_atom_site_label_1
_geom_bond_atom_site_label_2
_ccdc_geom_bond_type
C40   C42   S    
O16   V4    S    
O4    V2    S    
C68   H54   S    
C39   H19   S    
C36   C66   S    
O15   C51   A    
C15   C17   A    
C58   H36   S    
C12   H6    S    
O30   H49   S    
C41   H17   S    
O2    C4    A    
C13   H7    S    
C2    O7    A    
C37   C39   S    
C65   O29   D    
C41   H15   S    
C14   H8    S    
O24   H46   S    
C27   C29   S    
C28   H12   S    
C63   O26   S    
C54   H24   S    
C1    C32   S    
C26   C36   S    
C29   C37   S    
C30   C38   S    
O14   C50   A    
C57   H33   S    
C58   H37   S    
C37   C43   S    
C34   C46   S    
O28   H48   S    
C53   H21   S    
O12   C52   A    
C35   C59   S    
O14   V4    S    
C25   C35   S    
C35   C37   S    
C35   C65   S    
C59   H41   S    
C36   C38   S    
C56   H31   S    
C33   C41   S    
C8    C12   A    
C39   C41   S    
O1    C3    A    
C60   H44   S    
O32   H50   S    
C38   C44   S    
C67   H52   S    
C27   H11   S    
C57   H35   S    
O6    V2    S    
O5    V1    S    
O13   V3    S    
C68   H55   S    
C2    C31   S    
C5    C21   A    
C39   C55   S    
C65   O30   S    
C28   C34   S    
C42   H18   S    
C55   H29   S    
C3    C8    S    
C6    C49   S    
C5    C50   S    
O16   C52   A    
C46   C48   T    
C53   H22   S    
C56   H32   S    
C45   C47   T    
O11   V4    S    
C32   C44   T    
C27   H9    S    
C22   C62   S    
C15   C23   A    
C29   H13   S    
C26   C68   S    
C9    C17   A    
C30   H14   S    
C19   H1    S    
C26   C58   S    
O15   V3    S    
C64   O28   S    
C38   C40   S    
C48   C51   S    
O17   V3    S    
C7    C11   A    
C24   C64   S    
C55   H28   S    
O5    C3    A    
C9    H3    S    
C28   H10   S    
O6    C4    A    
C10   H4    S    
O1    V2    S    
C61   O22   S    
C67   H53   S    
O20   V4    S    
O2    V1    S    
C6    C22   A    
C16   C24   A    
C59   H39   S    
O4    C2    A    
O13   C49   A    
O19   V4    S    
C20   H2    S    
C9    C11   A    
C60   H42   S    
C5    C19   A    
C10   C12   A    
C58   H38   S    
C6    C20   A    
O22   H45   S    
C53   H23   S    
O3    V1    S    
C60   H43   S    
C61   O21   D    
C55   H27   S    
C21   C61   S    
C25   C33   S    
O12   V3    S    
C10   C18   A    
C26   C34   S    
C47   C52   S    
O3    C1    A    
C50   O17   A    
C36   C60   S    
O26   H47   S    
O18   V4    S    
C68   H56   S    
C42   H16   S    
C40   H20   S    
C63   O25   D    
C14   C16   A    
C11   H5    S    
C54   H25   S    
C49   O18   A    
C66   O32   S    
O7    V1    S    
C16   C18   A    
C17   C19   A    
O8    V2    S    
C66   O31   D    
C23   C63   S    
C18   C20   A    
C62   O23   D    
C8    C14   A    
C4    C7    S    
C28   C30   S    
C21   C23   A    
C22   C24   A    
C40   C56   S    
C27   C33   S    
O20   V3    S    
C7    C13   A    
C59   H40   S    
C29   C53   S    
O11   C51   A    
C25   C57   S    
C1    O8    A    
C25   C67   S    
C34   C42   S    
C30   C54   S    
O19   V3    S    
O9    V2    S    
C56   H30   S    
C62   O24   S    
O10   V1    S    
C54   H26   S    
C31   C43   T    
C67   H51   S    
C64   O27   D    
C33   C45   S    
C57   H34   S    
C13   C15   A    
