data_mof_unit_1474.cif
_audit_creation_date              2012-12-10T20:44:01-0500
_audit_creation_method            fapswitch 2.2
_symmetry_space_group_name_H-M    P1
_symmetry_Int_Tables_number       1
_space_group_crystal_system       triclinic
_cell_length_a                    17.414138
_cell_length_b                    10.67666
_cell_length_c                    9.847171
_cell_angle_alpha                 89.914824
_cell_angle_beta                  90.468973
_cell_angle_gamma                 90.119163
_cell_volume                      1830.76633454

loop_
_atom_site_label
_atom_site_type_symbol
_atom_type_description
_atom_site_fract_x
_atom_site_fract_y
_atom_site_fract_z
_atom_type_partial_charge
C1    C     C_R   0.502230 0.259865 0.500098 0.906672
C2    C     C_R   0.885043 0.573068 0.495414 0.115482
C3    C     C_1   0.965647 0.589708 0.494781 0.011849
C4    C     C_1   0.033863 0.593165 0.493095 0.007579
C5    C     C_R   0.152738 0.568923 0.614579 -0.168110
C6    C     C_R   0.230162 0.539712 0.618011 -0.184261
C7    C     C_R   0.270328 0.525045 0.496624 -0.067402
C8    C     C_R   0.232364 0.541944 0.371647 -0.238823
C9    C     C_R   0.154436 0.572115 0.366221 -0.010168
C10   C     C_R   0.114890 0.584379 0.490147 0.063910
C11   C     C_R   0.515140 0.063657 0.623341 0.153406
C12   C     C_R   0.353035 0.503415 0.499349 0.867568
C13   C     C_R   0.514486 0.128534 0.500643 -0.093369
C14   C     C_R   0.528692 0.065006 0.378819 -0.203893
C15   C     C_R   0.529084 0.935525 0.378793 -0.223504
C16   C     C_R   0.515108 0.871408 0.500546 -0.105145
C17   C     C_R   0.515565 0.935871 0.623326 0.126928
C18   C     C_3   0.461476 0.927832 0.740178 -0.471669
C19   C     C_3   0.460721 0.069742 0.739777 -0.499097
C20   C     C_R   0.465954 0.404253 0.071081 0.210365
C21   C     C_R   0.539674 0.587923 0.072467 -0.120218
C22   C     C_R   0.539718 0.587892 0.928370 -0.118590
C23   C     C_R   0.502573 0.740087 0.499941 0.877743
C24   C     C_R   0.465741 0.404630 0.928205 0.170405
C25   C     C_3   0.383026 0.368886 0.920742 -0.500776
C26   C     C_3   0.383044 0.368263 0.075226 -0.064086
C27   C     C_R   0.646772 0.499328 0.500503 0.936916
C28   C     C_R   0.839110 0.626331 0.596579 0.219501
C29   C     C_R   0.761405 0.596012 0.598456 -0.209368
C30   C     C_R   0.729710 0.513757 0.501999 -0.152899
C31   C     C_R   0.776530 0.458066 0.402486 -0.054577
C32   C     C_R   0.854111 0.490480 0.399590 -0.227116
H1    H     H_    0.534729 0.886744 0.283006 0.166677
H2    H     H_    0.405180 0.885489 0.711839 0.209734
H3    H     H_    0.489261 0.887369 0.832296 0.201414
H4    H     H_    0.404048 0.109684 0.710326 0.198858
H5    H     H_    0.487727 0.111390 0.831957 0.208692
H6    H     H_    0.570455 0.660278 0.127266 0.146216
H7    H     H_    0.570557 0.660191 0.874230 0.142871
H8    H     H_    0.346826 0.444503 0.876944 0.197095
H9    H     H_    0.374282 0.275606 0.873325 0.204909
H10   H     H_    0.346215 0.442414 0.119093 0.192450
H11   H     H_    0.725022 0.639498 0.673794 0.163359
H12   H     H_    0.891512 0.447513 0.325404 0.189678
H13   H     H_    0.121799 0.576514 0.709335 0.147614
H14   H     H_    0.258381 0.529011 0.715551 0.156055
H15   H     H_    0.263899 0.533840 0.277990 0.189362
H16   H     H_    0.534052 0.114142 0.283011 0.171754
N1    N     N_R   0.499490 0.499140 0.142800 -0.120971
N2    N     N_R   0.499490 0.499180 0.857150 -0.103899
O1    O     O_R   0.500010 0.316790 0.614690 -0.612488
O2    O     O_R   0.500000 0.316760 0.385350 -0.611687
O3    O     O_R   0.389120 0.500020 0.614710 -0.620380
O4    O     O_R   0.389110 0.499990 0.385370 -0.625806
O5    O     O_R   0.500000 0.683240 0.614650 -0.624013
O6    O     O_R   0.499990 0.683210 0.385310 -0.628054
O7    O     O_R   0.610890 0.500010 0.614630 -0.616608
O8    O     O_R   0.610880 0.499980 0.385290 -0.594403
Zn1   Zn    Zn3+2 0.500010 0.500020 0.653130 0.952829
Zn2   Zn    Zn3+2 0.499990 0.499980 0.346870 0.959860
C33   C     C_3   0.869942 0.714847 0.703223 -0.884463
H17   H     H_    0.932016 0.735085 0.691666 0.244815
H18   H     H_    0.838582 0.805155 0.696843 0.244849
H19   H     H_    0.861118 0.673656 0.805543 0.254289
C34   C     C_3   0.369920 0.238648 0.137399 -0.837501
H20   H     H_    0.411333 0.169006 0.097290 0.232751
H21   H     H_    0.376431 0.243785 0.249399 0.254832
H22   H     H_    0.310645 0.206665 0.113465 0.253153
C35   C     C_2   0.747524 0.361919 0.305572 0.932445
O9    O     O_2   0.776640 0.351954 0.193474 -0.622295
O10   O     O_R   0.688758 0.279876 0.343639 -0.806860
H23   H     H_    0.674496 0.218590 0.268998 0.339176
C36   C     C_2   0.116952 0.588681 0.230493 0.900010
O11   O     O_2   0.054758 0.640865 0.219702 -0.620359
O12   O     O_R   0.153887 0.546124 0.113648 -0.825665
H24   H     H_    0.123263 0.563246 0.027607 0.344455

loop_
_geom_bond_atom_site_label_1
_geom_bond_atom_site_label_2
_ccdc_geom_bond_type
O5    Zn1   S    
C36   O11   D    
C21   N1    A    
O3    Zn1   S    
C7    C8    A    
O4    Zn2   S    
C11   C19   S    
C29   C30   A    
N1    Zn2   S    
N2    Zn1   S    
C28   C29   A    
C19   H4    S    
C25   H8    S    
C5    C6    A    
O7    Zn1   S    
O8    Zn2   S    
C15   C16   A    
C2    C32   A    
C18   C19   S    
C35   O10   S    
O2    Zn2   S    
C21   H6    S    
C20   C24   A    
C16   C17   A    
C34   H21   S    
C19   H5    S    
C9    C10   A    
C12   O3    A    
C22   N2    A    
C28   C33   S    
C21   C22   A    
C29   H11   S    
C27   C30   S    
C36   O12   S    
C33   H17   S    
C9    C36   S    
C24   N2    A    
C7    C12   S    
C23   O6    A    
C24   C25   S    
C27   O7    A    
C25   H9    S    
C8    C9    A    
C14   H16   S    
C25   C26   S    
C5    H13   S    
O6    Zn2   S    
C33   H19   S    
O12   H24   S    
C20   N1    A    
C18   H2    S    
C31   C32   A    
C34   H22   S    
C33   H18   S    
C17   C18   S    
C32   H12   S    
C1    O1    A    
C16   C23   S    
O1    Zn1   S    
C4    C10   S    
C3    C4    T    
C26   H10   S    
C18   H3    S    
C11   C17   A    
C6    H14   S    
C26   C34   S    
C27   O8    A    
C23   O5    A    
C6    C7    A    
O10   H23   S    
C2    C3    S    
C8    H15   S    
C5    C10   A    
C11   C13   A    
C30   C31   A    
C20   C26   S    
C22   H7    S    
C35   O9    D    
C1    O2    A    
C31   C35   S    
C1    C13   S    
C34   H20   S    
C14   C15   A    
C2    C28   A    
C13   C14   A    
C15   H1    S    
C12   O4    A    
