data_mof_unit_4660.cif
_audit_creation_date              2012-10-26T20:02:38-0400
_audit_creation_method            fapswitch 2.2
_symmetry_space_group_name_H-M    P1
_symmetry_Int_Tables_number       1
_space_group_crystal_system       triclinic
_cell_length_a                    18.789804
_cell_length_b                    18.735529
_cell_length_c                    12.450849
_cell_angle_alpha                 89.887318
_cell_angle_beta                  129.725131
_cell_angle_gamma                 90.117939
_cell_volume                      3371.16347558

loop_
_atom_site_label
_atom_site_type_symbol
_atom_type_description
_atom_site_fract_x
_atom_site_fract_y
_atom_site_fract_z
_atom_type_partial_charge
C1    C     C_R   0.610666 0.897057 0.650470 0.544811
C2    C     C_R   0.673063 0.746462 0.043288 0.036578
C3    C     C_R   0.173805 0.753399 0.042785 0.039567
C4    C     C_R   0.173496 0.246967 0.044389 0.035780
C5    C     C_R   0.594970 0.218635 0.927649 0.238973
C6    C     C_R   0.594606 0.782693 0.931013 0.225789
C7    C     C_R   0.095359 0.718369 0.928074 0.238468
C8    C     C_R   0.095265 0.283672 0.932920 0.231895
C9    C     C_R   0.592372 0.198615 0.817863 -0.084927
C10   C     C_R   0.589524 0.802018 0.818394 -0.103272
C11   C     C_R   0.092867 0.698518 0.818302 -0.083679
C12   C     C_R   0.612051 0.102185 0.652013 0.549992
C13   C     C_R   0.089491 0.302632 0.819527 -0.092294
C14   C     C_R   0.318530 0.814649 0.151431 -0.172918
C15   C     C_R   0.313030 0.180483 0.143003 -0.172910
C16   C     C_R   0.817911 0.315302 0.150299 -0.176602
C17   C     C_R   0.813383 0.680750 0.143348 -0.173369
C18   C     C_R   0.248074 0.817028 0.261289 0.200048
C19   C     C_R   0.255178 0.189057 0.270566 0.250332
C20   C     C_R   0.748305 0.316792 0.261446 0.242263
C21   C     C_R   0.754579 0.688696 0.269591 0.249700
C22   C     C_R   0.677227 0.161076 0.738114 0.004306
C23   C     C_R   0.110458 0.396930 0.650245 0.548377
C24   C     C_R   0.672032 0.835722 0.731949 -0.006563
C25   C     C_R   0.177960 0.660472 0.739214 0.006390
C26   C     C_R   0.171177 0.335181 0.731058 -0.005610
C27   C     C_R   0.687089 0.987663 0.293186 -0.122975
C28   C     C_R   0.187105 0.487903 0.293193 -0.126256
C29   C     C_R   0.342538 0.004931 0.627640 0.151055
C30   C     C_R   0.842514 0.504760 0.627582 0.111567
C31   C     C_R   0.307568 0.006397 0.697941 -0.117564
C32   C     C_R   0.807536 0.506138 0.697878 -0.142828
C33   C     C_R   0.386037 0.101310 0.346025 0.557833
C34   C     C_R   0.112195 0.602073 0.652214 0.550314
C35   C     C_R   0.385316 0.899197 0.345218 0.551138
C36   C     C_R   0.886011 0.601309 0.345980 0.557440
C37   C     C_R   0.885340 0.399182 0.345229 0.558881
C38   C     C_R   0.367009 0.003462 0.843214 -0.137499
C39   C     C_R   0.866985 0.503300 0.843168 -0.143929
C40   C     C_R   0.463497 0.999136 0.922168 -0.039308
C41   C     C_R   0.963488 0.499143 0.922151 -0.040630
C42   C     C_R   0.497757 0.997562 0.846036 0.194725
C43   C     C_R   0.997757 0.497636 0.846035 0.191263
C44   C     C_R   0.526798 0.997031 0.073880 -0.002569
C45   C     C_R   0.248787 0.769324 0.045655 -0.026092
C46   C     C_R   0.026794 0.497086 0.073872 -0.002077
C47   C     C_R   0.622405 0.989890 0.146908 0.016468
C48   C     C_R   0.122417 0.490095 0.146914 0.016942
C49   C     C_R   0.655124 0.986743 0.075555 -0.125420
C50   C     C_R   0.155144 0.487026 0.075575 -0.126822
C51   C     C_R   0.597465 0.993816 0.930803 0.274673
C52   C     C_R   0.097473 0.493972 0.930811 0.274164
C53   C     C_R   0.500799 0.001727 0.158906 0.060121
C54   C     C_R   0.000791 0.501688 0.158900 0.059784
C55   C     C_R   0.657376 0.993182 0.369295 0.069221
C56   C     C_R   0.243444 0.226321 0.038513 -0.025903
C57   C     C_R   0.157385 0.493311 0.369300 0.066476
C58   C     C_R   0.676468 0.274768 0.152511 -0.067465
C59   C     C_R   0.680912 0.729202 0.159643 -0.062185
C60   C     C_R   0.176544 0.774647 0.152777 -0.069625
C61   C     C_R   0.181783 0.229925 0.161186 -0.060741
C62   C     C_R   0.317160 0.842067 0.255209 -0.022524
C63   C     C_R   0.318079 0.158509 0.255876 -0.016091
C64   C     C_R   0.817060 0.342177 0.254921 -0.014890
C65   C     C_R   0.817994 0.658488 0.255677 -0.016164
C66   C     C_R   0.752248 0.171961 0.741090 -0.104868
C67   C     C_R   0.747994 0.270179 0.044236 -0.026853
C68   C     C_R   0.743057 0.820562 0.727498 -0.103296
C69   C     C_R   0.253703 0.670439 0.743668 -0.105961
C70   C     C_R   0.241263 0.319014 0.724975 -0.103062
C71   C     C_R   0.326688 0.714107 0.844368 -0.107139
C72   C     C_R   0.309472 0.270032 0.816785 -0.101994
C73   C     C_R   0.824503 0.216601 0.840266 -0.116995
C74   C     C_R   0.811943 0.772266 0.820453 -0.101771
C75   C     C_R   0.326815 0.747101 0.944623 -0.092421
C76   C     C_R   0.311740 0.238699 0.920394 -0.101845
C77   C     C_R   0.824847 0.249414 0.940871 -0.098583
C78   C     C_R   0.743766 0.726500 0.038666 -0.025908
C79   C     C_R   0.813742 0.740491 0.923315 -0.101326
C80   C     C_R   0.749257 0.241148 0.939564 0.028479
C81   C     C_R   0.742239 0.753348 0.929888 0.027228
C82   C     C_R   0.250417 0.739918 0.941610 0.026315
C83   C     C_R   0.241283 0.252680 0.928841 0.027574
C84   C     C_R   0.672233 0.200328 0.830560 -0.006415
C85   C     C_R   0.667119 0.797102 0.825421 -0.006940
C86   C     C_R   0.173006 0.699743 0.831683 -0.006178
C87   C     C_R   0.166496 0.296939 0.825159 -0.008198
C88   C     C_R   0.673350 0.253885 0.042008 0.035769
Cu1   Cu    Cu3+1 0.526340 0.000000 0.421010 0.959490
Cu2   Cu    Cu3+1 0.026340 0.500000 0.421010 0.958748
Cu3   Cu    Cu3+1 0.473640 0.000000 0.578990 1.087013
Cu4   Cu    Cu3+1 0.973640 0.500000 0.578990 1.078720
H1    H     H_    0.729333 0.981927 0.135606 0.102981
H2    H     H_    0.835530 0.504376 0.891331 0.109939
H3    H     H_    0.233620 0.010148 0.639208 0.131045
H4    H     H_    0.733571 0.509668 0.639123 0.132786
H5    H     H_    0.620735 0.259552 0.152225 0.215685
H6    H     H_    0.628822 0.747667 0.165400 0.212767
H7    H     H_    0.120599 0.759657 0.152134 0.215619
H8    H     H_    0.130148 0.248771 0.167657 0.213975
H9    H     H_    0.372856 0.832046 0.150927 0.146056
H10   H     H_    0.362882 0.159296 0.135753 0.144083
H11   H     H_    0.872169 0.332786 0.149731 0.145798
H12   H     H_    0.229360 0.482294 0.135633 0.101232
H13   H     H_    0.863530 0.659790 0.136531 0.144159
H14   H     H_    0.757253 0.143490 0.670506 0.149248
H15   H     H_    0.747491 0.848005 0.655285 0.162753
H16   H     H_    0.258788 0.641785 0.673324 0.140011
H17   H     H_    0.245414 0.346066 0.652157 0.163936
H18   H     H_    0.388651 0.776287 0.024374 0.134100
H19   H     H_    0.370268 0.204778 0.992646 0.130396
H20   H     H_    0.886121 0.279523 0.019227 0.134208
H21   H     H_    0.872830 0.707271 0.996706 0.131713
H22   H     H_    0.385695 0.719493 0.848623 0.175197
H23   H     H_    0.760570 0.982130 0.348573 0.107578
H24   H     H_    0.363363 0.258890 0.811232 0.191951
H25   H     H_    0.882808 0.223008 0.843011 0.178684
H26   H     H_    0.866713 0.762097 0.816468 0.192503
H27   H     H_    0.527081 0.180993 0.723122 0.180028
H28   H     H_    0.524210 0.821574 0.726148 0.155206
H29   H     H_    0.027488 0.681273 0.723160 0.179889
H30   H     H_    0.024002 0.322284 0.727692 0.177892
H31   H     H_    0.706629 0.991126 0.482166 0.123863
H32   H     H_    0.206642 0.491292 0.482172 0.122298
H33   H     H_    0.359810 0.784575 0.569962 0.326029
H34   H     H_    0.260595 0.482477 0.348583 0.104387
H35   H     H_    0.179145 0.115840 0.450722 0.357809
H36   H     H_    0.833169 0.344339 0.618203 0.348994
H37   H     H_    0.678983 0.615292 0.450226 0.358060
H38   H     H_    0.710486 0.996482 0.950100 0.305361
H39   H     H_    0.210496 0.496634 0.950114 0.304323
H40   H     H_    0.475424 0.174538 0.842199 0.344140
H41   H     H_    0.476121 0.827534 0.849617 0.341951
H42   H     H_    0.975343 0.674854 0.841597 0.346323
H43   H     H_    0.978733 0.330742 0.855048 0.322926
H44   H     H_    0.429393 0.006469 0.113807 0.114102
H45   H     H_    0.929377 0.506341 0.113792 0.113353
H46   H     H_    0.296454 0.008525 0.515868 0.227560
H47   H     H_    0.796381 0.508015 0.515728 0.231390
H48   H     H_    0.335561 0.004640 0.891382 0.108714
N1    N     N_R   0.566260 0.000000 0.302220 -0.234043
N2    N     N_R   0.066260 0.500000 0.302220 -0.233540
N3    N     N_R   0.434410 0.000000 0.697680 -0.227672
N4    N     N_R   0.934410 0.500000 0.697680 -0.234036
O1    O     O_R   0.608610 0.924520 0.551740 -0.511790
O2    O     O_R   0.435880 0.924530 0.314850 -0.523644
O3    O     O_R   0.935880 0.575470 0.314850 -0.525616
O4    O     O_R   0.935880 0.424530 0.314850 -0.525544
O5    O     O_R   0.391380 0.075460 0.448260 -0.443546
O6    O     O_R   0.391380 0.924540 0.448260 -0.432308
O7    O     O_R   0.891380 0.575460 0.448260 -0.441354
O8    O     O_R   0.891380 0.424540 0.448260 -0.431622
O9    O     O_2   0.200466 0.913077 0.361668 -0.259140
O10   O     O_2   0.175950 0.788848 0.387251 -0.295321
O11   O     O_3   0.343556 0.835978 0.552899 -0.529293
O12   O     O_R   0.608610 0.075480 0.551740 -0.506786
O13   O     O_2   0.354995 0.170446 0.551307 -0.316438
O14   O     O_2   0.218033 0.245412 0.427417 -0.318028
O15   O     O_3   0.192518 0.109437 0.386212 -0.531709
O16   O     O_2   0.700488 0.411030 0.364357 -0.291948
O17   O     O_2   0.679017 0.285598 0.389813 -0.295890
O18   O     O_3   0.845662 0.334598 0.553459 -0.541778
O19   O     O_2   0.854444 0.670721 0.550402 -0.310997
O20   O     O_2   0.716813 0.745014 0.425670 -0.317737
O21   O     O_3   0.692453 0.608893 0.385827 -0.532336
O22   O     O_3   0.642212 0.000232 0.877720 -0.645333
O23   O     O_R   0.108610 0.424520 0.551740 -0.510943
O24   O     O_3   0.142211 0.500229 0.877696 -0.645658
O25   O     O_3   0.521145 0.205010 0.924056 -0.736100
O26   O     O_3   0.523641 0.798632 0.933029 -0.743820
O27   O     O_3   0.021298 0.704950 0.923984 -0.736589
O28   O     O_3   0.025163 0.300379 0.936499 -0.742200
O29   O     O_R   0.108610 0.575480 0.551740 -0.507129
O30   O     O_R   0.564110 0.924510 0.685150 -0.451543
O31   O     O_R   0.564110 0.075490 0.685150 -0.449829
O32   O     O_R   0.064110 0.424510 0.685150 -0.454179
O33   O     O_R   0.064110 0.575490 0.685150 -0.447839
O34   O     O_R   0.435880 0.075470 0.314850 -0.525358
S1    S     S_3+6 0.240142 0.839366 0.391765 0.002934
S2    S     S_3+6 0.258652 0.179682 0.415930 -0.016329
S3    S     S_3+6 0.741439 0.337834 0.393477 -0.000056
S4    S     S_3+6 0.758010 0.679441 0.414909 -0.014127

loop_
_geom_bond_atom_site_label_1
_geom_bond_atom_site_label_2
_ccdc_geom_bond_type
C83   C87   A    
O9    S1    D    
C10   C85   A    
C50   H12   S    
C8    C13   A    
C55   N1    A    
C7    O27   S    
Cu2   O23   S    
C1    O1    A    
C45   C82   A    
O15   S2    S    
C4    C8    A    
C60   H7    S    
C39   C41   A    
C2    C6    A    
C28   C57   A    
Cu4   O32   S    
Cu1   O1    S    
C29   H46   S    
C58   H5    S    
Cu2   O29   S    
C67   C88   A    
C57   N2    A    
O21   S4    S    
C31   H3    S    
C12   O12   A    
C21   C59   A    
C3    C7    A    
C27   C55   A    
C43   C52   A    
C32   C39   A    
C54   H45   S    
C29   N3    A    
C11   C86   A    
C68   C74   A    
C14   C62   A    
C12   C22   S    
C30   N4    A    
C23   C26   S    
C69   C71   A    
O14   S2    D    
C22   C66   A    
Cu2   O4    S    
C16   H11   S    
C5    C88   A    
C44   C53   A    
O11   S1    S    
C26   C87   A    
C49   C51   A    
Cu4   O8    S    
C50   C52   A    
C41   C46   A    
C68   H15   S    
Cu1   Cu3   S    
C24   C85   A    
C44   C47   A    
C80   C84   A    
C25   C34   S    
C3    C60   A    
C40   C42   A    
C15   H10   S    
O10   S1    D    
C4    C56   A    
O19   S4    D    
C41   C43   A    
C13   C87   A    
C43   N4    A    
C11   H29   S    
C53   H44   S    
C66   H14   S    
C76   C83   A    
C69   H16   S    
C28   H34   S    
C14   C45   A    
Cu3   N3    S    
C21   S4    S    
C74   H26   S    
C55   H31   S    
C1    O30   A    
C71   C75   A    
C73   H25   S    
C30   C32   A    
C38   H48   S    
O20   S4    D    
O18   S3    S    
C47   C49   A    
Cu4   O33   S    
C19   C63   A    
Cu3   O5    S    
C2    C59   A    
C18   C62   A    
Cu1   O12   S    
C23   O32   A    
H43   O28   S    
C66   C73   A    
C4    C61   A    
C3    C45   A    
C71   H22   S    
O13   S2    D    
C22   C84   A    
C20   C64   A    
C77   H20   S    
C7    C11   A    
H41   O26   S    
C39   H2    S    
C5    C9    A    
Cu2   O3    S    
C2    C78   A    
C70   H17   S    
C17   H13   S    
C9    H27   S    
H38   O22   S    
C36   O3    A    
Cu2   Cu4   S    
C54   N2    A    
C33   C63   S    
C46   C54   A    
Cu4   O7    S    
H36   O18   S    
Cu3   O31   S    
C72   C76   A    
C75   C82   A    
C16   C67   A    
Cu1   O34   S    
Cu1   O2    S    
Cu2   N2    S    
C1    C24   S    
C12   O31   A    
C23   O23   A    
C18   C60   A    
C35   O6    A    
C18   S1    S    
C74   C79   A    
C79   H21   S    
C26   C70   A    
C25   C86   A    
C61   H8    S    
C25   C69   A    
H40   O25   S    
C37   O8    A    
C20   C58   A    
H35   O15   S    
O16   S3    D    
C37   C64   S    
C56   C83   A    
C79   C81   A    
C6    O26   S    
C77   C80   A    
C27   C47   A    
C72   H24   S    
C28   C48   A    
C75   H18   S    
C15   C63   A    
C30   H47   S    
C21   C65   A    
C33   O34   A    
C36   C65   S    
C67   C80   A    
C14   H9    S    
C58   C88   A    
H39   O24   S    
Cu3   O6    S    
C70   C72   A    
C36   O7    A    
C42   C51   A    
C17   C65   A    
C31   C38   A    
H37   O21   S    
H42   O27   S    
C15   C56   A    
C32   H4    S    
C34   O29   A    
C82   C86   A    
C52   O24   S    
C57   H32   S    
C38   C40   A    
C13   H30   S    
C78   C81   A    
C19   C61   A    
C76   H19   S    
Cu1   N1    S    
C48   C50   A    
C17   C78   A    
C35   C62   S    
C53   N1    A    
C37   O4    A    
O17   S3    D    
Cu4   N4    S    
C10   H28   S    
C6    C10   A    
C24   C68   A    
C9    C84   A    
C46   C48   A    
H33   O11   S    
C40   C44   A    
Cu3   O30   S    
C73   C77   A    
C29   C31   A    
C42   N3    A    
C59   H6    S    
C5    O25   S    
C34   O33   A    
C33   O5    A    
C16   C64   A    
C49   H1    S    
C19   S2    S    
C35   O2    A    
C81   C85   A    
C8    O28   S    
C27   H23   S    
C20   S3    S    
C51   O22   S    
