data_mof_unit_3160.cif
_audit_creation_date              2012-12-11T14:56:44-0500
_audit_creation_method            fapswitch 2.2
_symmetry_space_group_name_H-M    P1
_symmetry_Int_Tables_number       1
_space_group_crystal_system       triclinic
_cell_length_a                    10.514767
_cell_length_b                    10.698279
_cell_length_c                    17.107576
_cell_angle_alpha                 80.4441
_cell_angle_beta                  90.026641
_cell_angle_gamma                 119.439164
_cell_volume                      1645.29735935

loop_
_atom_site_label
_atom_site_type_symbol
_atom_type_description
_atom_site_fract_x
_atom_site_fract_y
_atom_site_fract_z
_atom_type_partial_charge
C1    C     C_R   0.221905 0.853898 0.128517 0.537867
C2    C     C_1   0.683233 0.398607 0.709922 -0.028830
C3    C     C_R   0.617402 0.691819 0.814398 -0.120736
C4    C     C_R   0.613653 0.217661 0.101896 0.548145
C5    C     C_R   0.617350 0.669136 0.737320 -0.143807
C6    C     C_R   0.705207 0.786264 0.676678 0.023552
C7    C     C_R   0.800910 0.925092 0.694678 -0.107906
C8    C     C_R   0.795621 0.949473 0.771365 -0.132527
C9    C     C_R   0.697541 0.834380 0.830527 0.024842
C10   C     C_R   0.221950 0.965426 0.761651 -0.116541
C11   C     C_R   0.221976 0.961489 0.682046 0.059712
C12   C     C_R   0.774862 0.418407 0.264279 -0.125455
C13   C     C_R   0.177958 0.827270 0.657641 0.013262
C14   C     C_R   0.164110 0.706129 0.713850 0.013573
C15   C     C_R   0.166753 0.713864 0.794495 -0.142112
C16   C     C_R   0.641118 0.858607 0.125330 0.543683
C17   C     C_R   0.190766 0.841714 0.818485 -0.022372
C18   C     C_R   0.685990 0.810099 0.357335 0.560401
C19   C     C_R   0.683337 0.387161 0.398584 0.558427
C20   C     C_R   0.103380 0.810068 0.359102 0.549002
C21   C     C_R   0.704659 0.760889 0.595955 0.534250
C22   C     C_R   0.716684 0.444549 0.626343 0.536964
C23   C     C_R   0.759863 0.379879 0.191147 -0.121509
C24   C     C_R   0.105419 0.804759 0.584295 0.552588
C25   C     C_R   0.223983 0.863660 0.898790 0.553653
C26   C     C_R   0.639873 0.289725 0.861700 0.560481
C27   C     C_R   0.648507 0.864121 0.900963 0.550805
C28   C     C_R   0.502781 0.200800 0.232276 -0.136806
C29   C     C_R   0.518112 0.239926 0.306621 -0.130585
C30   C     C_R   0.655900 0.345274 0.322756 0.038779
C31   C     C_2   0.151816 0.572871 0.691095 0.595772
C32   C     C_R   0.625057 0.268046 0.175659 0.034702
C33   C     C_1   0.669194 0.849408 0.205485 -0.028886
C34   C     C_1   0.679736 0.839416 0.275001 -0.030688
C35   C     C_1   0.179022 0.824750 0.210989 -0.055657
C36   C     C_1   0.149963 0.818915 0.279598 -0.052561
C37   C     C_1   0.660609 0.354988 0.780279 -0.027000
Cr1   Cr    Cr6+3 0.402240 0.783890 0.019450 1.034582
Cr2   Cr    Cr6+3 0.382360 0.097900 0.991800 1.030755
Cr3   Cr    Cr6+3 0.715380 0.118170 0.988700 1.043492
Cr4   Cr    Cr6+3 0.936650 0.882420 0.465510 1.048267
Cr5   Cr    Cr6+3 0.605770 0.565620 0.493360 1.085002
Cr6   Cr    Cr6+3 0.921340 0.550490 0.496380 1.075979
H1    H     H_    0.397768 0.116127 0.219580 0.132290
H2    H     H_    0.253047 0.069277 0.778516 0.168066
H3    H     H_    0.069584 0.354693 0.719921 0.339132
H4    H     H_    0.155930 0.622662 0.838352 0.169677
H5    H     H_    0.425521 0.186103 0.351590 0.142929
H6    H     H_    0.880592 0.504699 0.275628 0.134991
H7    H     H_    0.854413 0.436431 0.147373 0.146802
H8    H     H_    0.543630 0.599779 0.859991 0.145522
H9    H     H_    0.546173 0.561153 0.724820 0.138442
H10   H     H_    0.874357 0.017022 0.649019 0.165115
H11   H     H_    0.859274 0.059554 0.782726 0.146953
I1    I     I_    0.286371 0.166921 0.605955 -0.307077
O1    O     O_R   0.521780 0.757110 0.108900 -0.502241
O2    O     O_R   0.805020 0.410040 0.421340 -0.509495
O3    O     O_R   0.049240 0.685450 0.403290 -0.491070
O4    O     O_R   0.275160 0.783810 0.101120 -0.494333
O5    O     O_R   0.077520 0.903010 0.551800 -0.497496
O6    O     O_R   0.802980 0.872780 0.546830 -0.499763
O7    O     O_R   0.578090 0.681300 0.569920 -0.465153
O8    O     O_R   0.608530 0.436370 0.586530 -0.482182
O9    O     O_R   0.798770 0.401880 0.597100 -0.473815
O10   O     O_R   0.043450 0.677890 0.566230 -0.489006
O11   O     O_3   0.821250 0.666180 0.485090 -0.319663
O12   O     O_R   0.513330 0.228330 0.898660 -0.502302
O13   O     O_R   0.237900 0.972600 0.090980 -0.516039
O14   O     O_R   0.511190 0.220540 0.061620 -0.496053
O15   O     O_R   0.736920 0.257720 0.063840 -0.520399
O16   O     O_R   0.710450 0.984050 0.081720 -0.511760
O17   O     O_R   0.524090 0.765520 0.933110 -0.518327
O18   O     O_R   0.277300 0.791600 0.938160 -0.496298
O19   O     O_R   0.240210 0.981010 0.915190 -0.519236
O20   O     O_2   0.218547 0.582392 0.629827 -0.476211
O21   O     O_R   0.068515 0.436970 0.741466 -0.704623
O22   O     O_R   0.739230 0.266130 0.888050 -0.481353
O23   O     O_R   0.712580 0.991850 0.918770 -0.496396
O24   O     O_3   0.499990 0.999980 0.999980 -0.274379
O25   O     O_R   0.083770 0.911170 0.376030 -0.504557
O26   O     O_R   0.808770 0.880340 0.383890 -0.489011
O27   O     O_R   0.584340 0.689460 0.394160 -0.492270
O28   O     O_R   0.614320 0.443940 0.423590 -0.483966

loop_
_geom_bond_atom_site_label_1
_geom_bond_atom_site_label_2
_ccdc_geom_bond_type
Cr3   O16   S    
Cr2   O13   S    
C35   C36   T    
Cr5   O27   S    
Cr4   O6    S    
C14   C31   S    
C27   O23   A    
C1    O13   A    
Cr4   O25   S    
H3    O21   S    
C12   H6    S    
C7    C8    A    
C19   O2    A    
C12   C23   A    
C9    C27   S    
Cr3   O15   S    
C26   O12   A    
C28   C29   A    
C1    O4    A    
C5    C6    A    
Cr1   O24   S    
C10   C17   A    
C18   O26   A    
C25   O19   A    
Cr2   O19   S    
Cr6   O3    S    
C22   O8    A    
C8    C9    A    
C2    C22   S    
C5    H9    S    
C15   H4    S    
Cr5   O7    S    
C21   O6    A    
C24   O5    A    
C13   C14   A    
C16   O16   A    
C19   O28   A    
C4    O15   A    
C4    O14   A    
Cr6   O9    S    
Cr1   O17   S    
C26   O22   A    
C20   O25   A    
C29   H5    S    
C28   C32   A    
C8    H11   S    
C3    H8    S    
C23   H7    S    
Cr4   O11   S    
C6    C21   S    
C28   H1    S    
C13   C24   S    
Cr2   O24   S    
C16   O1    A    
C29   C30   A    
C3    C9    A    
C16   C33   S    
C31   O20   D    
Cr6   O10   S    
Cr4   O26   S    
C10   H2    S    
C33   C34   T    
Cr2   O14   S    
Cr3   O24   S    
C18   C34   S    
C21   O7    A    
C4    C32   S    
C24   O10   A    
Cr3   O23   S    
C7    H10   S    
C20   O3    A    
C11   I1    S    
C1    C35   S    
C15   C17   A    
C12   C30   A    
C14   C15   A    
Cr2   O12   S    
Cr5   O28   S    
Cr4   O5    S    
C3    C5    A    
C26   C37   S    
C6    C7    A    
C17   C25   S    
C23   C32   A    
C11   C13   A    
C2    C37   T    
C31   O21   S    
Cr6   O11   S    
C18   O27   A    
C25   O18   A    
C10   C11   A    
Cr6   O2    S    
C22   O9    A    
Cr1   O4    S    
C20   C36   S    
Cr1   O1    S    
Cr5   O11   S    
Cr3   O22   S    
C19   C30   S    
Cr5   O8    S    
C27   O17   A    
Cr1   O18   S    
