data_mof_unit_4272.cif
_audit_creation_date              2012-12-10T16:53:08-0500
_audit_creation_method            fapswitch 2.2
_symmetry_space_group_name_H-M    P1
_symmetry_Int_Tables_number       1
_space_group_crystal_system       triclinic
_cell_length_a                    10.776038
_cell_length_b                    10.929589
_cell_length_c                    9.731206
_cell_angle_alpha                 89.695535
_cell_angle_beta                  89.862712
_cell_angle_gamma                 90.154604
_cell_volume                      1146.09504981

loop_
_atom_site_label
_atom_site_type_symbol
_atom_type_description
_atom_site_fract_x
_atom_site_fract_y
_atom_site_fract_z
_atom_type_partial_charge
C1    C     C_R   0.498708 0.265437 0.500285 0.871289
C2    C     C_R   0.065340 0.608013 0.559797 0.092558
C3    C     C_R   0.129181 0.508774 0.500317 -0.135977
C4    C     C_R   0.065329 0.412732 0.438578 -0.217923
C5    C     C_R   0.937116 0.410654 0.438400 0.253876
C6    C     C_R   0.871237 0.506891 0.499335 -0.150702
C7    C     C_2   0.498997 0.933517 0.386901 -0.136246
C8    C     C_2   0.508898 0.866467 0.501886 -0.313436
C9    C     C_2   0.504549 0.067539 0.387458 -0.120920
C10   C     C_2   0.493019 0.133299 0.502716 -0.299663
C11   C     C_2   0.415250 0.445476 0.922345 -0.019897
C12   C     C_R   0.262816 0.502663 0.500153 0.787553
C13   C     C_2   0.427356 0.431429 0.076292 -0.090855
C14   C     C_R   0.501857 0.734505 0.499839 0.815660
C15   C     C_R   0.737296 0.501399 0.499787 0.845191
C16   C     C_R   0.128825 0.709266 0.616395 -0.145588
C17   C     C_R   0.063440 0.807260 0.671851 -0.115846
C18   C     C_R   0.934361 0.806964 0.670728 -0.110096
C19   C     C_R   0.869893 0.708601 0.614294 -0.142800
C20   C     C_R   0.934202 0.607389 0.558864 0.051242
Cu1   Cu    Cu3+1 0.500020 0.500020 0.638630 0.968585
Cu2   Cu    Cu3+1 0.499980 0.499980 0.361370 1.016339
H1    H     H_    0.115789 0.337420 0.392885 0.169820
H2    H     H_    0.476375 0.091706 0.602192 0.144238
H3    H     H_    0.334421 0.406043 0.873174 0.155194
H4    H     H_    0.583793 0.514877 0.890585 0.209268
H5    H     H_    0.373247 0.359511 0.125189 0.145907
H6    H     H_    0.229030 0.714612 0.616752 0.145568
H7    H     H_    0.113170 0.884259 0.714734 0.145297
H8    H     H_    0.883908 0.883740 0.712740 0.146845
H9    H     H_    0.769744 0.713752 0.613136 0.137530
H10   H     H_    0.488091 0.889391 0.287858 0.188735
H11   H     H_    0.525033 0.907001 0.601443 0.154704
H12   H     H_    0.516366 0.112868 0.288640 0.180139
N1    N     N_2   0.498640 0.498660 0.846910 -0.267467
N2    N     N_2   0.498610 0.498630 0.153040 -0.234255
O1    O     O_R   0.500020 0.321960 0.617040 -0.580161
O2    O     O_R   0.499980 0.321920 0.382900 -0.575699
O3    O     O_R   0.319670 0.500020 0.617100 -0.583465
O4    O     O_R   0.319630 0.499980 0.382950 -0.581025
O5    O     O_R   0.500020 0.678080 0.617100 -0.578406
O6    O     O_R   0.499980 0.678040 0.382960 -0.574676
O7    O     O_R   0.680370 0.500020 0.617050 -0.591165
O8    O     O_R   0.680330 0.499980 0.382900 -0.516783
C21   C     C_2   0.536561 0.616683 0.105106 1.026258
O9    O     O_2   0.462150 0.685472 0.049657 -0.623505
O10   O     O_R   0.657677 0.656387 0.130240 -0.748072
H13   H     H_    0.673469 0.742492 0.094961 0.313157
Br1   Br    Br    0.856165 0.270733 0.359254 -0.510323

loop_
_geom_bond_atom_site_label_1
_geom_bond_atom_site_label_2
_ccdc_geom_bond_type
C12   O4    A    
C16   H6    S    
C18   H8    S    
C17   H7    S    
C2    C16   A    
C9    C10   D    
O10   H13   S    
Cu1   O3    S    
C1    O1    A    
C14   O6    A    
C19   H9    S    
C12   O3    A    
C11   N1    D    
C17   C18   A    
C3    C12   S    
Cu2   O4    S    
C7    C8    D    
Cu1   O7    S    
C21   O9    D    
C11   C13   S    
C5    Br1   S    
Cu2   O6    S    
C6    C20   A    
C13   N2    D    
C14   O5    A    
Cu1   O5    S    
C4    C5    A    
C1    O2    A    
C15   O8    A    
C2    C3    A    
C8    H11   S    
C21   O10   S    
C5    C6    A    
Cu1   N1    S    
C11   H3    S    
C15   O7    A    
C3    C4    A    
Cu2   O2    S    
H4    N1    S    
N2    C21   S    
Cu2   N2    S    
Cu1   O1    S    
C18   C19   A    
C7    C9    S    
C4    H1    S    
C13   H5    S    
C8    C14   S    
C7    H10   S    
C10   H2    S    
C6    C15   S    
Cu1   Cu2   S    
C2    C20   A    
Cu2   O8    S    
C1    C10   S    
C19   C20   A    
C9    H12   S    
C16   C17   A    
