data_mof_unit_623.cif
_audit_creation_date              2012-12-11T20:41:18-0500
_audit_creation_method            fapswitch 2.2
_symmetry_space_group_name_H-M    P1
_symmetry_Int_Tables_number       1
_space_group_crystal_system       triclinic
_cell_length_a                    8.23653
_cell_length_b                    18.865319
_cell_length_c                    27.006886
_cell_angle_alpha                 97.050957
_cell_angle_beta                  92.49341
_cell_angle_gamma                 86.313437
_cell_volume                      4153.41677758

loop_
_atom_site_label
_atom_site_type_symbol
_atom_type_description
_atom_site_fract_x
_atom_site_fract_y
_atom_site_fract_z
_atom_type_partial_charge
Ba1   Ba    Ba6+2 0.852670 0.466460 0.522850 1.658111
Ba2   Ba    Ba6+2 0.337150 0.533490 0.477140 1.645318
C1    C     C_3   0.575364 0.222117 0.663209 -0.360065
C2    C     C_R   0.919013 0.570332 0.178698 0.572569
C3    C     C_2   0.762983 0.547031 0.272826 -0.082416
C4    C     C_3   0.118926 0.267564 0.650614 0.317606
C5    C     C_3   0.747025 0.570918 0.327815 -0.047372
C6    C     C_1   0.981811 0.488878 0.342534 0.029667
C7    C     C_2   0.021612 0.484643 0.294686 -0.107198
C8    C     C_2   0.904277 0.513384 0.256248 0.194395
C9    C     C_R   0.021575 0.504905 0.101515 -0.079478
C10   C     C_R   0.047610 0.443642 0.126559 -0.036596
C11   C     C_R   0.112308 0.380400 0.100023 -0.059726
C12   C     C_3   0.577948 0.293173 0.642112 0.372001
C13   C     C_R   0.956609 0.568460 0.128006 -0.024233
C14   C     C_2   0.851236 0.526148 0.360502 -0.292344
C15   C     C_2   0.351534 0.483059 0.641257 -0.278675
C16   C     C_3   0.042677 0.247939 0.696950 -0.344277
C17   C     C_R   0.164522 0.436223 0.972090 0.019682
C18   C     C_R   0.070215 0.563346 0.974132 0.020343
C19   C     C_R   0.136570 0.498884 0.947689 0.050063
C20   C     C_R   0.230612 0.373597 0.943780 -0.098329
C21   C     C_R   0.267910 0.372591 0.893791 -0.061582
C22   C     C_R   0.241562 0.433885 0.869373 -0.034418
C23   C     C_3   0.520060 0.646032 0.630023 0.301918
C24   C     C_R   0.175526 0.497167 0.896240 -0.078236
C25   C     C_R   0.148610 0.558838 0.871651 -0.033323
C26   C     C_R   0.189179 0.556797 0.821095 0.585897
C27   C     C_R   0.279910 0.433165 0.818601 0.591766
C28   C     C_3   0.183147 0.317872 0.416499 0.311732
C29   C     C_2   0.453725 0.479271 0.729200 -0.079530
C30   C     C_3   0.499390 0.487526 0.676349 -0.067633
C31   C     C_1   0.212140 0.513534 0.657215 0.046258
C32   C     C_2   0.171529 0.513721 0.704368 -0.083751
C33   C     C_2   0.297563 0.494048 0.743180 0.215751
C34   C     C_3   0.509392 0.672696 0.685353 -0.372035
C35   C     C_R   0.125873 0.438152 0.023558 0.019562
C36   C     C_R   0.060102 0.502743 0.049980 0.049701
C37   C     C_R   0.032248 0.565319 0.025490 0.020432
C38   C     C_R   0.150604 0.377599 0.049930 -0.098580
C39   C     C_R   0.930428 0.629565 0.103446 -0.060400
C40   C     C_3   0.198344 0.237008 0.403698 -0.362325
C41   C     C_R   0.044073 0.623985 0.947956 -0.100051
C42   C     C_R   0.082489 0.621657 0.898121 -0.061250
C43   C     C_R   0.967100 0.628186 0.053601 -0.101765
C44   C     C_2   0.410196 0.300640 0.521240 -0.245779
C45   C     C_3   0.075433 0.685199 0.342190 0.342720
C46   C     C_3   0.327032 0.253197 0.552043 -0.068704
C47   C     C_2   0.362995 0.174314 0.536430 -0.120478
C48   C     C_2   0.489662 0.151370 0.506982 -0.065658
C49   C     C_2   0.580026 0.205919 0.485156 -0.128048
C50   C     C_1   0.530228 0.274644 0.492045 0.061667
C51   C     C_R   0.645656 0.932476 0.488567 0.461299
C52   C     C_3   0.011640 0.682662 0.583071 0.304187
C53   C     C_R   0.542518 0.073760 0.498696 0.462155
C54   C     C_R   0.612149 0.807259 0.507110 -0.123601
C55   C     C_R   0.663464 0.734880 0.504488 0.040717
C56   C     C_3   0.092790 0.704822 0.289792 -0.311233
C57   C     C_R   0.898677 0.756276 0.459487 0.016289
C58   C     C_R   0.848600 0.829284 0.461612 -0.141061
C59   C     C_R   0.702115 0.855376 0.484824 -0.068386
C60   C     C_R   0.801420 0.709319 0.478700 -0.280006
C61   C     C_3   0.994290 0.763394 0.596719 -0.376859
C62   C     C_3   0.667435 0.378968 0.372523 0.301890
C63   C     C_3   0.661037 0.361728 0.315999 -0.354076
C64   C     C_3   0.535377 0.724751 0.364971 0.360382
C65   C     C_3   0.499436 0.796813 0.345779 -0.357250
C66   C     C_R   0.007660 0.446706 0.177527 0.598075
H1    H     H_    0.637671 0.282859 0.605567 0.063624
H2    H     H_    0.792903 0.391171 0.385139 0.006821
H3    H     H_    0.583155 0.426307 0.382725 0.076778
H4    H     H_    0.701551 0.199848 0.669466 0.129479
H5    H     H_    0.749005 0.316196 0.304488 0.134486
H6    H     H_    0.692505 0.408811 0.298363 0.069764
H7    H     H_    0.536402 0.347453 0.302779 0.134149
H8    H     H_    0.450909 0.315545 0.637495 -0.087331
H9    H     H_    0.510645 0.183138 0.636546 0.066236
H10   H     H_    0.396005 0.633351 0.615321 0.028727
H11   H     H_    0.602842 0.597000 0.625462 0.034821
H12   H     H_    0.285200 0.222191 0.373288 0.122446
H13   H     H_    0.433316 0.723666 0.690453 0.140341
H14   H     H_    0.452873 0.632906 0.705090 0.076938
H15   H     H_    0.633118 0.681756 0.702004 0.125494
H16   H     H_    0.512370 0.229802 0.699184 0.133111
H17   H     H_    0.130810 0.255100 0.729226 0.103178
H18   H     H_    0.146192 0.633659 0.345403 0.087301
H19   H     H_    0.944720 0.678920 0.347684 -0.057260
H20   H     H_    0.211169 0.728269 0.286288 0.147670
H21   H     H_    0.088111 0.655932 0.262679 0.120318
H22   H     H_    0.993170 0.744199 0.280750 0.118723
H23   H     H_    0.243215 0.211450 0.436892 0.076405
H24   H     H_    0.669728 0.713959 0.365464 -0.066525
H25   H     H_    0.492177 0.728514 0.403667 0.076832
H26   H     H_    0.566617 0.838373 0.369530 0.076782
H27   H     H_    0.367356 0.812305 0.346998 0.152286
H28   H     H_    0.144317 0.325349 0.657054 0.028258
H29   H     H_    0.538921 0.794109 0.306758 0.120776
H30   H     H_    0.140595 0.461861 0.283427 0.129398
H31   H     H_    0.134000 0.332225 0.118017 0.122622
H32   H     H_    0.548781 0.467781 0.756706 0.095218
H33   H     H_    0.318347 0.323026 0.874216 0.119301
H34   H     H_    0.077582 0.216765 0.391451 0.137215
H35   H     H_    0.255680 0.323813 0.959038 0.068860
H36   H     H_    0.199645 0.326545 0.033028 0.069402
H37   H     H_    0.671295 0.566576 0.246909 0.118586
H38   H     H_    0.880804 0.679443 0.122822 0.122785
H39   H     H_    0.993678 0.674850 0.964677 0.069396
H40   H     H_    0.234235 0.234242 0.645571 -0.024360
H41   H     H_    0.059910 0.669941 0.880286 0.123101
H42   H     H_    0.048355 0.529876 0.715458 0.117668
H43   H     H_    0.942514 0.678059 0.038476 0.069142
H44   H     H_    0.835713 0.537334 0.400452 0.082721
H45   H     H_    0.891857 0.662623 0.570819 0.006614
H46   H     H_    0.359277 0.454987 0.603778 0.068668
H47   H     H_    0.296050 0.136794 0.553775 0.098838
H48   H     H_    0.685039 0.188775 0.462777 0.108212
H49   H     H_    0.504614 0.825944 0.527684 0.109719
H50   H     H_    0.924729 0.865283 0.446298 0.105783
H51   H     H_    0.385000 0.357933 0.529379 0.067069
H52   H     H_    0.932269 0.283083 0.705761 0.165359
H53   H     H_    0.840585 0.653284 0.477398 0.059181
H54   H     H_    0.010112 0.191230 0.691023 0.110900
H55   H     H_    0.304641 0.337453 0.426990 -0.002454
H56   H     H_    0.097000 0.670472 0.552152 0.075071
H57   H     H_    0.101955 0.331147 0.448400 0.085770
H58   H     H_    0.903505 0.777163 0.626128 0.137035
H59   H     H_    0.953594 0.789987 0.563613 0.065363
H60   H     H_    0.113432 0.783717 0.610751 0.127524
N1    N     N_R   0.944304 0.509821 0.203421 -0.421960
N2    N     N_R   0.254409 0.494433 0.795063 -0.425678
N3    N     N_R   0.505744 0.955646 0.511861 -0.242706
N4    N     N_R   0.455521 0.024557 0.516873 -0.243520
N5    N     N_R   0.681892 0.050687 0.474888 -0.238264
N6    N     N_R   0.732376 0.981516 0.469895 -0.240421
O1    O     O_2   0.914730 0.537460 0.618690 -0.462215
O2    O     O_2   0.236000 0.753321 0.470521 -0.481292
O3    O     O_3   0.135606 0.739369 0.377093 -0.599398
O4    O     O_3   0.146720 0.537410 0.558510 -0.490963
O5    O     O_3   0.553920 0.415280 0.473710 -0.492771
O6    O     O_2   0.383540 0.672140 0.526840 -0.460893
O7    O     O_3   0.581246 0.699719 0.605796 -0.639538
O8    O     O_2   0.416888 0.533155 0.323129 -0.498328
O9    O     O_3   0.454520 0.671438 0.333990 -0.592930
O10   O     O_2   0.027151 0.392789 0.198468 -0.595547
O11   O     O_2   0.334890 0.377834 0.795278 -0.600119
O12   O     O_3   0.622276 0.319380 0.393653 -0.633028
O13   O     O_2   0.864452 0.626553 0.200905 -0.621087
O14   O     O_2   0.168334 0.610971 0.800429 -0.598308
O15   O     O_3   0.666360 0.409390 0.586570 -0.482362
O16   O     O_2   0.834673 0.447811 0.670777 -0.475645
O17   O     O_3   0.069994 0.651645 0.625279 -0.629231
O18   O     O_3   0.665988 0.340189 0.675422 -0.587331
O19   O     O_2   0.806150 0.327840 0.473120 -0.454242
O20   O     O_3   0.073640 0.373350 0.561550 -0.472997
O21   O     O_2   0.008202 0.246608 0.511263 -0.476408
O22   O     O_3   0.013514 0.253182 0.608702 -0.572459
O23   O     O_2   0.274960 0.462520 0.381280 -0.459512
O24   O     O_3   0.042980 0.462530 0.441480 -0.496901
O25   O     O_3   0.523340 0.590550 0.413420 -0.477502
O26   O     O_3   0.119621 0.348334 0.374603 -0.624178
O27   O     O_3   0.635780 0.584660 0.526290 -0.476045
O28   O     O_3   0.116060 0.626590 0.438450 -0.493775
P1    P     P_3+3 0.084800 0.558370 0.611580 0.998504
P2    P     P_3+3 0.628800 0.338360 0.458800 0.987030
P3    P     P_3+3 0.105570 0.280241 0.557476 0.966706
P4    P     P_3+3 0.104900 0.441570 0.388420 0.992421
P5    P     P_3+3 0.097592 0.719598 0.436885 0.951150
P6    P     P_3+3 0.665658 0.422619 0.652059 0.989565
P7    P     P_3+3 0.569118 0.674476 0.541281 0.951420
P8    P     P_3+3 0.534267 0.588304 0.348882 0.944993

loop_
_geom_bond_atom_site_label_1
_geom_bond_atom_site_label_2
_ccdc_geom_bond_type
C20   H35   S    
C19   C24   A    
C40   H12   S    
O6    P7    D    
O25   P8    S    
C54   H49   S    
Ba2   O28   S    
C55   C60   A    
C3    H37   S    
C28   O26   S    
C10   C66   A    
O24   P4    S    
C24   C25   A    
C7    H30   S    
Ba2   O5    S    
O5    P2    S    
C17   C19   A    
C22   C24   A    
Ba1   Ba2   S    
C35   C38   A    
C27   O11   D    
C36   C37   A    
C52   C61   S    
C34   H15   S    
C52   H45   S    
C44   C50   D    
C63   H5    S    
C54   C55   A    
C32   C33   S    
C62   H3    S    
C22   C27   A    
C11   C38   A    
C17   C35   A    
C9    C13   A    
C25   C42   A    
C46   P3    S    
C29   C30   S    
Ba1   P2    S    
C34   H14   S    
C6    C7    D    
C65   H26   S    
C21   C22   A    
O20   P3    S    
C58   H50   S    
O4    P1    S    
C51   N3    A    
C62   H2    S    
C7    C8    S    
Ba2   P4    S    
C61   H60   S    
Ba1   O5    S    
C37   C43   A    
O17   P1    S    
O27   P7    S    
C42   H41   S    
C64   C65   S    
C28   H57   S    
Ba1   O27   S    
C57   C58   A    
C6    C14   D    
C65   H27   S    
C66   N1    Am   
O15   P6    S    
C15   C31   D    
C40   H34   S    
Ba2   O27   S    
O18   P6    S    
C15   H46   S    
C48   C49   S    
C55   P7    S    
C4    C16   S    
C44   C46   S    
C26   O14   D    
C16   H17   S    
C39   H38   S    
O19   P2    D    
C49   C50   D    
Ba2   O4    S    
C45   H18   S    
C17   C20   A    
C13   C39   A    
C3    C5    S    
C18   C37   A    
Ba2   O25   S    
C64   H24   S    
C64   O9    S    
C53   N5    A    
C2    O13   D    
O12   P2    S    
C63   H6    S    
C23   H10   S    
C58   C59   A    
C12   H8    S    
C11   H31   S    
C9    C36   A    
C41   C42   A    
C35   C36   A    
C38   H36   S    
C27   N2    Am   
C34   H13   S    
Ba2   O24   S    
O16   P6    D    
C45   O3    S    
O7    P7    S    
C31   C32   D    
C54   C59   A    
C41   H39   S    
C29   H32   S    
C18   C19   A    
Ba1   O19   S    
C28   H55   S    
C56   H22   S    
C33   N2    S    
C52   O17   S    
C1    C12   S    
C6    P4    S    
C16   H54   S    
C64   H25   S    
C46   C47   S    
C47   H47   S    
C50   P2    S    
C53   N4    A    
O26   P4    S    
C30   P6    S    
N5    N6    A    
C32   H42   S    
C12   H1    S    
C29   C33   D    
C51   C59   S    
N3    N4    A    
C1    H9    S    
C16   H52   S    
O3    P5    S    
C18   C41   A    
C57   P5    S    
C14   H44   S    
C52   H56   S    
C5    C14   S    
C57   C60   A    
C39   C43   A    
C62   O12   S    
C23   H11   S    
O1    P1    D    
C23   O7    S    
C51   N6    A    
C49   H48   S    
O9    P8    S    
Ba1   O15   S    
C56   H20   S    
O23   P4    D    
C9    C10   A    
C43   H43   S    
C2    N1    Am   
O2    P5    D    
C4    H28   S    
C48   C53   S    
C63   H7    S    
O8    P8    D    
Ba2   O6    S    
C62   C63   S    
C2    C13   A    
C1    H4    S    
C8    N1    S    
C3    C8    D    
C45   C56   S    
Ba1   O24   S    
C21   H33   S    
O22   P3    S    
O21   P3    D    
Ba2   O23   S    
C31   P1    S    
C44   H51   S    
C66   O10   D    
C26   N2    Am   
Ba1   O20   S    
C56   H21   S    
C61   H59   S    
C61   H58   S    
C65   H29   S    
C23   C34   S    
O28   P5    S    
C10   C11   A    
Ba1   P1    S    
C47   C48   D    
C5    P8    S    
C12   O18   S    
C1    H16   S    
C15   C30   S    
C4    H40   S    
C20   C21   A    
C28   C40   S    
Ba1   O1    S    
C60   H53   S    
C4    O22   S    
Ba1   O4    S    
C40   H23   S    
C45   H19   S    
C25   C26   A    
