data_mof_unit_447.cif
_audit_creation_date              2012-12-10T18:05:46-0500
_audit_creation_method            fapswitch 2.2
_symmetry_space_group_name_H-M    P1
_symmetry_Int_Tables_number       1
_space_group_crystal_system       triclinic
_cell_length_a                    10.826181
_cell_length_b                    10.823116
_cell_length_c                    9.496376
_cell_angle_alpha                 90.106837
_cell_angle_beta                  90.348788
_cell_angle_gamma                 90.605805
_cell_volume                      1112.63410266

loop_
_atom_site_label
_atom_site_type_symbol
_atom_type_description
_atom_site_fract_x
_atom_site_fract_y
_atom_site_fract_z
_atom_type_partial_charge
C1    C     C_R   0.499645 0.262014 0.499884 0.787299
C2    C     C_R   0.494919 0.064074 0.627777 -0.195353
C3    C     C_R   0.500370 0.871796 0.500129 -0.006823
C4    C     C_R   0.499630 0.128204 0.499871 -0.006823
C5    C     C_R   0.429087 0.417046 0.073800 -0.008724
C6    C     C_R   0.570913 0.582954 0.926200 -0.008724
C7    C     C_R   0.429124 0.417067 0.924816 -0.028990
C8    C     C_R   0.570875 0.582932 0.075184 -0.028990
C9    C     C_R   0.262202 0.501882 0.499370 0.794606
C10   C     C_R   0.737798 0.498118 0.500630 0.794606
C11   C     C_R   0.235352 0.785622 0.155259 -0.124636
C12   C     C_R   0.500355 0.737986 0.500116 0.787299
C13   C     C_R   0.764647 0.214380 0.844743 -0.124635
C14   C     C_R   0.176798 0.734236 0.273612 0.228477
C15   C     C_R   0.823202 0.265765 0.726390 0.228477
C16   C     C_R   0.121062 0.615575 0.262481 0.125112
C17   C     C_R   0.878937 0.384426 0.737520 0.125112
C18   C     C_R   0.122167 0.552968 0.132777 -0.205507
C19   C     C_R   0.877833 0.447034 0.867222 -0.205507
C20   C     C_R   0.179730 0.605843 0.015992 -0.141861
C21   C     C_R   0.820270 0.394160 0.984008 -0.141861
C22   C     C_R   0.237132 0.721435 0.027516 -0.146193
C23   C     C_R   0.871642 0.496175 0.501750 -0.073495
C24   C     C_R   0.762868 0.278567 0.972486 -0.146193
C25   C     C_R   0.933266 0.549239 0.387386 -0.255178
C26   C     C_R   0.066734 0.450761 0.612614 -0.255178
C27   C     C_3   0.172112 0.807267 0.408644 -0.898739
C28   C     C_3   0.827887 0.192733 0.591358 -0.898739
C29   C     C_R   0.128358 0.503825 0.498250 -0.073495
C30   C     C_R   0.938779 0.445298 0.615346 0.019597
C31   C     C_R   0.061221 0.554702 0.384654 0.019597
C32   C     C_R   0.504664 0.063675 0.372086 -0.202358
C33   C     C_R   0.495336 0.936325 0.627914 -0.202358
C34   C     C_R   0.505081 0.935926 0.372223 -0.195353
Cu1   Cu    Cu3+1 0.500000 0.500020 0.640660 0.940952
Cu2   Cu    Cu3+1 0.500000 0.499980 0.359340 0.940952
H1    H     H_    0.282552 0.761704 0.937035 0.133350
H2    H     H_    0.819345 0.443327 0.083346 0.142934
H3    H     H_    0.881557 0.589617 0.301065 0.146289
H4    H     H_    0.118443 0.410383 0.698935 0.146289
H5    H     H_    0.508514 0.111610 0.272136 0.142319
H6    H     H_    0.491486 0.888390 0.727864 0.142319
H7    H     H_    0.509138 0.887661 0.272349 0.145013
H8    H     H_    0.490862 0.112339 0.727651 0.145013
H9    H     H_    0.371932 0.351003 0.129526 0.114175
H10   H     H_    0.628068 0.648997 0.870474 0.114175
H11   H     H_    0.074479 0.820246 0.440035 0.234185
H12   H     H_    0.717447 0.238300 0.062966 0.133351
H13   H     H_    0.221665 0.757873 0.493727 0.225560
H14   H     H_    0.215836 0.899967 0.396976 0.235733
H15   H     H_    0.925521 0.179754 0.559967 0.234185
H16   H     H_    0.784163 0.100033 0.603027 0.235733
H17   H     H_    0.778335 0.242126 0.506275 0.225560
H18   H     H_    0.372036 0.350988 0.867983 0.110005
H19   H     H_    0.627964 0.649012 0.132017 0.110005
H20   H     H_    0.279226 0.875871 0.161404 0.119583
H21   H     H_    0.720773 0.124131 0.838598 0.119583
H22   H     H_    0.079418 0.462416 0.122661 0.136823
H23   H     H_    0.920582 0.537586 0.877338 0.136823
H24   H     H_    0.180655 0.556676 0.916654 0.142935
N1    N     N_R   0.500030 0.500030 0.852070 -0.152331
N2    N     N_R   0.499970 0.499970 0.147930 -0.152331
O1    O     O_R   0.499990 0.319660 0.618740 -0.583031
O2    O     O_R   0.500010 0.680340 0.381260 -0.583030
O3    O     O_R   0.499990 0.319630 0.381170 -0.596552
O4    O     O_R   0.500010 0.680370 0.618830 -0.596553
O5    O     O_R   0.319650 0.500020 0.618780 -0.593742
O6    O     O_R   0.680350 0.499980 0.381220 -0.593741
O7    O     O_R   0.319640 0.500000 0.381210 -0.568500
O8    O     O_R   0.680360 0.500000 0.618790 -0.568501

loop_
_geom_bond_atom_site_label_1
_geom_bond_atom_site_label_2
_ccdc_geom_bond_type
C25   C31   A    
C2    C4    A    
C32   H5    S    
C9    O5    A    
C8    H19   S    
C9    C29   S    
C14   C27   S    
C20   H24   S    
C5    C7    A    
C11   C22   A    
C1    O3    A    
Cu1   Cu2   S    
C7    H18   S    
C27   H14   S    
Cu1   O5    S    
C28   H17   S    
C1    C4    S    
C19   H23   S    
C9    O7    A    
Cu2   O6    S    
C29   C31   A    
Cu2   O2    S    
C25   H3    S    
C16   C31   S    
C17   C30   S    
C28   H16   S    
C26   H4    S    
C15   C28   S    
C4    C32   A    
C5    H9    S    
C26   C29   A    
Cu2   N2    S    
C33   H6    S    
C1    O1    A    
C6    N1    A    
C16   C18   A    
C13   C24   A    
C11   C14   A    
C20   C22   A    
C5    N2    A    
C26   C30   A    
C10   O6    A    
C23   C25   A    
C13   C15   A    
C12   O2    A    
C28   H15   S    
C14   C16   A    
C13   H21   S    
C34   H7    S    
C27   H11   S    
C24   H12   S    
C23   C30   A    
C10   O8    A    
C21   H2    S    
Cu2   O7    S    
C2    C33   A    
C18   C20   A    
Cu1   N1    S    
C21   C24   A    
C8    N2    A    
C15   C17   A    
C3    C33   A    
Cu2   O3    S    
C7    N1    A    
C10   C23   S    
C6    C8    A    
C3    C12   S    
C6    H10   S    
C3    C34   A    
C17   C19   A    
Cu1   O4    S    
C22   H1    S    
C12   O4    A    
Cu1   O1    S    
C18   H22   S    
C11   H20   S    
C27   H13   S    
Cu1   O8    S    
C2    H8    S    
C19   C21   A    
C32   C34   A    
