data_mof_unit_4950.cif
_audit_creation_date              2012-12-10T18:57:10-0500
_audit_creation_method            fapswitch 2.2
_symmetry_space_group_name_H-M    P1
_symmetry_Int_Tables_number       1
_space_group_crystal_system       triclinic
_cell_length_a                    8.719398
_cell_length_b                    10.827233
_cell_length_c                    9.559335
_cell_angle_alpha                 90.401724
_cell_angle_beta                  97.520485
_cell_angle_gamma                 90.639266
_cell_volume                      894.61643245

loop_
_atom_site_label
_atom_site_type_symbol
_atom_type_description
_atom_site_fract_x
_atom_site_fract_y
_atom_site_fract_z
_atom_type_partial_charge
C1    C     C_R   0.497160 0.262510 0.498989 0.798053
C2    C     C_R   0.531218 0.935366 0.380035 -0.215302
C3    C     C_R   0.485944 0.870947 0.495587 -0.150184
C4    C     C_R   0.417308 0.937182 0.596464 0.120179
C5    C     C_3   0.435862 0.933653 0.753992 0.336206
C6    C     C_3   0.434479 0.074594 0.752074 -0.522792
C7    C     C_R   0.630697 0.532501 0.089280 0.206099
C8    C     C_R   0.376507 0.456142 0.059175 -0.092782
C9    C     C_R   0.376473 0.456204 0.910578 -0.068648
C10   C     C_R   0.630690 0.531435 0.941817 0.201329
C11   C     C_3   0.717130 0.650497 0.943065 -0.549790
C12   C     C_R   0.204095 0.496686 0.464299 0.875341
C13   C     C_3   0.713658 0.654905 0.101833 0.029668
C14   C     C_R   0.497624 0.737682 0.499868 0.813467
C15   C     C_R   0.796035 0.499841 0.536029 0.887710
C16   C     C_2   0.038715 0.487380 0.445914 -0.346190
C17   C     C_2   0.961826 0.502820 0.556180 -0.353853
C18   C     C_R   0.416615 0.064192 0.595211 0.039217
C19   C     C_R   0.484097 0.129503 0.493411 -0.075826
C20   C     C_R   0.530301 0.064022 0.378896 -0.218928
Cu1   Cu    Cu3+1 0.499990 0.499980 0.640670 0.952996
Cu2   Cu    Cu3+1 0.500010 0.500020 0.359330 0.942753
H1    H     H_    0.979834 0.465608 0.341607 0.172499
H2    H     H_    0.275489 0.422078 0.843168 0.137159
H3    H     H_    0.833923 0.638414 0.910460 0.199797
H4    H     H_    0.648304 0.723338 0.885630 0.191536
H5    H     H_    0.642066 0.729834 0.138494 0.146931
H6    H     H_    0.020750 0.520373 0.662012 0.167205
H7    H     H_    0.574360 0.111658 0.292887 0.160057
H8    H     H_    0.575530 0.887270 0.294526 0.149887
H9    H     H_    0.548274 0.894326 0.799526 0.062733
H10   H     H_    0.330974 0.115515 0.790222 0.214840
H11   H     H_    0.547026 0.117128 0.797010 0.170866
H12   H     H_    0.275551 0.421917 0.101885 0.141551
N1    N     N_R   0.500980 0.500930 0.148050 -0.202027
N2    N     N_R   0.500990 0.500890 0.852140 -0.175173
O1    O     O_R   0.500000 0.319640 0.618810 -0.581282
O2    O     O_R   0.500020 0.319680 0.381230 -0.590969
O3    O     O_R   0.274830 0.499980 0.591380 -0.576898
O4    O     O_R   0.274850 0.500020 0.353800 -0.599952
O5    O     O_R   0.499980 0.680320 0.618770 -0.571247
O6    O     O_R   0.500000 0.680360 0.381190 -0.586321
O7    O     O_R   0.725150 0.499980 0.646200 -0.592740
O8    O     O_R   0.725170 0.500020 0.408620 -0.556788
N3    N     N_2   0.866753 0.646959 0.181274 -0.390674
H13   H     H_    0.937616 0.582678 0.142902 0.245651
C21   C     C_3   0.943578 0.764379 0.215425 -0.666888
H14   H     H_    0.056218 0.748951 0.281407 0.230088
H15   H     H_    0.871976 0.823354 0.276269 0.227739
H16   H     H_    0.964942 0.812419 0.117341 0.216591
O9    O     O_3   0.302117 0.882337 0.800971 -0.545402
C22   C     C_3   0.330572 0.862637 0.947592 -0.302797
H17   H     H_    0.376875 0.947225 0.006173 0.151554
H18   H     H_    0.410506 0.784265 0.971205 0.157377
H19   H     H_    0.219737 0.837455 0.985886 0.186375

loop_
_geom_bond_atom_site_label_1
_geom_bond_atom_site_label_2
_ccdc_geom_bond_type
C12   O4    A    
C7    C10   A    
C6    H10   S    
C6    H11   S    
C9    H2    S    
Cu1   O7    S    
C16   H1    S    
C19   C20   A    
Cu1   O3    S    
C22   H19   S    
C1    O1    A    
C14   O6    A    
Cu2   O4    S    
C12   O3    A    
C2    C3    A    
C8    C9    A    
C15   O7    A    
C21   H15   S    
Cu1   N2    S    
C8    H12   S    
N3    H13   S    
C13   N3    S    
Cu2   N1    S    
C11   C13   S    
Cu2   O6    S    
C3    C14   S    
C1    O2    A    
C14   O5    A    
Cu1   O5    S    
C4    C5    S    
C22   H18   S    
C15   O8    A    
C21   H16   S    
C20   H7    S    
N3    C21   S    
C5    C6    S    
C6    C18   S    
C1    C19   S    
C10   C11   S    
C11   H3    S    
C2    C20   A    
O9    C22   S    
Cu2   O2    S    
C9    N2    A    
C12   C16   S    
C7    C13   S    
Cu1   O1    S    
C22   H17   S    
C18   C19   A    
C5    O9    S    
C15   C17   S    
C13   H5    S    
C2    H8    S    
C10   N2    A    
C11   H4    S    
Cu1   Cu2   S    
C17   H6    S    
C7    N1    A    
C4    C18   A    
Cu2   O8    S    
C3    C4    A    
C21   H14   S    
C16   C17   D    
C5    H9    S    
C8    N1    A    
