data_mof_unit_2427.cif
_audit_creation_date              2012-12-10T20:06:28-0500
_audit_creation_method            fapswitch 2.2
_symmetry_space_group_name_H-M    P1
_symmetry_Int_Tables_number       1
_space_group_crystal_system       triclinic
_cell_length_a                    19.243456
_cell_length_b                    18.437545
_cell_length_c                    10.696849
_cell_angle_alpha                 91.758649
_cell_angle_beta                  89.74616
_cell_angle_gamma                 90.512979
_cell_volume                      3793.29182651

loop_
_atom_site_label
_atom_site_type_symbol
_atom_type_description
_atom_site_fract_x
_atom_site_fract_y
_atom_site_fract_z
_atom_type_partial_charge
C1    C     C_R   0.365923 0.499763 0.497462 0.925787
C2    C     C_R   0.291302 0.499582 0.485894 -0.046250
C3    C     C_R   0.964216 0.570613 0.462759 0.141939
C4    C     C_R   0.036968 0.570026 0.450940 0.137287
C5    C     C_R   0.072390 0.503611 0.461062 -0.010580
C6    C     C_R   0.927683 0.503750 0.465732 -0.008237
C7    C     C_R   0.035851 0.437000 0.469705 0.145773
C8    C     C_R   0.963025 0.436807 0.462018 0.144957
C9    C     C_R   0.532354 0.728272 0.593665 0.043105
C10   C     C_R   0.467573 0.723952 0.405933 0.044330
C11   C     C_R   0.532755 0.804406 0.595190 -0.125880
C12   C     C_R   0.634062 0.500302 0.501045 0.841224
C13   C     C_R   0.467125 0.800003 0.403563 -0.129303
C14   C     C_R   0.499919 0.841097 0.499168 0.229960
C15   C     C_R   0.506661 0.498424 0.260141 0.913933
C16   C     C_R   0.500976 0.501065 0.740468 0.998216
C17   C     C_R   0.444370 0.961804 0.554543 0.346534
C18   C     C_R   0.555232 0.960824 0.442861 0.358470
C19   C     C_R   0.444851 0.038175 0.553327 -0.233227
C20   C     C_R   0.554743 0.037240 0.443993 -0.245753
C21   C     C_R   0.499806 0.076764 0.498699 -0.000991
C22   C     C_R   0.499828 0.922164 0.498812 -0.187880
C23   C     C_R   0.852222 0.503491 0.476563 0.092503
C24   C     C_R   0.561108 0.198462 0.522371 -0.254626
C25   C     C_R   0.438677 0.196724 0.476352 -0.233991
C26   C     C_R   0.559978 0.274578 0.522992 0.036001
C27   C     C_R   0.439920 0.272860 0.476947 0.132902
C28   C     C_R   0.499873 0.158186 0.499015 0.162241
C29   C     C_R   0.601596 0.597632 0.132736 -0.128939
C30   C     C_R   0.599480 0.597600 0.872953 -0.158262
C31   C     C_R   0.643036 0.646640 0.068957 -0.107986
C32   C     C_R   0.642567 0.646047 0.939189 -0.129956
C33   C     C_R   0.554264 0.549604 0.936077 0.048819
C34   C     C_R   0.147975 0.504110 0.467311 0.096377
C35   C     C_R   0.557044 0.548251 0.067132 0.068710
C36   C     C_R   0.519362 0.493374 0.127713 -0.309317
C37   C     C_R   0.506405 0.502174 0.873435 -0.314738
C38   C     C_R   0.489242 0.435052 0.058418 0.324032
C39   C     C_R   0.470223 0.447707 0.937128 0.325521
C40   C     C_R   0.748642 0.475772 0.595600 0.156265
C41   C     C_R   0.258650 0.467664 0.379648 0.094883
C42   C     C_R   0.820861 0.478635 0.585712 -0.151316
C43   C     C_R   0.186567 0.471264 0.370549 -0.145600
C44   C     C_3   0.715228 0.446853 0.711839 -0.893094
C45   C     C_R   0.812207 0.526585 0.377100 -0.164680
C46   C     C_3   0.299571 0.431013 0.275787 -0.744418
C47   C     C_3   0.926840 0.642890 0.473801 -0.850404
C48   C     C_3   0.076049 0.640649 0.429580 -0.839653
C49   C     C_3   0.073353 0.365926 0.488959 -0.856184
C50   C     C_3   0.923755 0.364912 0.451979 -0.860139
C51   C     C_R   0.180789 0.536131 0.571613 -0.158869
C52   C     C_R   0.740569 0.526306 0.387623 -0.223041
C53   C     C_R   0.252507 0.535139 0.579576 -0.210310
C54   C     C_R   0.708803 0.500856 0.495792 -0.010438
H1    H     H_    0.557916 0.700248 0.667508 0.120955
H2    H     H_    0.392605 0.301663 0.458522 0.135265
H3    H     H_    0.607583 0.597060 0.232912 0.154889
H4    H     H_    0.604257 0.597281 0.772564 0.146091
H5    H     H_    0.677255 0.683600 0.120323 0.166473
H6    H     H_    0.676472 0.682527 0.889460 0.148073
H7    H     H_    0.852956 0.460593 0.661582 0.149014
H8    H     H_    0.160045 0.447273 0.289978 0.153333
H9    H     H_    0.836616 0.545223 0.292301 0.158895
H10   H     H_    0.150737 0.561908 0.646172 0.162867
H11   H     H_    0.709855 0.544601 0.310430 0.141247
H12   H     H_    0.441902 0.692474 0.332433 0.141391
H13   H     H_    0.277763 0.561008 0.659769 0.193058
H14   H     H_    0.557824 0.281761 0.227905 0.373651
H15   H     H_    0.311951 0.428876 0.750417 0.373601
H16   H     H_    0.320896 0.894353 0.452759 0.347885
H17   H     H_    0.678772 0.899625 0.544657 0.346649
H18   H     H_    0.681220 0.488689 0.755662 0.228162
H19   H     H_    0.683642 0.397818 0.687520 0.252749
H20   H     H_    0.754584 0.431676 0.781806 0.246614
H21   H     H_    0.325103 0.382330 0.311940 0.262759
H22   H     H_    0.265730 0.413197 0.196593 0.257479
H23   H     H_    0.558528 0.834487 0.670435 0.147485
H24   H     H_    0.339551 0.468864 0.239534 0.228683
H25   H     H_    0.952319 0.678575 0.545719 0.249620
H26   H     H_    0.928185 0.669859 0.382475 0.245564
H27   H     H_    0.871919 0.638208 0.503919 0.250057
H28   H     H_    0.051561 0.670126 0.352562 0.248315
H29   H     H_    0.075331 0.675260 0.516303 0.247350
H30   H     H_    0.130897 0.632647 0.400824 0.251613
H31   H     H_    0.047916 0.335739 0.565068 0.250173
H32   H     H_    0.072191 0.332192 0.401251 0.244612
H33   H     H_    0.128178 0.373025 0.518140 0.248780
H34   H     H_    0.441301 0.826626 0.328052 0.151574
H35   H     H_    0.948046 0.328891 0.379478 0.250966
H36   H     H_    0.924450 0.337978 0.543335 0.242239
H37   H     H_    0.868934 0.370643 0.422895 0.249695
H38   H     H_    0.402638 0.067968 0.597202 0.200007
H39   H     H_    0.596968 0.066256 0.400146 0.194288
H40   H     H_    0.609373 0.171405 0.541975 0.154737
H41   H     H_    0.390346 0.168250 0.456500 0.153093
H42   H     H_    0.607337 0.304708 0.542172 0.138793
N1    N     N_R   0.500000 0.689440 0.500000 -0.109025
N2    N     N_R   0.500000 0.310560 0.500000 -0.091157
O1    O     O_R   0.398180 0.560840 0.499970 -0.606454
O2    O     O_2   0.493561 0.291278 0.997858 -0.217007
O3    O     O_3   0.563476 0.330859 0.193940 -0.547791
O4    O     O_2   0.418211 0.336941 0.793665 -0.237491
O5    O     O_2   0.348947 0.376488 0.975536 -0.259543
O6    O     O_3   0.351499 0.458280 0.783460 -0.606035
O7    O     O_2   0.400841 0.871769 0.730489 -0.244643
O8    O     O_2   0.322820 0.970943 0.681822 -0.264826
O9    O     O_3   0.332749 0.862518 0.522323 -0.525694
O10   O     O_2   0.598673 0.865005 0.267292 -0.259559
O11   O     O_2   0.676617 0.967573 0.315035 -0.274171
O12   O     O_R   0.601820 0.560840 0.500030 -0.640361
O13   O     O_3   0.667007 0.864970 0.475218 -0.535254
O14   O     O_R   0.398180 0.439210 0.499910 -0.614125
O15   O     O_R   0.601820 0.439210 0.500090 -0.628188
O16   O     O_R   0.500000 0.560830 0.316760 -0.649784
O17   O     O_R   0.500000 0.560830 0.683240 -0.634606
O18   O     O_R   0.500000 0.439200 0.316700 -0.536467
O19   O     O_R   0.500000 0.439200 0.683300 -0.564114
O20   O     O_2   0.428376 0.327435 0.186158 -0.296943
S1    S     S_3+6 0.491569 0.343427 0.108519 0.089318
S2    S     S_3+6 0.395950 0.401556 0.872618 0.076551
S3    S     S_3+6 0.373756 0.917153 0.627409 0.050879
S4    S     S_3+6 0.625812 0.914824 0.369972 0.038240
Zn1   Zn    Zn3+2 0.500000 0.581210 0.500000 0.966717
Zn2   Zn    Zn3+2 0.500000 0.418790 0.500000 1.037084

loop_
_geom_bond_atom_site_label_1
_geom_bond_atom_site_label_2
_ccdc_geom_bond_type
C20   H39   S    
C27   N2    A    
C23   C45   A    
C49   H33   S    
O5    S2    D    
C47   H25   S    
C3    C6    A    
C1    O1    A    
C46   H22   S    
C7    C8    A    
C25   C28   A    
N2    Zn2   S    
C34   C51   A    
C23   C42   A    
O1    Zn1   S    
C19   C21   A    
O19   Zn2   S    
C24   C26   A    
O14   Zn2   S    
H16   O9    S    
C1    O14   A    
C38   C39   A    
C11   C14   A    
O11   S4    D    
C2    C41   A    
C39   S2    S    
C13   H34   S    
C1    C2    S    
C31   H5    S    
O20   S1    D    
C19   H38   S    
C11   H23   S    
C17   C19   A    
C50   H36   S    
C35   C36   A    
H17   O13   S    
C41   C46   S    
C10   C13   A    
C9    H1    S    
C16   C37   S    
C40   C42   A    
C13   C14   A    
O13   S4    S    
C41   C43   A    
C47   H26   S    
C26   N2    A    
C12   O12   A    
C46   H21   S    
C52   C54   A    
C10   H12   S    
C26   H42   S    
C37   C39   A    
O17   Zn1   S    
C51   H10   S    
O3    S1    S    
C49   H31   S    
H14   O3    S    
C7    C49   S    
C46   H24   S    
C27   H2    S    
C6    C8    A    
C45   C52   A    
C45   H9    S    
C33   C37   A    
C48   H30   S    
C51   C53   A    
C10   N1    A    
C24   H40   S    
O12   Zn1   S    
C50   H35   S    
C31   C32   A    
C5    C34   S    
C15   O16   A    
O7    S3    D    
O2    S1    D    
C44   H20   S    
C9    C11   A    
C42   H7    S    
C18   S4    S    
O16   Zn1   S    
C17   S3    S    
C21   C28   S    
C29   H3    S    
C25   H41   S    
C40   C54   A    
C38   S1    S    
C3    C4    A    
C16   O17   A    
C8    C50   S    
C15   C36   S    
O4    S2    D    
C5    C7    A    
C12   O15   A    
C4    C48   S    
H15   O6    S    
C9    N1    A    
O18   Zn2   S    
C30   C33   A    
C18   C22   A    
C49   H32   S    
C34   C43   A    
C24   C28   A    
O10   S4    D    
C4    C5    A    
C2    C53   A    
C25   C27   A    
C29   C35   A    
C17   C22   A    
C48   H29   S    
C14   C22   S    
C36   C38   A    
C29   C31   A    
C16   O19   A    
C30   C32   A    
O15   Zn2   S    
C6    C23   S    
C30   H4    S    
O8    S3    D    
C3    C47   S    
C33   C35   A    
C48   H28   S    
C44   H18   S    
C18   C20   A    
C47   H27   S    
C44   H19   S    
C53   H13   S    
C50   H37   S    
C40   C44   S    
C20   C21   A    
N1    Zn1   S    
C32   H6    S    
O9    S3    S    
C15   O18   A    
C12   C54   S    
C52   H11   S    
C43   H8    S    
O6    S2    S    
