data_mof_unit_3451.cif
_audit_creation_date              2012-12-11T14:51:44-0500
_audit_creation_method            fapswitch 2.2
_symmetry_space_group_name_H-M    P1
_symmetry_Int_Tables_number       1
_space_group_crystal_system       triclinic
_cell_length_a                    6.933642
_cell_length_b                    16.718005
_cell_length_c                    16.924242
_cell_angle_alpha                 101.542873
_cell_angle_beta                  88.855563
_cell_angle_gamma                 91.61065
_cell_volume                      1921.15905613

loop_
_atom_site_label
_atom_site_type_symbol
_atom_type_description
_atom_site_fract_x
_atom_site_fract_y
_atom_site_fract_z
_atom_type_partial_charge
O1    O     O_R   0.506340 0.439070 0.579550 -0.538120
O2    O     O_R   0.170010 0.404890 0.412100 -0.541643
O3    O     O_R   0.005010 0.560930 0.420450 -0.536566
C1    C     C_R   0.339456 0.381436 0.383226 0.672552
O4    O     O_R   0.176280 0.429360 0.578400 -0.544302
O5    O     O_R   0.011320 0.585570 0.587940 -0.537096
C2    C     C_R   0.341533 0.412924 0.604915 0.696094
O6    O     O_R   0.500030 0.414430 0.412060 -0.539116
O7    O     O_3   0.340950 0.551220 0.502940 -0.365542
V1    V     V_3+5 0.064020 0.490500 0.499460 1.406700
O8    O     O_R   0.681910 0.595110 0.587900 -0.539190
C3    C     C_R   0.851374 0.618418 0.616649 0.691810
O9    O     O_R   0.675640 0.570640 0.421600 -0.549693
C4    C     C_R   0.847869 0.587414 0.395776 0.703162
V2    V     V_3+5 0.564670 0.509500 0.500540 1.412539
O10   O     O_3   0.837610 0.448780 0.497060 -0.369659
C5    C     C_R   0.888862 0.864978 0.168820 -0.067352
C6    C     C_R   0.873808 0.641707 0.335872 -0.133745
C7    C     C_R   0.089893 0.686953 0.236628 -0.194813
C8    C     C_R   0.043005 0.633303 0.287651 -0.172133
C9    C     C_R   0.747654 0.706074 0.331141 -0.078014
C10   C     C_R   0.795002 0.760413 0.278130 0.129457
C11   C     C_R   0.968124 0.750642 0.231180 0.147090
C12   C     C_R   0.015197 0.803455 0.177753 -0.235347
C13   C     C_R   0.718826 0.874848 0.216118 -0.178520
C14   C     C_R   0.672146 0.823597 0.269460 -0.161298
H1    H     H_    0.145516 0.794521 0.140898 0.119740
H2    H     H_    0.618169 0.921850 0.210787 0.129394
H3    H     H_    0.222268 0.678382 0.201125 0.112870
H4    H     H_    0.536443 0.833155 0.302144 0.160089
H5    H     H_    0.142395 0.585013 0.290062 0.122350
C15   C     C_3   0.813709 0.817809 0.731062 -0.128964
C16   C     C_3   0.983101 0.768104 0.686833 -0.125306
H6    H     H_    0.065154 0.782581 0.634254 0.124662
H7    H     H_    0.756862 0.874254 0.715971 0.112234
C17   C     C_3   0.865450 0.688727 0.687391 -0.011244
C18   C     C_3   0.695927 0.737603 0.730793 -0.109482
C19   C     C_3   0.783006 0.731949 0.813058 -0.144601
C20   C     C_3   0.952403 0.682253 0.768837 -0.146654
C21   C     C_3   0.070185 0.762455 0.769101 -0.120452
C22   C     C_3   0.900662 0.811328 0.812515 -0.015122
H8    H     H_    0.541795 0.726984 0.714440 0.111186
H9    H     H_    0.700929 0.717458 0.865623 0.103263
H10   H     H_    0.009246 0.625802 0.783916 0.100405
H11   H     H_    0.224329 0.773072 0.785434 0.108596
C23   C     C_3   0.475061 0.234647 0.314009 -0.130914
C24   C     C_3   0.311668 0.180566 0.268203 -0.136611
H12   H     H_    0.253594 0.122682 0.283009 0.105099
H13   H     H_    0.550152 0.222089 0.367397 0.105680
C25   C     C_3   0.409490 0.189118 0.187563 -0.011176
C26   C     C_3   0.572764 0.242414 0.232588 -0.118776
C27   C     C_3   0.454463 0.319549 0.231695 -0.140977
C28   C     C_3   0.291069 0.265466 0.185888 -0.134974
C29   C     C_3   0.193367 0.257699 0.267310 -0.118757
C30   C     C_3   0.356640 0.310996 0.312335 -0.009886
H14   H     H_    0.728591 0.235757 0.217461 0.103499
H15   H     H_    0.512540 0.377433 0.216892 0.096386
H16   H     H_    0.215977 0.278023 0.132499 0.101005
H17   H     H_    0.037540 0.264356 0.282439 0.103984
C31   C     C_R   0.432142 0.141443 0.834553 -0.069996
C32   C     C_R   0.334403 0.358649 0.665420 -0.069832
C33   C     C_R   0.143402 0.297099 0.762239 -0.203260
C34   C     C_R   0.162044 0.351799 0.709671 -0.167825
C35   C     C_R   0.489717 0.309514 0.676069 -0.240053
C36   C     C_R   0.470718 0.253315 0.728353 0.159434
C37   C     C_R   0.295863 0.246784 0.771626 0.161209
C38   C     C_R   0.276845 0.190582 0.823900 -0.240625
C39   C     C_R   0.604524 0.148299 0.790319 -0.163125
C40   C     C_R   0.623181 0.203001 0.737749 -0.198486
H18   H     H_    0.143599 0.186726 0.857696 0.121722
H19   H     H_    0.726907 0.111307 0.796619 0.128318
H20   H     H_    0.008823 0.293852 0.795229 0.120272
H21   H     H_    0.757766 0.206248 0.704763 0.124142
H22   H     H_    0.039651 0.388789 0.703380 0.125837
H23   H     H_    0.622947 0.313367 0.642262 0.122742
O11   O     O_R   0.266070 0.085680 0.087850 -0.537727
O12   O     O_R   0.590090 0.070660 0.921580 -0.544228
O13   O     O_R   0.754780 0.914400 0.912080 -0.537013
C41   C     C_R   0.424895 0.087143 0.895035 0.699299
O14   O     O_R   0.596110 0.095130 0.087880 -0.541403
O15   O     O_R   0.760850 0.939050 0.079570 -0.540889
C42   C     C_R   0.426659 0.118654 0.116694 0.677266
O16   O     O_R   0.260010 0.061030 0.920360 -0.536764
O17   O     O_3   0.425070 0.948840 0.997010 -0.366768
V3    V     V_3+5 0.702100 0.009490 0.000550 1.399536
O18   O     O_R   0.090200 0.929250 0.078500 -0.540756
C43   C     C_R   0.917708 0.914575 0.105728 0.701904
O19   O     O_R   0.084180 0.904770 0.912200 -0.542199
C44   C     C_R   0.914737 0.881576 0.883337 0.682512
V4    V     V_3+5 0.201420 0.990350 0.999580 1.402865
O20   O     O_3   0.928580 0.051150 0.002990 -0.368657
C45   C     C_2   0.571680 0.717993 0.383014 0.345203
H24   H     H_    0.462652 0.669591 0.378887 0.071556
O21   O     O_2   0.548972 0.781797 0.431525 -0.528006

loop_
_geom_bond_atom_site_label_1
_geom_bond_atom_site_label_2
_ccdc_geom_bond_type
C22   C44   S    
C31   C41   S    
C28   H16   S    
C6    C9    A    
C4    C6    S    
O2    C1    A    
C7    C8    A    
C12   H1    S    
C1    O6    A    
V3    O20   S    
C28   C29   S    
C13   H2    S    
C23   H13   S    
O14   V3    S    
C17   C18   S    
O5    C3    A    
C19   C20   S    
V2    O10   S    
C16   C17   S    
C26   H14   S    
C18   H8    S    
C32   C34   A    
C2    C32   S    
C29   C30   S    
O8    V2    S    
C31   C38   A    
C39   C40   A    
C23   C30   S    
C11   C12   A    
C40   H21   S    
O1    V2    S    
C3    C17   S    
O7    V1    S    
C27   C30   S    
C37   C38   A    
O12   V3    S    
C5    C43   S    
O9    C4    A    
O17   V4    S    
C25   C26   S    
C24   C25   S    
C29   H17   S    
O12   C41   A    
O13   C44   A    
C21   H11   S    
C5    C12   A    
C33   C37   A    
C26   C27   S    
C25   C28   S    
C15   H7    S    
O17   V3    S    
C19   C22   S    
O14   C42   A    
O18   V4    S    
O11   C42   A    
C20   C21   S    
O4    C2    A    
O18   C43   A    
C13   C14   A    
C23   C26   S    
C16   C21   S    
C32   C35   A    
C7    C11   A    
C18   C19   S    
C24   H12   S    
C15   C22   S    
C33   C34   A    
C45   O21   D    
C16   H6    S    
C33   H20   S    
C15   C18   S    
O15   C43   A    
O3    C4    A    
C24   C29   S    
O13   V3    S    
C21   C22   S    
O19   V4    S    
C14   H4    S    
O6    V2    S    
O9    V2    S    
C1    C30   S    
O2    V1    S    
C27   C28   S    
C25   C42   S    
O16   V4    S    
C23   C24   S    
O1    C2    A    
C17   C20   S    
O5    V1    S    
O8    C3    A    
C20   H10   S    
C34   H22   S    
C38   H18   S    
C5    C13   A    
C15   C16   S    
O7    V2    S    
C19   H9    S    
O3    V1    S    
V1    O10   S    
C35   C36   A    
C41   O16   A    
V4    O20   S    
C39   H19   S    
C36   C40   A    
C45   H24   S    
C35   H23   S    
C6    C8    A    
C27   H15   S    
O4    V1    S    
O19   C44   A    
C31   C39   A    
C36   C37   A    
C10   C14   A    
C10   C11   A    
C9    C10   A    
C8    H5    S    
O15   V3    S    
O11   V4    S    
C9    C45   S    
C7    H3    S    
