data_mof_unit_4220.cif
_audit_creation_date              2012-12-11T14:44:37-0500
_audit_creation_method            fapswitch 2.2
_symmetry_space_group_name_H-M    P1
_symmetry_Int_Tables_number       1
_space_group_crystal_system       triclinic
_cell_length_a                    20.668221
_cell_length_b                    7.387709
_cell_length_c                    19.059665
_cell_angle_alpha                 89.999941
_cell_angle_beta                  98.98958
_cell_angle_gamma                 90.000101
_cell_volume                      2874.48845933

loop_
_atom_site_label
_atom_site_type_symbol
_atom_type_description
_atom_site_fract_x
_atom_site_fract_y
_atom_site_fract_z
_atom_type_partial_charge
O1    O     O_R   0.673210 0.377390 0.686390 -0.542554
O2    O     O_R   0.326790 0.622610 0.313610 -0.536612
O3    O     O_R   0.826790 0.877390 0.813610 -0.542553
O4    O     O_R   0.173210 0.122610 0.186390 -0.536612
O5    O     O_R   0.810750 0.706450 0.681250 -0.540466
O6    O     O_R   0.189250 0.293550 0.318750 -0.540194
O7    O     O_R   0.689250 0.206450 0.818750 -0.540465
O8    O     O_R   0.310750 0.793550 0.181250 -0.540193
C1    C     C_R   0.832783 0.540207 0.668698 0.696899
C2    C     C_R   0.167679 0.459425 0.332675 0.696258
C3    C     C_R   0.667217 0.040207 0.831302 0.696897
C4    C     C_R   0.332321 0.959425 0.167325 0.696258
O9    O     O_R   0.672750 0.707060 0.678240 -0.543387
O10   O     O_R   0.327250 0.292940 0.321760 -0.546894
O11   O     O_R   0.827250 0.207060 0.821760 -0.543386
O12   O     O_R   0.172750 0.792940 0.178240 -0.546894
O13   O     O_R   0.687800 0.877990 0.810580 -0.537735
O14   O     O_R   0.312200 0.122010 0.189420 -0.539821
O15   O     O_R   0.812200 0.377990 0.689420 -0.537734
O16   O     O_R   0.187800 0.622010 0.310580 -0.539821
C5    C     C_R   0.649415 0.538415 0.661200 0.685656
C6    C     C_R   0.352105 0.461292 0.337005 0.697122
C7    C     C_R   0.850585 0.038415 0.838800 0.685654
C8    C     C_R   0.147895 0.961292 0.162995 0.697122
O17   O     O_3   0.755100 0.544060 0.793420 -0.376952
O18   O     O_3   0.244900 0.455940 0.206580 -0.377637
O19   O     O_3   0.744900 0.044060 0.706580 -0.376952
O20   O     O_3   0.255100 0.955940 0.293420 -0.377637
V1    V     V_3+5 0.749050 0.818670 0.741950 1.367329
V2    V     V_3+5 0.250950 0.181330 0.258050 1.361335
V3    V     V_3+5 0.750950 0.318670 0.758050 1.367328
V4    V     V_3+5 0.249050 0.681330 0.241950 1.361335
C9    C     C_R   0.084111 0.974267 0.112560 -0.115776
C10   C     C_R   0.913075 0.029246 0.890196 -0.106142
C11   C     C_R   0.415888 0.474268 0.387440 -0.115776
C12   C     C_R   0.586925 0.529245 0.609804 -0.106142
C13   C     C_R   0.031622 0.083373 0.918912 0.076154
C14   C     C_R   0.966347 0.048509 0.087054 0.084854
C15   C     C_R   0.468378 0.583373 0.581088 0.076153
C16   C     C_R   0.533652 0.548512 0.412946 0.084854
C17   C     C_R   0.973840 0.066957 0.866888 -0.007351
C18   C     C_R   0.024039 0.011727 0.137878 -0.007148
C19   C     C_R   0.526159 0.566956 0.633112 -0.007351
C20   C     C_R   0.475960 0.511730 0.362122 -0.007148
C21   C     C_R   0.911987 0.988562 0.962643 0.083565
C22   C     C_R   0.085305 0.973888 0.038584 0.085478
C23   C     C_R   0.588012 0.488563 0.537357 0.083568
C24   C     C_R   0.414695 0.473889 0.461416 0.085477
C25   C     C_R   0.968506 0.019350 0.013504 0.038237
C26   C     C_R   0.029290 0.024849 0.989913 0.040122
C27   C     C_R   0.531494 0.519353 0.486496 0.038237
C28   C     C_R   0.470709 0.524850 0.510088 0.040122
C29   C     C_R   0.546679 0.033703 0.849343 -0.016597
C30   C     C_R   0.454331 0.980082 0.150618 -0.008305
C31   C     C_R   0.953321 0.533704 0.650657 -0.016598
C32   C     C_R   0.045669 0.480081 0.349382 -0.008306
C33   C     C_R   0.615378 0.039010 0.877384 -0.055049
C34   C     C_R   0.385990 0.958192 0.122199 -0.062400
C35   C     C_R   0.884622 0.539010 0.622616 -0.055048
C36   C     C_R   0.114010 0.458191 0.377801 -0.062399
C37   C     C_R   0.636189 0.054701 0.951223 0.102574
C38   C     C_R   0.368389 0.920799 0.048937 0.101336
C39   C     C_R   0.863811 0.554698 0.548777 0.102574
C40   C     C_R   0.131611 0.420799 0.451063 0.101335
C41   C     C_R   0.590366 0.039381 0.998989 0.058330
C42   C     C_R   0.412928 0.955594 0.001268 0.058416
C43   C     C_R   0.909633 0.539377 0.501011 0.058329
C44   C     C_R   0.087072 0.455594 0.498732 0.058416
C45   C     C_R   0.523149 0.014942 0.974347 -0.027201
C46   C     C_R   0.479341 0.989930 0.025972 -0.026721
C47   C     C_R   0.976851 0.514941 0.525652 -0.027200
C48   C     C_R   0.020659 0.489930 0.474028 -0.026721
C49   C     C_R   0.499542 0.020116 0.898867 0.037933
C50   C     C_R   0.502252 0.989604 0.101482 0.040167
C51   C     C_R   0.000458 0.520117 0.601133 0.037933
C52   C     C_R   0.997748 0.489602 0.398518 0.040165
C53   C     C_R   0.612314 0.040963 0.072178 -0.177126
C54   C     C_R   0.390297 0.961181 0.928231 -0.174067
C55   C     C_R   0.887686 0.540956 0.427821 -0.177126
C56   C     C_R   0.109703 0.461183 0.571769 -0.174066
C57   C     C_R   0.572265 0.004660 0.122862 0.177233
C58   C     C_R   0.429436 0.007620 0.877871 0.182917
C59   C     C_R   0.927735 0.504656 0.377138 0.177235
C60   C     C_R   0.070564 0.507623 0.622129 0.182917
H1    H     H_    0.663455 0.064068 0.091709 0.140210
H2    H     H_    0.339098 0.939046 0.908924 0.140500
H3    H     H_    0.836544 0.564056 0.408291 0.140210
H4    H     H_    0.160903 0.439050 0.591076 0.140499
C61   C     C_3   0.144727 0.900961 0.012479 -0.812862
H5    H     H_    0.184300 0.001517 0.024898 0.208614
H6    H     H_    0.159166 0.772277 0.040349 0.215310
H7    H     H_    0.135916 0.867578 0.955134 0.216305
C62   C     C_3   0.858040 0.872247 0.984130 -0.822378
H8    H     H_    0.835622 0.933835 0.026901 0.212813
H9    H     H_    0.818217 0.841263 0.939992 0.223113
H10   H     H_    0.879753 0.741170 0.004061 0.218095
C63   C     C_3   0.355272 0.400962 0.487521 -0.812863
H11   H     H_    0.315699 0.501518 0.475101 0.208613
H12   H     H_    0.340833 0.272278 0.459651 0.215310
H13   H     H_    0.364083 0.367580 0.544866 0.216306
C64   C     C_3   0.641959 0.372250 0.515869 -0.822393
H14   H     H_    0.664381 0.433849 0.473104 0.212815
H15   H     H_    0.681779 0.341248 0.560008 0.223118
H16   H     H_    0.620245 0.241181 0.495930 0.218097
C65   C     C_3   0.025625 0.012370 0.218940 -0.331976
C66   C     C_3   0.962075 0.970728 0.248984 -0.347576
C67   C     C_3   0.975853 0.948544 0.329789 -0.747959
H17   H     H_    0.015561 0.849517 0.346179 0.235401
H18   H     H_    0.991023 0.080423 0.355196 0.236448
H19   H     H_    0.930779 0.902387 0.349392 0.227601
H20   H     H_    0.926249 0.080210 0.240308 0.184661
H21   H     H_    0.937493 0.850111 0.222684 0.186829
H22   H     H_    0.060666 0.907489 0.241975 0.168750
H23   H     H_    0.047914 0.138719 0.241415 0.178752
C68   C     C_3   0.973361 0.071955 0.785932 -0.332640
C69   C     C_3   0.037335 0.038808 0.755450 -0.353763
C70   C     C_3   0.023083 0.015460 0.674652 -0.755277
H24   H     H_    0.988471 0.902692 0.659244 0.236343
H25   H     H_    0.001193 0.141300 0.649426 0.239734
H26   H     H_    0.069327 0.987848 0.653756 0.223426
H27   H     H_    0.071504 0.153648 0.763582 0.189928
H28   H     H_    0.062918 0.918304 0.780954 0.189605
H29   H     H_    0.940307 0.962895 0.762630 0.177691
H30   H     H_    0.948590 0.194970 0.763542 0.175472
C71   C     C_3   0.474375 0.512373 0.281060 -0.331974
C72   C     C_3   0.537924 0.470731 0.251016 -0.347577
C73   C     C_3   0.524147 0.448547 0.170212 -0.747961
H31   H     H_    0.484438 0.349522 0.153821 0.235401
H32   H     H_    0.508979 0.580426 0.144805 0.236448
H33   H     H_    0.569221 0.402385 0.150609 0.227601
H34   H     H_    0.573752 0.580212 0.259692 0.184661
H35   H     H_    0.562506 0.350114 0.277317 0.186830
H36   H     H_    0.439333 0.407494 0.258025 0.168750
H37   H     H_    0.452087 0.638723 0.258585 0.178752
C74   C     C_3   0.526639 0.571954 0.714068 -0.332639
C75   C     C_3   0.462665 0.538806 0.744551 -0.353763
C76   C     C_3   0.476917 0.515457 0.825348 -0.755276
H38   H     H_    0.511529 0.402689 0.840756 0.236343
H39   H     H_    0.498806 0.641297 0.850575 0.239734
H40   H     H_    0.430673 0.487843 0.846245 0.223427
H41   H     H_    0.428496 0.653645 0.736419 0.189928
H42   H     H_    0.437082 0.418302 0.719047 0.189606
H43   H     H_    0.559693 0.462893 0.737370 0.177691
H44   H     H_    0.551410 0.694968 0.736459 0.175471
C77   C     C_3   0.088769 0.200864 0.903109 -0.354841
C78   C     C_3   0.116005 0.338832 0.961203 -0.303577
C79   C     C_3   0.171139 0.449607 0.937398 -0.789189
H45   H     H_    0.208647 0.358869 0.920359 0.231776
H46   H     H_    0.151279 0.540284 0.892668 0.228605
H47   H     H_    0.195674 0.532481 0.982197 0.224847
H48   H     H_    0.076584 0.431711 0.972298 0.193866
H49   H     H_    0.136217 0.273788 0.011956 0.215361
H50   H     H_    0.128666 0.115179 0.888531 0.171273
H51   H     H_    0.071005 0.289017 0.857501 0.184226
C80   C     C_3   0.910955 0.163926 0.108818 -0.364849
C81   C     C_3   0.878877 0.305084 0.054259 -0.307081
C82   C     C_3   0.836700 0.437989 0.088833 -0.806156
H52   H     H_    0.801241 0.363592 0.116350 0.234496
H53   H     H_    0.868000 0.525100 0.127776 0.230324
H54   H     H_    0.808597 0.525458 0.047536 0.227439
H55   H     H_    0.916997 0.381836 0.031606 0.195929
H56   H     H_    0.846197 0.240016 0.009994 0.216890
H57   H     H_    0.872864 0.076158 0.126129 0.164066
H58   H     H_    0.932523 0.248178 0.154227 0.195232
C83   C     C_3   0.411230 0.700863 0.596892 -0.354842
C84   C     C_3   0.383995 0.838832 0.538798 -0.303575
C85   C     C_3   0.328860 0.949607 0.562603 -0.789186
H59   H     H_    0.291353 0.858868 0.579641 0.231776
H60   H     H_    0.348721 0.040282 0.607334 0.228604
H61   H     H_    0.304326 0.032482 0.517804 0.224846
H62   H     H_    0.423416 0.931711 0.527703 0.193866
H63   H     H_    0.363783 0.773788 0.488045 0.215361
H64   H     H_    0.371334 0.615179 0.611470 0.171273
H65   H     H_    0.428995 0.789017 0.642500 0.184226
C86   C     C_3   0.589045 0.663930 0.391183 -0.364848
C87   C     C_3   0.621122 0.805089 0.445741 -0.307083
C88   C     C_3   0.663299 0.937993 0.411168 -0.806157
H66   H     H_    0.698760 0.863595 0.383651 0.234497
H67   H     H_    0.632001 0.025103 0.372224 0.230323
H68   H     H_    0.691402 0.025462 0.452465 0.227439
H69   H     H_    0.583002 0.881842 0.468393 0.195929
H70   H     H_    0.653802 0.740023 0.490008 0.216889
H71   H     H_    0.627136 0.576160 0.373873 0.164068
H72   H     H_    0.567477 0.748180 0.345773 0.195232
C89   C     C_3   0.521646 0.043678 0.768560 -0.434333
C90   C     C_3   0.567448 0.066223 0.713010 -0.323028
C91   C     C_3   0.530672 0.084837 0.637436 -0.782701
H73   H     H_    0.514777 0.950264 0.616559 0.230729
H74   H     H_    0.487821 0.176610 0.634971 0.238249
H75   H     H_    0.564209 0.139151 0.602506 0.238567
H76   H     H_    0.595490 0.190380 0.725081 0.228107
H77   H     H_    0.600781 0.950278 0.712852 0.223649
H78   H     H_    0.492415 0.922408 0.753227 0.205853
H79   H     H_    0.490955 0.164398 0.759993 0.218290
C92   C     C_3   0.478567 0.993358 0.231241 -0.443174
C93   C     C_3   0.432276 0.010149 0.286329 -0.311772
C94   C     C_3   0.468034 0.030742 0.362370 -0.790302
H80   H     H_    0.483404 0.896996 0.384565 0.233781
H81   H     H_    0.511061 0.121882 0.365065 0.238480
H82   H     H_    0.434048 0.087452 0.396394 0.231920
H83   H     H_    0.404763 0.134322 0.274004 0.235982
H84   H     H_    0.399336 0.892299 0.285688 0.215357
H85   H     H_    0.509542 0.876314 0.247644 0.206565
H86   H     H_    0.507251 0.117168 0.238522 0.218009
C95   C     C_3   0.978354 0.543679 0.731439 -0.434332
C96   C     C_3   0.932552 0.566225 0.786990 -0.323027
C97   C     C_3   0.969328 0.584838 0.862564 -0.782700
H87   H     H_    0.985224 0.450266 0.883441 0.230729
H88   H     H_    0.012179 0.676611 0.865028 0.238248
H89   H     H_    0.935791 0.639152 0.897494 0.238566
H90   H     H_    0.904511 0.690382 0.774919 0.228106
H91   H     H_    0.899219 0.450280 0.787148 0.223648
H92   H     H_    0.007585 0.422410 0.746773 0.205853
H93   H     H_    0.009045 0.664400 0.740007 0.218290
C98   C     C_3   0.021434 0.493356 0.268759 -0.443173
C99   C     C_3   0.067724 0.510145 0.213670 -0.311774
C100  C     C_3   0.031967 0.530739 0.137629 -0.790301
H94   H     H_    0.016596 0.396993 0.115435 0.233781
H95   H     H_    0.988940 0.621881 0.134934 0.238480
H96   H     H_    0.065952 0.587447 0.103605 0.231920
H97   H     H_    0.095238 0.634318 0.225995 0.235983
H98   H     H_    0.100664 0.392295 0.214312 0.215357
H99   H     H_    0.990458 0.376310 0.252356 0.206565
H100  H     H_    0.992749 0.617165 0.261477 0.218008
C101  C     C_3   0.708472 0.083843 0.980484 -0.810429
H101  H     H_    0.714485 0.210878 0.011972 0.214002
H102  H     H_    0.726295 0.966723 0.014432 0.202444
H103  H     H_    0.741587 0.097177 0.940603 0.207209
C102  C     C_3   0.302351 0.838689 0.019774 -0.826798
H104  H     H_    0.309698 0.716156 0.988147 0.216140
H105  H     H_    0.273352 0.792940 0.060017 0.226790
H106  H     H_    0.273084 0.938595 0.985116 0.202193
C103  C     C_3   0.791527 0.583838 0.519516 -0.810433
H107  H     H_    0.785515 0.710870 0.488027 0.214001
H108  H     H_    0.773705 0.466715 0.485570 0.202445
H109  H     H_    0.758413 0.597176 0.559397 0.207212
C104  C     C_3   0.197649 0.338688 0.480226 -0.826800
H110  H     H_    0.190301 0.216155 0.511853 0.216140
H111  H     H_    0.226647 0.292938 0.439983 0.226790
H112  H     H_    0.226916 0.438593 0.514884 0.202194
C105  C     C_3   0.611126 0.968004 0.196135 -0.819527
H113  H     H_    0.664847 0.961162 0.196269 0.198424
H114  H     H_    0.606128 0.076273 0.234734 0.203023
H115  H     H_    0.600071 0.832146 0.214250 0.207432
C106  C     C_3   0.389623 0.053497 0.805743 -0.825040
H116  H     H_    0.335964 0.054870 0.806356 0.196659
H117  H     H_    0.398949 0.193781 0.790374 0.211524
H118  H     H_    0.394916 0.952318 0.764525 0.202140
C107  C     C_3   0.888874 0.468001 0.303864 -0.819526
H119  H     H_    0.835153 0.461159 0.303730 0.198423
H120  H     H_    0.893873 0.576271 0.265266 0.203023
H121  H     H_    0.899929 0.332144 0.285749 0.207432
C108  C     C_3   0.110377 0.553501 0.694256 -0.825039
H122  H     H_    0.164036 0.554874 0.693643 0.196659
H123  H     H_    0.101051 0.693785 0.709625 0.211524
H124  H     H_    0.105085 0.452322 0.735475 0.202140

loop_
_geom_bond_atom_site_label_1
_geom_bond_atom_site_label_2
_ccdc_geom_bond_type
C71   H37   S    
C34   C38   A    
C55   C59   A    
C31   C51   A    
C106  H117  S    
O1    C5    A    
C62   H8    S    
C23   C64   S    
C38   C102  S    
C31   C35   A    
O19   V1    S    
C70   H24   S    
O13   V1    S    
C65   C66   S    
O3    C7    A    
C79   H45   S    
C89   H79   S    
C56   C60   A    
C21   C62   S    
C98   H100  S    
C55   H3    S    
C77   C78   S    
C74   C75   S    
C85   H60   S    
C5    C12   S    
C66   H21   S    
C95   C96   S    
C100  H96   S    
C87   H70   S    
C6    C11   S    
C76   H39   S    
C107  H119  S    
C72   C73   S    
C69   H28   S    
C32   C52   A    
C9    C18   A    
C40   C44   A    
C65   H22   S    
C81   C82   S    
C79   H46   S    
O10   V2    S    
C14   C18   A    
C102  H106  S    
C70   H25   S    
C30   C34   A    
C108  H122  S    
O4    C8    A    
C51   C60   A    
C92   H85   S    
C66   C67   S    
C83   H64   S    
C68   C69   S    
O1    V3    S    
C101  H103  S    
C82   H54   S    
C69   C70   S    
C12   C23   A    
O2    V4    S    
C105  H113  S    
C57   C105  S    
C90   H76   S    
O3    V1    S    
C29   C89   S    
C99   H97   S    
C91   H75   S    
C75   H42   S    
C30   C50   A    
C96   H90   S    
C1    O15   A    
C82   H52   S    
C33   C37   A    
C2    O16   A    
C88   H67   S    
C46   C50   A    
C97   H89   S    
C67   H17   S    
C93   H83   S    
C45   C49   A    
C68   H30   S    
C72   H35   S    
C61   H6    S    
C103  H107  S    
C81   H56   S    
C44   C48   A    
C4    C34   S    
C54   H2    S    
C74   H43   S    
C15   C28   A    
O15   V3    S    
C84   H62   S    
C62   H9    S    
C106  H116  S    
C59   C107  S    
C13   C17   A    
C9    C22   A    
C67   H18   S    
C45   C46   A    
C10   C17   A    
C14   C80   S    
C17   C68   S    
C42   C54   A    
C11   C24   A    
C52   C59   A    
C63   H12   S    
C63   H11   S    
C85   H61   S    
O5    V1    S    
C66   H20   S    
C87   H69   S    
C31   C95   S    
C76   H40   S    
C39   C43   A    
C20   C71   S    
C107  H120  S    
O7    V3    S    
C69   H27   S    
C38   C42   A    
C27   C28   A    
O8    V4    S    
C64   H14   S    
C65   H23   S    
C79   H47   S    
C68   H29   S    
C99   C100  S    
C70   H26   S    
C85   H59   S    
C14   C25   A    
C29   C33   A    
C96   C97   S    
C93   C94   S    
C23   C27   A    
C92   H86   S    
C80   H57   S    
C83   H65   S    
C94   H81   S    
C84   H63   S    
C97   H87   S    
C78   H48   S    
C105  H114  S    
C15   C83   S    
C94   H82   S    
O7    C3    A    
C98   C99   S    
C73   H32   S    
O5    C1    A    
C102  H104  S    
C24   C63   S    
C22   C61   S    
C39   C103  S    
C41   C53   A    
C103  H109  S    
C54   C58   A    
C86   C87   S    
C37   C41   A    
C21   C25   A    
O8    C4    A    
C88   H68   S    
C71   H36   S    
C101  H101  S    
O9    C5    A    
C48   C52   A    
C10   C21   A    
C61   H7    S    
C19   C74   S    
C11   C20   A    
C103  H108  S    
C40   C104  S    
C32   C98   S    
C78   H49   S    
C77   H51   S    
C74   H44   S    
O6    V2    S    
C81   H55   S    
C88   H66   S    
C62   H10   S    
C104  H111  S    
C71   C72   S    
C102  H105  S    
C67   H19   S    
C106  H118  S    
C82   H53   S    
C100  H95   S    
C50   C57   A    
C93   H84   S    
C44   C56   A    
C61   H5    S    
C49   C58   A    
C80   C81   S    
C63   H13   S    
C108  H123  S    
C78   C79   S    
O16   V4    S    
O9    V1    S    
C2    C36   S    
C3    O13   A    
C107  H121  S    
C30   C92   S    
C58   C106  S    
C86   H71   S    
O17   V3    S    
C29   C49   A    
C89   H78   S    
C75   C76   S    
C87   C88   S    
C98   H99   S    
C95   H93   S    
C16   C86   S    
C15   C19   A    
O11   V3    S    
O18   V4    S    
C80   H58   S    
O12   V4    S    
C16   C27   A    
C76   H38   S    
C22   C26   A    
C35   C39   A    
C8    C9    S    
C64   H15   S    
C36   C40   A    
C105  H115  S    
O10   C6    A    
C108  H124  S    
O20   V2    S    
C100  H94   S    
C73   H33   S    
C77   H50   S    
C47   C48   A    
C56   H4    S    
C3    C33   S    
O2    C6    A    
C47   C51   A    
C13   C26   A    
C89   C90   S    
C84   C85   S    
C72   H34   S    
C53   H1    S    
C41   C45   A    
C104  H110  S    
O11   C7    A    
C101  H102  S    
C75   H41   S    
C43   C47   A    
C96   H91   S    
C90   H77   S    
C94   H80   S    
C18   C65   S    
C37   C101  S    
C91   H74   S    
C99   H98   S    
O6    C2    A    
O14   V2    S    
C95   H92   S    
C92   C93   S    
C32   C36   A    
C83   C84   S    
C16   C20   A    
C7    C10   S    
C42   C46   A    
O12   C8    A    
C25   C26   A    
C104  H112  S    
C4    O14   A    
C60   C108  S    
C97   H88   S    
C12   C19   A    
C91   H73   S    
C64   H16   S    
C13   C77   S    
C90   C91   S    
C24   C28   A    
C1    C35   S    
C43   C55   A    
O4    V2    S    
C73   H31   S    
C86   H72   S    
C53   C57   A    
