data_mof_unit_1130.cif
_audit_creation_date              2012-12-10T17:38:07-0500
_audit_creation_method            fapswitch 2.2
_symmetry_space_group_name_H-M    P1
_symmetry_Int_Tables_number       1
_space_group_crystal_system       triclinic
_cell_length_a                    12.22749
_cell_length_b                    12.828774
_cell_length_c                    19.152071
_cell_angle_alpha                 94.19435
_cell_angle_beta                  86.439155
_cell_angle_gamma                 93.995979
_cell_volume                      2984.02302029

loop_
_atom_site_label
_atom_site_type_symbol
_atom_type_description
_atom_site_fract_x
_atom_site_fract_y
_atom_site_fract_z
_atom_type_partial_charge
C1    C     C_R   0.522104 0.699926 0.499467 0.866098
C2    C     C_R   0.547990 0.129268 0.472510 -0.283172
C3    C     C_R   0.455692 0.976452 0.520617 0.190514
C4    C     C_R   0.545005 0.023589 0.481300 0.190747
C5    C     C_R   0.952727 0.418160 0.421758 0.023220
C6    C     C_R   0.046452 0.575173 0.580450 0.014881
C7    C     C_R   0.838475 0.420476 0.432689 0.171729
C8    C     C_R   0.160786 0.580381 0.566864 0.185664
C9    C     C_R   0.859098 0.539766 0.532807 0.170023
C10   C     C_R   0.140962 0.456638 0.468792 0.166405
C11   C     C_R   0.975714 0.527345 0.529582 -0.033453
C12   C     C_R   0.477934 0.300062 0.500904 0.875017
C13   C     C_R   0.023828 0.466884 0.472395 -0.038267
C14   C     C_R   0.500358 0.502040 0.634435 0.874470
C15   C     C_R   0.500136 0.503002 0.365632 0.871818
C16   C     C_R   0.409569 0.558080 0.747952 -0.278345
C17   C     C_R   0.603721 0.531383 0.252580 -0.279444
C18   C     C_R   0.407706 0.579908 0.820289 0.120471
C19   C     C_R   0.610865 0.547585 0.180992 0.124453
C20   C     C_R   0.500734 0.560290 0.855948 0.047195
C21   C     C_R   0.512224 0.554397 0.146956 0.044425
C22   C     C_R   0.592802 0.519949 0.819480 -0.248350
C23   C     C_R   0.464711 0.188651 0.503849 -0.048013
C24   C     C_R   0.411034 0.545894 0.185120 -0.250118
C25   C     C_R   0.593683 0.496814 0.747287 0.097766
C26   C     C_R   0.404542 0.527467 0.255803 0.107774
C27   C     C_R   0.501420 0.516804 0.710928 -0.065681
C28   C     C_R   0.501874 0.518628 0.290188 -0.062607
C29   C     C_R   0.508252 0.562281 0.071447 0.279066
C30   C     C_R   0.499581 0.568033 0.931697 0.274975
C31   C     C_3   0.307061 0.626814 0.856728 -0.424598
C32   C     C_3   0.210263 0.544339 0.861435 -0.319194
C33   C     C_3   0.109645 0.590235 0.899936 -0.885806
C34   C     C_R   0.535637 0.811353 0.497419 -0.041844
C35   C     C_3   0.724129 0.553654 0.143618 -0.420833
C36   C     C_3   0.744568 0.453668 0.096902 -0.321298
C37   C     C_3   0.856923 0.462288 0.057560 -0.882145
C38   C     C_3   0.190844 0.368996 0.422403 -0.323540
C39   C     C_3   0.152932 0.260662 0.447779 -0.370694
C40   C     C_3   0.202686 0.173176 0.400438 -0.875729
C41   C     C_3   0.810232 0.627595 0.579655 -0.331325
C42   C     C_3   0.851486 0.736073 0.555901 -0.379199
C43   C     C_3   0.801583 0.823489 0.603236 -0.874089
C44   C     C_R   0.630228 0.964529 0.451739 -0.222633
C45   C     C_R   0.370789 0.035704 0.550448 -0.224303
C46   C     C_R   0.625372 0.857912 0.459683 -0.199013
C47   C     C_R   0.375664 0.142345 0.542368 -0.196344
C48   C     C_R   0.452374 0.870584 0.528975 -0.286053
H1    H     H_    0.338822 0.575204 0.720540 0.180540
H2    H     H_    0.302162 0.000037 0.580742 0.135953
H3    H     H_    0.963761 0.294081 0.349691 0.204239
H4    H     H_    0.967417 0.412912 0.315366 0.186530
H5    H     H_    0.039974 0.572011 0.686447 0.199042
H6    H     H_    0.026174 0.692019 0.657352 0.191785
H7    H     H_    0.128427 0.618728 0.954336 0.267175
H8    H     H_    0.083264 0.656152 0.871871 0.259655
H9    H     H_    0.041044 0.528904 0.902342 0.248906
H10   H     H_    0.188245 0.514193 0.807875 0.216187
H11   H     H_    0.233728 0.477477 0.889813 0.239114
H12   H     H_    0.678871 0.528718 0.278994 0.152963
H13   H     H_    0.324220 0.661436 0.910080 0.210594
H14   H     H_    0.284187 0.692375 0.826799 0.195822
H15   H     H_    0.861886 0.528449 0.022919 0.268396
H16   H     H_    0.923014 0.474807 0.095138 0.258150
H17   H     H_    0.869805 0.388783 0.024640 0.248506
H18   H     H_    0.740785 0.385723 0.130039 0.217589
H19   H     H_    0.680838 0.438372 0.057971 0.233150
H20   H     H_    0.735890 0.624403 0.113374 0.219357
H21   H     H_    0.788658 0.563728 0.182484 0.187176
H22   H     H_    0.695559 0.378824 0.733579 0.183263
H23   H     H_    0.662853 0.502433 0.847625 0.148960
H24   H     H_    0.756754 0.498900 0.722376 0.177536
H25   H     H_    0.251300 0.458575 0.264941 0.169558
H26   H     H_    0.260698 0.588085 0.288928 0.187942
H27   H     H_    0.173923 0.173626 0.346584 0.259027
H28   H     H_    0.293750 0.183168 0.398211 0.266340
H29   H     H_    0.176896 0.096291 0.421437 0.254810
H30   H     H_    0.178197 0.255918 0.502057 0.226868
H31   H     H_    0.062235 0.247803 0.449151 0.229101
H32   H     H_    0.178564 0.374726 0.366429 0.202740
H33   H     H_    0.279116 0.375492 0.421547 0.259600
H34   H     H_    0.335271 0.552347 0.159612 0.152542
H35   H     H_    0.710539 0.815503 0.603418 0.267152
H36   H     H_    0.827165 0.820758 0.657683 0.258912
H37   H     H_    0.830432 0.900608 0.583663 0.254296
H38   H     H_    0.942184 0.747338 0.556162 0.225509
H39   H     H_    0.828555 0.742751 0.501267 0.226109
H40   H     H_    0.722038 0.623581 0.578621 0.258763
H41   H     H_    0.820343 0.619838 0.635794 0.199186
H42   H     H_    0.204627 0.723979 0.609797 0.142384
H43   H     H_    0.307690 0.648317 0.599615 0.249391
H44   H     H_    0.753562 0.417331 0.345051 0.195240
H45   H     H_    0.616365 0.165654 0.442351 0.143560
H46   H     H_    0.703777 0.327114 0.403113 0.230031
H47   H     H_    0.383781 0.833838 0.558833 0.141328
H48   H     H_    0.312426 0.188920 0.568076 0.154472
H49   H     H_    0.689121 0.811510 0.434381 0.154829
H50   H     H_    0.699083 0.000323 0.421715 0.139349
N1    N     N_R   0.582623 0.621200 0.965451 -0.178175
N2    N     N_3   0.298420 0.517940 0.291728 -0.444063
N3    N     N_3   0.225388 0.647138 0.614245 -0.480808
N4    N     N_3   0.773239 0.365214 0.380718 -0.485918
N5    N     N_R   0.424983 0.509960 0.037337 -0.184108
N6    N     N_R   0.586179 0.619197 0.034517 -0.183237
N7    N     N_R   0.420847 0.512510 0.968553 -0.177966
N8    N     N_R   0.207800 0.519350 0.512860 -0.143110
N9    N     N_R   0.792200 0.480650 0.487140 -0.141267
N10   N     N_3   0.994328 0.372210 0.355755 -0.479816
N11   N     N_3   0.004613 0.612040 0.648809 -0.478144
N12   N     N_3   0.686779 0.450068 0.711943 -0.432831
O1    O     O_R   0.421690 0.658830 0.503430 -0.634736
O2    O     O_R   0.578310 0.341170 0.496570 -0.623611
O3    O     O_R   0.609320 0.646410 0.495180 -0.642046
O4    O     O_R   0.390680 0.353590 0.504820 -0.639607
O5    O     O_R   0.406160 0.506220 0.605990 -0.636544
O6    O     O_R   0.593840 0.493780 0.394010 -0.642199
O7    O     O_R   0.593780 0.493810 0.597740 -0.608588
O8    O     O_R   0.406220 0.506190 0.402260 -0.607357
Zn1   Zn    Zn3+2 0.374720 0.508290 0.505510 0.918397
Zn2   Zn    Zn3+2 0.625280 0.491710 0.494490 0.915492

loop_
_geom_bond_atom_site_label_1
_geom_bond_atom_site_label_2
_ccdc_geom_bond_type
C33   H7    S    
H25   N2    S    
C41   H41   S    
C48   H47   S    
N8    Zn1   S    
C43   H35   S    
C41   C42   S    
C31   H13   S    
C35   C36   S    
C32   H10   S    
N9    Zn2   S    
C36   H19   S    
C20   C30   S    
C12   C23   S    
C35   H20   S    
C36   C37   S    
C19   C21   A    
C24   C26   A    
C38   C39   S    
C36   H18   S    
C14   O5    A    
C3    C48   A    
C29   N5    A    
O1    Zn1   S    
C24   H34   S    
O8    Zn1   S    
H22   N12   S    
C44   H50   S    
H3    N10   S    
C7    N4    S    
C37   H17   S    
C47   H48   S    
C34   C46   A    
C14   C27   S    
C8    N3    S    
C5    C13   A    
O4    Zn1   S    
H44   N4    S    
C16   C27   A    
N1    N6    A    
C29   N6    A    
C43   H36   S    
C17   C28   A    
C31   H14   S    
C1    O3    A    
H43   N3    S    
C37   H15   S    
C44   C46   A    
C1    C34   S    
C12   O4    A    
C45   C47   A    
H24   N12   S    
C23   C47   A    
C43   H37   S    
C39   H30   S    
C16   H1    S    
O7    Zn2   S    
C6    C11   A    
C5    C7    A    
H26   N2    S    
C4    C44   A    
C21   C29   S    
C30   N1    A    
C3    C45   A    
O6    Zn2   S    
H6    N11   S    
C39   H31   S    
C2    C4    A    
H42   N3    S    
O3    Zn2   S    
C31   C32   S    
C14   O7    A    
N5    N7    A    
C9    C11   A    
C35   H21   S    
C25   N12   S    
C42   H38   S    
C46   H49   S    
C20   C22   A    
O5    Zn1   S    
C38   H33   S    
C6    N11   S    
C7    N9    A    
C10   N8    A    
C34   C48   A    
C42   C43   S    
C3    C4    A    
C22   H23   S    
C12   O2    A    
C37   H16   S    
O2    Zn2   S    
H5    N11   S    
C41   H40   S    
C33   H9    S    
C40   H29   S    
C22   C25   A    
C9    C41   S    
C2    H45   S    
C10   C13   A    
C8    N8    A    
C6    C8    A    
C15   O8    A    
C42   H39   S    
C25   C27   A    
C26   C28   A    
C40   H27   S    
C10   C38   S    
C32   C33   S    
C9    N9    A    
C30   N7    A    
C19   C35   S    
C1    O1    A    
C11   C13   A    
C15   C28   S    
C38   H32   S    
C45   H2    S    
C33   H8    S    
C17   C19   A    
C18   C20   A    
C17   H12   S    
C39   C40   S    
C40   H28   S    
H46   N4    S    
C16   C18   A    
C21   C24   A    
C2    C23   A    
C15   O6    A    
H4    N10   S    
C18   C31   S    
C32   H11   S    
C26   N2    S    
C5    N10   S    
