data_mof_unit_160.cif
_audit_creation_date              2013-03-05T15:45:14-0500
_audit_creation_method            fapswitch 2.2
_symmetry_space_group_name_H-M    P1
_symmetry_Int_Tables_number       1
_space_group_crystal_system       triclinic
_cell_length_a                    8.807081
_cell_length_b                    13.008025
_cell_length_c                    19.439833
_cell_angle_alpha                 96.753913
_cell_angle_beta                  96.358389
_cell_angle_gamma                 98.321052
_cell_volume                      2169.76434672

loop_
_atom_site_label
_atom_site_type_symbol
_atom_site_description
_atom_site_fract_x
_atom_site_fract_y
_atom_site_fract_z
_atom_type_partial_charge
P1    P     P_3+3 0.986780 0.745970 0.554690 0.638867
O1    O     O_2   0.160820 0.763040 0.533820 -0.276707
O2    O     O_3   0.890970 0.628600 0.535400 -0.377185
O3    O     O_3   0.385950 0.698560 0.408070 -0.287025
O4    O     O_2   0.345664 0.878708 0.469509 -0.270262
O5    O     O_3   0.022984 0.771565 0.647076 -0.460758
O6    O     O_3   0.348147 0.874286 0.336308 -0.593961
C1    C     C_3   0.477342 0.962621 0.250399 -0.819737
H1    H     H_    0.381396 0.987475 0.218617 0.225520
H2    H     H_    0.524940 0.024350 0.294821 0.238408
P2    P     P_3+3 0.341450 0.417130 0.341310 0.592924
P3    P     P_3+3 0.919817 0.633896 0.282436 0.688409
O7    O     O_2   0.172860 0.449730 0.330520 -0.341391
O8    O     O_3   0.962080 0.644700 0.373110 -0.249247
O9    O     O_2   0.012578 0.550561 0.252781 -0.291912
O10   O     O_3   0.284204 0.280929 0.324206 -0.524392
O11   O     O_3   0.009563 0.750002 0.254124 -0.524319
C2    C     C_3   0.990281 0.845321 0.293541 1.290778
C3    C     C_3   0.061665 0.940399 0.262426 -0.822707
H3    H     H_    0.047010 0.013831 0.293778 0.239609
H4    H     H_    0.184153 0.945842 0.264486 0.244154
C4    C     C_3   0.822775 0.272397 0.300946 0.966753
C5    C     C_3   0.949357 0.218591 0.268971 0.069381
H5    H     H_    0.032970 0.277694 0.250231 0.158762
H6    H     H_    0.007630 0.176095 0.306617 0.159671
Ba1   Ba    Ba6+2 0.160910 0.552960 0.466220 1.841556
C6    C     C_3   0.004199 0.682643 0.682366 0.187311
H7    H     H_    0.118156 0.660656 0.698389 0.001318
H8    H     H_    0.931942 0.612524 0.651219 0.092684
C7    C     C_3   0.927585 0.707478 0.748350 0.246689
H9    H     H_    0.929195 0.641973 0.779639 0.102387
H10   H     H_    0.806117 0.715093 0.732800 0.172924
C8    C     C_3   0.393239 0.227764 0.297201 0.375827
H11   H     H_    0.392711 0.155765 0.322445 0.119523
H12   H     H_    0.508802 0.273356 0.312647 0.142443
C9    C     C_3   0.342378 0.195020 0.218941 -0.861844
H13   H     H_    0.332606 0.264305 0.191943 0.254373
H14   H     H_    0.227930 0.143726 0.210496 0.268385
H15   H     H_    0.425515 0.151006 0.194653 0.292946
P4    P     P_3+3 0.823520 0.254020 0.445250 0.603057
O12   O     O_2   0.649470 0.236890 0.466160 -0.306885
O13   O     O_3   0.919320 0.371390 0.464540 -0.320459
O14   O     O_3   0.424350 0.301430 0.591880 -0.334683
O15   O     O_3   0.756098 0.216038 0.352218 -0.609764
P5    P     P_3+3 0.892954 0.378283 0.718838 0.469695
O16   O     O_3   0.382770 0.553920 0.582990 -0.304431
O17   O     O_3   0.848220 0.355290 0.626830 -0.352141
O18   O     O_2   0.805648 0.466604 0.743126 -0.355218
O19   O     O_3   0.797064 0.274171 0.756124 -0.572320
Ba2   Ba    Ba6+2 0.649260 0.447030 0.533730 1.796778
P6    P     P_3+3 0.439854 0.835605 0.413316 0.598715
C10   C     C_3   0.426028 0.858387 0.276986 0.904390
H16   H     H_    0.518566 0.819120 0.290085 0.134166
H17   H     H_    0.565105 0.955782 0.214510 0.310008
O20   O     O_3   0.427530 0.446070 0.416950 -0.258429
C11   C     C_3   0.447995 0.779379 0.688812 0.787739
H18   H     H_    0.323586 0.751687 0.672302 -0.014169
C12   C     C_3   0.472746 0.874651 0.745739 0.056515
H19   H     H_    0.594896 0.913682 0.751983 0.161296
H20   H     H_    0.398175 0.932482 0.732082 0.181220
P7    P     P_3+3 0.467378 0.575758 0.673692 0.556302
O21   O     O_2   0.637430 0.550200 0.669460 -0.328246
O22   O     O_3   0.522995 0.703874 0.716663 -0.571003
H21   H     H_    0.013606 0.938606 0.207095 0.274362
C13   C     C_3   0.894656 0.199727 0.767270 0.868499
H22   H     H_    0.012856 0.238526 0.786811 0.061316
C14   C     C_3   0.842202 0.132784 0.822442 -0.718561
H23   H     H_    0.753727 0.065049 0.799177 0.227876
H24   H     H_    0.941840 0.100796 0.847156 0.274353
H25   H     H_    0.794366 0.180268 0.863535 0.251088
P8    P     P_3+3 0.381302 0.163624 0.585737 0.672681
C15   C     C_3   0.433875 0.213463 0.719168 0.426591
H26   H     H_    0.325979 0.247621 0.712740 0.078985
O23   O     O_2   0.497671 0.121014 0.540353 -0.311586
O24   O     O_3   0.436401 0.128787 0.667698 -0.441938
H27   H     H_    0.531413 0.276833 0.717774 0.144989
H28   H     H_    0.337351 0.123660 0.794735 0.300151
C16   C     C_3   0.447126 0.174208 0.789462 -0.717365
H29   H     H_    0.476738 0.241367 0.832011 0.245213
H30   H     H_    0.537783 0.124799 0.793067 0.230931
C17   C     C_R   0.092431 0.168774 0.504988 0.093347
C18   C     C_R   0.736291 0.821996 0.482420 -0.181076
C19   C     C_R   0.708468 0.995929 0.454618 -0.088038
C20   C     C_R   0.646092 0.889375 0.451775 0.209474
C21   C     C_R   0.887156 0.854757 0.516621 0.311354
C22   C     C_R   0.951325 0.965578 0.520310 -0.153588
C23   C     C_R   0.861238 0.036576 0.486674 -0.059666
C24   C     C_R   0.929311 0.144944 0.484318 0.131328
C25   C     C_R   0.177012 0.106319 0.542836 0.053803
C26   C     C_R   0.102628 0.008519 0.554616 0.485446
H31   H     H_    0.637952 0.045466 0.429384 0.163472
H32   H     H_    0.685238 0.741842 0.481858 0.194504
C27   C     C_R   0.608244 0.545751 0.301765 0.218592
C28   C     C_R   0.459519 0.486280 0.278256 0.118923
C29   C     C_R   0.406228 0.475205 0.206076 -0.239570
C30   C     C_R   0.501435 0.516623 0.157916 0.168072
C31   C     C_R   0.653867 0.565421 0.182772 -0.209361
C32   C     C_R   0.708949 0.580641 0.253838 0.264540
C33   C     C_R   0.491185 0.584765 0.040236 -0.084023
C34   C     C_R   0.438867 0.573433 0.968525 -0.096706
C35   C     C_R   0.350168 0.479506 0.932840 -0.058475
C36   C     C_R   0.305032 0.399329 0.974901 0.568108
C37   C     C_R   0.351645 0.414706 0.047413 -0.253095
C38   C     C_R   0.446315 0.505893 0.081054 0.070998
C39   C     C_R   0.147436 0.438297 0.826101 -0.174662
C40   C     C_R   0.099270 0.425569 0.753917 0.138763
C41   C     C_R   0.358590 0.498649 0.733881 0.133293
C42   C     C_R   0.410185 0.503744 0.806685 0.364994
C43   C     C_R   0.304013 0.471103 0.854027 -0.004939
C44   C     C_R   0.204911 0.455085 0.708586 -0.535040
H33   H     H_    0.468454 0.639528 0.940888 0.224333
H34   H     H_    0.565562 0.656713 0.063665 0.193271
H35   H     H_    0.289392 0.435942 0.187821 0.158661
H36   H     H_    0.317063 0.352974 0.077922 0.195166
H37   H     H_    0.061349 0.422194 0.860539 0.199344
H38   H     H_    0.731753 0.590913 0.146549 0.153653
H39   H     H_    0.163500 0.452192 0.653787 0.187876
S1    S     S_3+6 0.322820 0.765703 0.205645 -0.011925
O25   O     O_2   0.433787 0.741021 0.155556 -0.301142
O26   O     O_2   0.264470 0.667053 0.233423 -0.263097
O27   O     O_3   0.179031 0.810117 0.159658 -0.526154
H40   H     H_    0.131124 0.750512 0.123647 0.391331
Cl1   Cl    Cl    0.879244 0.117854 0.196241 -0.558724
S2    S     S_3+6 0.015041 0.823503 0.805951 0.066623
O28   O     O_2   0.119189 0.896511 0.770769 -0.186320
O29   O     O_2   0.888606 0.878854 0.830684 -0.250393
O30   O     O_3   0.116748 0.788307 0.875303 -0.482021
H41   H     H_    0.143150 0.852889 0.909594 0.395167
S3    S     S_3+6 0.540166 0.815973 0.617305 -0.043307
O31   O     O_2   0.708986 0.810426 0.633221 -0.358753
O32   O     O_2   0.471614 0.741015 0.553442 -0.276734
O33   O     O_3   0.518575 0.938211 0.604721 -0.487557
H42   H     H_    0.612434 0.964965 0.584871 0.390775
Cl2   Cl    Cl    0.437589 0.837822 0.828790 -0.497672
S4    S     S_3+6 0.902397 0.120686 0.687557 -0.024384
O34   O     O_2   0.896703 0.007043 0.696185 -0.191427
O35   O     O_2   0.773472 0.132752 0.633365 -0.285729
O36   O     O_3   0.071926 0.167298 0.663776 -0.617328
H43   H     H_    0.056628 0.232722 0.644656 0.311068
Cl3   Cl    Cl    0.062966 0.860357 0.383161 -0.591406
Cl4   Cl    Cl    0.191206 0.956614 0.624406 -0.457371
S5    S     S_3+6 0.199166 0.272196 0.475834 0.000882
O37   O     O_2   0.209401 0.368992 0.527544 -0.302663
O38   O     O_2   0.355486 0.252429 0.459481 -0.222000
O39   O     O_3   0.104185 0.284567 0.402732 -0.594350
H44   H     H_    0.111768 0.359409 0.408754 0.434715
Cl5   Cl    Cl    0.606212 0.552011 0.837546 -0.569595
S6    S     S_3+6 0.190281 0.277309 0.943163 -0.069287
O40   O     O_2   0.023405 0.288988 0.944193 -0.314583
O41   O     O_2   0.219090 0.241676 0.870732 -0.383218
O42   O     O_3   0.232296 0.186755 0.994278 -0.485519
H45   H     H_    0.161187 0.121709 0.973498 0.395571
S7    S     S_3+6 0.798809 0.854098 0.289357 -0.142092
O43   O     O_2   0.734867 0.782131 0.337404 -0.421313
O44   O     O_2   0.778588 0.964615 0.313546 -0.376172
O45   O     O_3   0.718523 0.813298 0.206351 -0.567194
H46   H     H_    0.761104 0.866998 0.178564 0.376783
Cl6   Cl    Cl    0.669154 0.576252 0.391563 -0.525659
Cl7   Cl    Cl    0.689938 0.282787 0.226632 -0.668415
Cl8   Cl    Cl    0.868862 0.405119 0.331453 -0.582364

loop_
_geom_bond_atom_site_label_1
_geom_bond_atom_site_label_2
_geom_bond_distance
_ccdc_geom_bond_type
S4    O36   1.663532 S    
C19   C23   1.417403 A    
C23   C24   1.457853 A    
C27   C28   1.419136 A    
C6    H8    1.104667 S    
C29   C30   1.425343 A    
S6    O42   1.682802 S    
C15   H27   1.106171 S    
Ba1   O20   3.081293 S    
O39   H44   0.958440 S    
S4    O34   1.501548 D    
H28   C16   1.109668 S    
C12   Cl2   1.783735 S    
C35   C36   1.437671 A    
O19   C13   1.404433 S    
C19   C20   1.407435 A    
C9    H13   1.104006 S    
C3    H4    1.066771 S    
S6    O41   1.490455 D    
O6    C10   1.415379 S    
C2    C3    1.525079 S    
Ba1   Ba2   4.796833 S    
C7    H9    1.104414 S    
C16   H30   1.096446 S    
C4    Cl7   1.786433 S    
C12   H20   1.104112 S    
C8    C9    1.529061 S    
C18   H32   1.072346 S    
C42   C43   1.438476 A    
P1    O1    1.619799 D    
P7    O22   1.749482 S    
S1    O25   1.494785 D    
C15   C16   1.512529 S    
C36   S6    1.757445 S    
C4    O15   1.432711 S    
O5    C6    1.411504 S    
C11   C12   1.534229 S    
C1    H1    1.100310 S    
C13   C14   1.528078 S    
P3    O11   1.776249 S    
C41   C42   1.428546 A    
S7    O44   1.501068 D    
C1    C10   1.532643 S    
P3    C32   1.883150 S    
C11   S3    1.763984 S    
C42   Cl5   1.761513 S    
C17   C25   1.396645 A    
P7    O21   1.589113 D    
P4    O13   1.614269 S    
C33   C38   1.407830 A    
C6    C7    1.536993 S    
S5    O39   1.604551 S    
C28   C29   1.413130 A    
C15   O24   1.402744 S    
C44   H39   1.081579 S    
P5    C40   1.856995 S    
O2    Ba2   2.936407 S    
C31   C32   1.393754 A    
O17   Ba2   2.860221 S    
P5    O17   1.768559 S    
P1    C21   1.944711 S    
P8    O24   1.744037 S    
O3    P6    1.765026 S    
C14   H23   1.103423 S    
C17   C24   1.426654 A    
C37   H36   1.081953 S    
S6    O40   1.501296 D    
C22   C26   1.425672 A    
C1    H17   1.103096 S    
C16   H29   1.109801 S    
O33   H42   0.986051 S    
C5    Cl1   1.798342 S    
O16   P7    1.809658 S    
P2    Ba1   3.493644 S    
C12   H19   1.108299 S    
C21   C22   1.460662 A    
C9    H15   1.105061 S    
P1    O5    1.771956 S    
P1    O2    1.614301 S    
S1    O27   1.679030 S    
O10   C8    1.376413 S    
P2    O10   1.751981 S    
C33   C34   1.402567 A    
P8    C25   1.903036 S    
P3    O9    1.545483 D    
P5    O19   1.762988 S    
C3    H21   1.107730 S    
O42   H45   0.990714 S    
C30   C31   1.405767 A    
O11   C2    1.421140 S    
C11   O22   1.388428 S    
O1    Ba1   2.889796 S    
O8    Ba1   2.859652 S    
C31   H38   1.082787 S    
C2    Cl3   1.766321 S    
O27   H40   0.990685 S    
C13   S4    1.769750 S    
C2    S7    1.700234 S    
O13   Ba2   3.083647 S    
S2    O30   1.681065 S    
P2    C28   1.914097 S    
P4    O12   1.620196 D    
C7    S2    1.788839 S    
C18   C20   1.404875 A    
C30   C38   1.502807 S    
P1    Ba1   3.506597 S    
Ba2   O21   2.835917 S    
C41   C44   1.399942 A    
S5    O38   1.497564 D    
O7    Ba1   2.835914 S    
C11   H18   1.101794 S    
C27   Cl6   1.749442 S    
O12   Ba2   2.890490 S    
C6    H7    1.104936 S    
P2    O20   1.555281 S    
C10   H16   1.046460 S    
Ba1   O13   2.935734 S    
S2    O29   1.502908 D    
S3    O31   1.498649 D    
C40   C44   1.395486 A    
P5    O18   1.530568 D    
S4    O35   1.499747 D    
C39   C43   1.409888 A    
O45   H46   0.989015 S    
O14   P8    1.764729 S    
C22   C23   1.466009 A    
C39   H37   1.079976 S    
O2    Ba1   3.082637 S    
P3    O8    1.745463 S    
C15   H26   1.106784 S    
P8    O23   1.544536 D    
O3    Ba1   2.950667 S    
O14   Ba2   2.949957 S    
C18   C21   1.401011 A    
C19   H31   1.079006 S    
C39   C40   1.403425 A    
O16   Ba2   3.080238 S    
Ba2   O20   2.823410 S    
C14   H25   1.109490 S    
S3    O33   1.671249 S    
C3    H3    1.103045 S    
C9    H14   1.109519 S    
S7    O43   1.495161 D    
O6    P6    1.781450 S    
C17   S5    1.716402 S    
C7    H10   1.100779 S    
P2    O7    1.600811 D    
P4    C24   1.984290 S    
C4    Cl8   1.732090 S    
C29   H35   1.081649 S    
P4    Ba2   3.507367 S    
C33   H34   1.081037 S    
P6    C20   1.885691 S    
S7    O45   1.680084 S    
C34   C35   1.410180 A    
C8    H12   1.092457 S    
C8    H11   1.106950 S    
C5    H6    1.094811 S    
C36   C37   1.406171 A    
P7    C41   1.881294 S    
S1    O26   1.495306 D    
C26   Cl4   1.743154 S    
O36   H43   0.988469 S    
Ba1   O16   2.823956 S    
C5    H5    1.107926 S    
P4    O15   1.826060 S    
C34   H33   1.081921 S    
C1    H2    1.107027 S    
C13   H22   1.094510 S    
C37   C38   1.392961 A    
S5    O37   1.501130 D    
C4    C5    1.547927 S    
O4    P6    1.545015 D    
C14   H24   1.110549 S    
C25   C26   1.400217 A    
C35   C43   1.527855 S    
C27   C32   1.423603 A    
O30   H41   0.990755 S    
S2    O28   1.500197 D    
S3    O32   1.495117 D    
C10   S1    1.792603 S    
