data_mof_unit_1226.cif
_audit_creation_date              2012-12-10T19:04:13-0500
_audit_creation_method            fapswitch 2.2
_symmetry_space_group_name_H-M    P1
_symmetry_Int_Tables_number       1
_space_group_crystal_system       triclinic
_cell_length_a                    10.625884
_cell_length_b                    10.814817
_cell_length_c                    9.548766
_cell_angle_alpha                 90.006682
_cell_angle_beta                  90.46711
_cell_angle_gamma                 90.176446
_cell_volume                      1097.27377526

loop_
_atom_site_label
_atom_site_type_symbol
_atom_type_description
_atom_site_fract_x
_atom_site_fract_y
_atom_site_fract_z
_atom_type_partial_charge
C1    C     C_R   0.497507 0.262338 0.499944 0.790861
C2    C     C_3   0.957268 0.601904 0.433138 -0.262370
C3    C     C_3   0.038946 0.499992 0.365598 -0.188529
C4    C     C_3   0.122568 0.499358 0.497705 -0.027909
C5    C     C_R   0.488172 0.063644 0.625630 0.115339
C6    C     C_R   0.484886 0.129211 0.499837 -0.098774
C7    C     C_R   0.464149 0.064338 0.374082 -0.224889
C8    C     C_R   0.464471 0.935416 0.374076 -0.219619
C9    C     C_R   0.485508 0.870758 0.499824 -0.092169
C10   C     C_R   0.488647 0.936402 0.625603 0.154807
C11   C     C_3   0.581218 0.930578 0.743988 -0.489478
C12   C     C_R   0.259361 0.499930 0.499319 0.823847
C13   C     C_3   0.580317 0.070919 0.744344 -0.463859
C14   C     C_R   0.559766 0.591997 0.074241 0.259472
C15   C     C_R   0.431089 0.416278 0.073777 -0.083922
C16   C     C_R   0.431123 0.416230 0.924904 -0.074344
C17   C     C_R   0.559871 0.591916 0.926877 0.272895
C18   C     C_3   0.696663 0.622720 0.922937 -0.533272
C19   C     C_3   0.696286 0.623698 0.081749 -0.501950
C20   C     C_R   0.497870 0.737672 0.499938 0.807603
C21   C     C_R   0.740665 0.499830 0.500570 0.798966
C22   C     C_3   0.042531 0.397426 0.564933 -0.226841
C23   C     C_3   0.956571 0.398121 0.433091 -0.140140
C24   C     C_3   0.877448 0.499730 0.501487 -0.039054
C25   C     C_3   0.960995 0.498499 0.634149 -0.228081
C26   C     C_3   0.041672 0.598817 0.564513 0.502452
Cu1   Cu    Cu3+1 0.499990 0.499980 0.640670 0.951032
Cu2   Cu    Cu3+1 0.500010 0.500020 0.359330 0.936554
H1    H     H_    0.917803 0.315284 0.379064 0.132718
H2    H     H_    0.673119 0.890885 0.712193 0.181733
H3    H     H_    0.537751 0.110851 0.840163 0.195680
H4    H     H_    0.671749 0.112671 0.713350 0.197213
H5    H     H_    0.377212 0.347021 0.129071 0.133400
H6    H     H_    0.377310 0.346905 0.868637 0.135403
H7    H     H_    0.753815 0.546380 0.879432 0.212722
H8    H     H_    0.714923 0.715126 0.876627 0.184647
H9    H     H_    0.754594 0.548764 0.128117 0.224130
H10   H     H_    0.712804 0.717052 0.127150 0.190301
H11   H     H_    0.080565 0.313781 0.617518 0.139219
H12   H     H_    0.928792 0.497586 0.744197 0.129587
H13   H     H_    0.919440 0.685425 0.380119 0.129264
H14   H     H_    0.073500 0.499743 0.256179 0.152855
H15   H     H_    0.453700 0.112524 0.275250 0.159991
H16   H     H_    0.454210 0.887123 0.275235 0.163771
H17   H     H_    0.539579 0.889528 0.839835 0.200045
N1    N     N_R   0.500800 0.500930 0.147930 -0.185093
N2    N     N_R   0.500800 0.500890 0.852020 -0.183736
O1    O     O_R   0.500000 0.319640 0.618810 -0.585985
O2    O     O_R   0.500010 0.319680 0.381230 -0.589805
O3    O     O_R   0.316850 0.499950 0.618770 -0.564748
O4    O     O_R   0.316860 0.499990 0.381190 -0.593520
O5    O     O_R   0.499990 0.680320 0.618770 -0.570918
O6    O     O_R   0.500000 0.680360 0.381190 -0.588908
O7    O     O_R   0.683140 0.500010 0.618810 -0.590854
O8    O     O_R   0.683150 0.500050 0.381230 -0.581314
O9    O     O_3   0.096054 0.702671 0.631170 -0.581510
C27   C     C_3   0.000132 0.777007 0.687562 0.062342
H18   H     H_    0.948859 0.726523 0.771234 0.140611
H19   H     H_    0.932203 0.806833 0.604896 0.128021
C28   C     C_3   0.058956 0.892320 0.751956 -0.785175
H20   H     H_    0.110314 0.945401 0.670719 0.247014
H21   H     H_    0.984244 0.951794 0.796516 0.192455
H22   H     H_    0.125792 0.866054 0.836831 0.249816

loop_
_geom_bond_atom_site_label_1
_geom_bond_atom_site_label_2
_ccdc_geom_bond_type
Cu1   O1    S    
C12   O3    A    
C23   C24   S    
C18   H8    S    
C3    H14   S    
C6    C7    A    
C19   H10   S    
C7    H15   S    
C4    C12   S    
C4    C22   S    
C18   H7    S    
C9    C20   S    
C4    C26   S    
Cu1   O3    S    
Cu2   O6    S    
C17   C18   S    
C25   C26   S    
Cu1   O7    S    
C5    C10   A    
C2    C26   S    
O9    C27   S    
C11   C13   S    
C14   C17   A    
Cu2   N1    S    
C27   H18   S    
C5    C6    A    
C1    O2    A    
C28   H20   S    
C28   H22   S    
C22   H11   S    
C23   H1    S    
C16   N2    A    
Cu2   O8    S    
C13   H3    S    
C2    C3    S    
C25   H12   S    
C2    C24   S    
C21   O7    A    
Cu2   O4    S    
C27   H19   S    
C11   H17   S    
C10   C11   S    
C2    H13   S    
C1    C6    S    
C9    C10   A    
C17   N2    A    
C7    C8    A    
C12   O4    A    
C24   C25   S    
Cu1   O5    S    
C28   H21   S    
C18   C19   S    
Cu2   O2    S    
C21   C24   S    
Cu1   N2    S    
Cu1   Cu2   S    
C21   O8    A    
C20   O5    A    
C20   O6    A    
C27   C28   S    
C1    O1    A    
C19   H9    S    
C15   N1    A    
C16   H6    S    
C3    C23   S    
C22   C23   S    
C13   H4    S    
C5    C13   S    
C14   C19   S    
C15   H5    S    
C15   C16   A    
C3    C4    S    
C8    H16   S    
C11   H2    S    
C8    C9    A    
C14   N1    A    
C22   C25   S    
C26   O9    S    
