data_mof_unit_1230.cif
_audit_creation_date              2012-12-11T15:56:56-0500
_audit_creation_method            fapswitch 2.2
_symmetry_space_group_name_H-M    P1
_symmetry_Int_Tables_number       1
_space_group_crystal_system       triclinic
_cell_length_a                    17.448141
_cell_length_b                    24.31949
_cell_length_c                    15.08883
_cell_angle_alpha                 90.010746
_cell_angle_beta                  126.35515
_cell_angle_gamma                 89.9797
_cell_volume                      5156.41872468

loop_
_atom_site_label
_atom_site_type_symbol
_atom_type_description
_atom_site_fract_x
_atom_site_fract_y
_atom_site_fract_z
_atom_type_partial_charge
C1    C     C_R   0.307953 0.123650 0.906576 -0.132329
C2    C     C_R   0.308088 0.876185 0.906558 -0.126929
C3    C     C_R   0.808050 0.623789 0.906658 -0.132006
C4    C     C_R   0.807984 0.376333 0.906471 -0.127084
C5    C     C_R   0.649083 0.152237 0.091784 -0.127757
C6    C     C_R   0.648713 0.847654 0.091994 -0.128514
C7    C     C_R   0.149137 0.652206 0.091852 -0.127208
C8    C     C_R   0.148661 0.347624 0.091929 -0.128703
C9    C     C_R   0.556106 0.847267 0.909125 -0.165024
C10   C     C_R   0.557004 0.152313 0.908740 -0.113048
C11   C     C_R   0.056103 0.347280 0.909077 -0.164482
C12   C     C_R   0.057006 0.652327 0.908790 -0.113732
C13   C     C_R   0.542415 0.999537 0.718552 0.061482
C14   C     C_R   0.042410 0.499539 0.718549 0.061701
C15   C     C_R   0.824342 0.000361 0.270991 0.047462
C16   C     C_R   0.324359 0.499575 0.271113 0.046806
C17   C     C_R   0.617925 0.183874 0.000249 0.072990
C18   C     C_R   0.616965 0.815716 0.000685 0.084372
C19   C     C_R   0.117949 0.683866 0.000344 0.072705
C20   C     C_R   0.116940 0.315708 0.000594 0.084498
C21   C     C_3   0.033034 0.949432 0.487830 -0.167731
C22   C     C_3   0.021415 0.036990 0.514550 -0.157074
C23   C     C_3   0.521389 0.463366 0.515053 -0.161248
C24   C     C_3   0.533306 0.550685 0.487171 -0.166627
C25   C     C_3   0.954724 0.987192 0.470477 -0.137766
C26   C     C_3   0.454886 0.513276 0.470384 -0.133124
C27   C     C_3   0.925719 0.000557 0.354951 0.162245
C28   C     C_3   0.425751 0.499358 0.355003 0.165793
C29   C     C_3   0.003132 0.962718 0.371130 -0.130715
C30   C     C_3   0.991979 0.050535 0.398445 -0.166191
C31   C     C_3   0.491836 0.449268 0.399112 -0.153548
C32   C     C_3   0.503269 0.536844 0.370609 -0.152900
C33   C     C_3   0.072013 0.012811 0.417088 -0.109756
C34   C     C_3   0.571972 0.486635 0.417184 -0.112288
C35   C     C_R   0.401426 0.876116 0.091345 -0.112789
C36   C     C_R   0.401335 0.123702 0.091406 -0.111459
C37   C     C_R   0.901334 0.376171 0.091279 -0.112827
C38   C     C_R   0.901422 0.623756 0.091468 -0.111454
C39   C     C_3   0.099358 0.999339 0.531643 0.167466
C40   C     C_3   0.599440 0.500666 0.531589 0.167223
C41   C     C_3   0.251665 0.822126 0.100170 -0.454907
C42   C     C_3   0.251115 0.177432 0.100179 -0.472778
C43   C     C_3   0.751232 0.322288 0.099791 -0.455027
C44   C     C_3   0.751522 0.677586 0.100535 -0.472797
C45   C     C_3   0.698670 0.271801 0.101769 0.371768
C46   C     C_3   0.698435 0.727876 0.102385 0.367827
C47   C     C_3   0.198997 0.771685 0.102086 0.371649
C48   C     C_3   0.198125 0.227765 0.102086 0.367992
C49   C     C_3   0.802902 0.264535 0.003388 -0.349654
C50   C     C_3   0.802179 0.735438 0.003324 -0.349472
C51   C     C_3   0.302822 0.764435 0.003176 -0.350065
C52   C     C_3   0.302251 0.235343 0.003521 -0.349035
C53   C     C_3   0.149528 0.819484 0.894007 -0.391889
C54   C     C_3   0.149147 0.180229 0.894025 -0.393377
C55   C     C_3   0.649483 0.319433 0.893652 -0.393281
C56   C     C_3   0.649192 0.680183 0.894358 -0.391793
C57   C     C_3   0.254148 0.818819 0.998858 0.279206
C58   C     C_3   0.253724 0.180881 0.998963 0.294368
C59   C     C_3   0.754008 0.318903 0.998694 0.279668
C60   C     C_3   0.753858 0.680961 0.999118 0.293903
C61   C     C_3   0.663378 0.234556 0.000076 0.208042
C62   C     C_3   0.662709 0.765095 0.000555 0.225547
C63   C     C_3   0.163452 0.734521 0.000217 0.208699
C64   C     C_3   0.162638 0.265061 0.000421 0.224772
C65   C     C_3   0.750234 0.215269 0.004875 -0.461945
C66   C     C_3   0.749362 0.784564 0.005102 -0.490599
C67   C     C_3   0.250146 0.715193 0.004715 -0.462531
C68   C     C_3   0.249443 0.284491 0.005253 -0.489916
C69   C     C_3   0.596524 0.268824 0.893089 -0.357580
C70   C     C_3   0.595993 0.730727 0.893694 -0.346735
C71   C     C_3   0.096541 0.768879 0.893384 -0.358308
C72   C     C_3   0.095974 0.230777 0.893416 -0.345952
C73   C     C_3   0.649470 0.018266 0.661491 0.321505
C74   C     C_3   0.531724 0.938936 0.576631 0.317375
C75   C     C_3   0.149473 0.518221 0.661489 0.321731
C76   C     C_3   0.031607 0.438949 0.576551 0.317467
C77   C     C_R   0.544614 0.045212 0.302375 -0.160720
C78   C     C_R   0.544595 0.953604 0.300778 -0.153194
C79   C     C_R   0.044609 0.545210 0.302373 -0.161647
C80   C     C_R   0.044567 0.453602 0.300762 -0.152489
C81   C     C_3   0.647949 0.023767 0.558138 -0.484021
C82   C     C_3   0.547026 0.938395 0.487344 -0.496709
C83   C     C_3   0.147954 0.523723 0.558138 -0.484823
C84   C     C_3   0.046897 0.438401 0.487256 -0.496473
C85   C     C_3   0.471637 0.037389 0.533544 -0.338562
C86   C     C_3   0.971669 0.537432 0.533571 -0.337961
C87   C     C_3   0.549483 0.998609 0.625808 0.080961
C88   C     C_3   0.049461 0.498613 0.625792 0.080689
C89   C     C_3   0.555029 0.998163 0.457787 0.255034
C90   C     C_3   0.054994 0.498165 0.457764 0.255226
C91   C     C_3   0.467765 0.031555 0.430726 -0.367079
C92   C     C_3   0.967781 0.531600 0.430742 -0.366988
C93   C     C_R   0.239942 0.953775 0.697099 -0.117506
C94   C     C_R   0.240054 0.045750 0.696093 -0.159026
C95   C     C_R   0.740119 0.454261 0.696049 -0.129278
C96   C     C_R   0.739955 0.546235 0.697076 -0.145547
C97   C     C_R   0.311054 0.136633 0.998563 0.022336
C98   C     C_R   0.311237 0.863149 0.998502 0.023242
C99   C     C_R   0.811181 0.636740 0.998668 0.022693
C100  C     C_R   0.811104 0.363262 0.998391 0.022844
C101  C     C_R   0.553174 0.998885 0.359992 0.072251
C102  C     C_R   0.053143 0.498883 0.359973 0.072289
C103  C     C_R   0.191066 0.999590 0.637192 0.052674
C104  C     C_R   0.691142 0.500425 0.637130 0.051578
C105  C     C_R   0.516344 0.045977 0.748499 -0.068460
C106  C     C_R   0.520649 0.953828 0.754347 -0.064279
C107  C     C_R   0.016350 0.545979 0.748508 -0.068182
C108  C     C_R   0.020643 0.453829 0.754339 -0.064616
C109  C     C_R   0.769388 0.953998 0.246814 -0.144624
C110  C     C_R   0.769187 0.046378 0.247591 -0.117464
C111  C     C_R   0.269192 0.453580 0.247638 -0.130046
C112  C     C_R   0.269401 0.545966 0.246875 -0.133109
H1    H     H_    0.251369 0.131486 0.821288 0.092737
H2    H     H_    0.251674 0.868123 0.821345 0.092588
H3    H     H_    0.751562 0.631849 0.821465 0.092615
H4    H     H_    0.751466 0.368508 0.821160 0.092898
H5    H     H_    0.050616 0.907975 0.525945 0.114961
H6    H     H_    0.030367 0.067206 0.575252 0.118646
H7    H     H_    0.530277 0.433478 0.576174 0.114835
H8    H     H_    0.551051 0.592278 0.524728 0.114849
H9    H     H_    0.992823 0.932628 0.309586 0.135946
H10   H     H_    0.973257 0.091795 0.359426 0.123273
H11   H     H_    0.472983 0.407869 0.360664 0.122476
H12   H     H_    0.493020 0.566605 0.308642 0.137083
H13   H     H_    0.123290 0.023181 0.398843 0.136284
H14   H     H_    0.623174 0.475844 0.399024 0.149315
H15   H     H_    0.324483 0.822302 0.178521 0.139001
H16   H     H_    0.323933 0.177293 0.178544 0.129763
H17   H     H_    0.823971 0.322605 0.178260 0.138937
H18   H     H_    0.824413 0.677578 0.178787 0.129954
H19   H     H_    0.216927 0.861162 0.097173 0.215243
H20   H     H_    0.216547 0.138321 0.097094 0.211655
H21   H     H_    0.716262 0.361290 0.096463 0.215156
H22   H     H_    0.717170 0.638444 0.097757 0.211604
H23   H     H_    0.750223 0.248700 0.178788 0.059923
H24   H     H_    0.749746 0.751092 0.179317 0.052427
H25   H     H_    0.250547 0.748510 0.178999 0.060366
H26   H     H_    0.249439 0.250913 0.179118 0.051904
H27   H     H_    0.878038 0.263384 0.078366 0.187932
H28   H     H_    0.877446 0.736722 0.078010 0.189354
H29   H     H_    0.378030 0.763212 0.077997 0.188124
H30   H     H_    0.377453 0.236558 0.078353 0.189201
H31   H     H_    0.799793 0.190837 0.080978 0.172252
H32   H     H_    0.798923 0.808977 0.081219 0.173777
H33   H     H_    0.299751 0.690714 0.080730 0.172111
H34   H     H_    0.298961 0.308859 0.081452 0.174031
H35   H     H_    0.145603 0.818286 0.817889 0.152323
H36   H     H_    0.145342 0.181512 0.817986 0.149023
H37   H     H_    0.645800 0.318130 0.817691 0.152361
H38   H     H_    0.645163 0.681369 0.818174 0.149187
H39   H     H_    0.431256 0.867747 0.176128 0.097989
H40   H     H_    0.431148 0.131830 0.176294 0.095410
H41   H     H_    0.931120 0.367777 0.176042 0.097872
H42   H     H_    0.931279 0.631864 0.176373 0.095532
H43   H     H_    0.113316 0.857760 0.891486 0.176704
H44   H     H_    0.112992 0.141909 0.891346 0.182605
H45   H     H_    0.613105 0.357707 0.890788 0.176225
H46   H     H_    0.613193 0.641861 0.892000 0.183086
H47   H     H_    0.031557 0.781848 0.885317 0.199826
H48   H     H_    0.030902 0.217735 0.885056 0.210987
H49   H     H_    0.531451 0.281788 0.884829 0.199805
H50   H     H_    0.531004 0.717679 0.885515 0.211019
H51   H     H_    0.573152 0.244079 0.819116 0.153654
H52   H     H_    0.572459 0.755449 0.819643 0.150434
H53   H     H_    0.073020 0.744198 0.819288 0.153605
H54   H     H_    0.072582 0.255561 0.819481 0.150383
H55   H     H_    0.804486 0.261300 0.930835 0.191537
H56   H     H_    0.803306 0.738728 0.930460 0.176627
H57   H     H_    0.304165 0.761243 0.930449 0.191228
H58   H     H_    0.303603 0.238674 0.930818 0.176990
H59   H     H_    0.727139 0.188163 0.933489 0.227008
H60   H     H_    0.726015 0.811738 0.933737 0.190112
H61   H     H_    0.226877 0.688123 0.933227 0.226834
H62   H     H_    0.226259 0.311699 0.933983 0.190350
H63   H     H_    0.703213 0.986733 0.717124 0.074876
H64   H     H_    0.583786 0.909699 0.641787 0.043486
H65   H     H_    0.203173 0.486663 0.717090 0.075050
H66   H     H_    0.083632 0.409685 0.641668 0.043930
H67   H     H_    0.711084 0.002569 0.572816 0.151972
H68   H     H_    0.613422 0.915313 0.517123 0.132888
H69   H     H_    0.211057 0.502493 0.572790 0.152136
H70   H     H_    0.113257 0.415284 0.517006 0.133190
H71   H     H_    0.651934 0.067705 0.540654 0.215420
H72   H     H_    0.487208 0.916260 0.413707 0.217870
H73   H     H_    0.152003 0.567659 0.540697 0.215210
H74   H     H_    0.987042 0.416298 0.413594 0.217817
H75   H     H_    0.487847 0.081038 0.560571 0.181556
H76   H     H_    0.400334 0.028258 0.513219 0.204337
H77   H     H_    0.987945 0.581072 0.560643 0.181678
H78   H     H_    0.900356 0.528333 0.513243 0.204677
H79   H     H_    0.558377 0.087297 0.331072 0.099747
H80   H     H_    0.560235 0.911196 0.327215 0.097515
H81   H     H_    0.058394 0.587293 0.331084 0.099710
H82   H     H_    0.060180 0.411191 0.327186 0.097583
H83   H     H_    0.465674 0.073477 0.399820 0.149942
H84   H     H_    0.400762 0.010327 0.365185 0.201383
H85   H     H_    0.965751 0.573523 0.399881 0.150090
H86   H     H_    0.900745 0.510406 0.365181 0.201258
H87   H     H_    0.226248 0.911719 0.668264 0.102403
H88   H     H_    0.225546 0.087678 0.666414 0.098604
H89   H     H_    0.725655 0.412334 0.666363 0.108394
H90   H     H_    0.726236 0.588297 0.668276 0.092382
H91   H     H_    0.520360 0.088509 0.731188 0.132203
H92   H     H_    0.530821 0.911007 0.745675 0.122676
H93   H     H_    0.020381 0.588512 0.731217 0.132188
H94   H     H_    0.030797 0.411009 0.745644 0.122811
H95   H     H_    0.793082 0.911736 0.262805 0.101584
H96   H     H_    0.792226 0.088735 0.263910 0.095743
H97   H     H_    0.292197 0.411208 0.263891 0.095004
H98   H     H_    0.293112 0.588215 0.262907 0.102371
H99   H     H_    0.691816 0.165425 0.176647 0.106038
H100  H     H_    0.691683 0.834656 0.176985 0.101828
H101  H     H_    0.191988 0.665320 0.176767 0.106290
H102  H     H_    0.191512 0.334555 0.176871 0.101497
H103  H     H_    0.512029 0.834321 0.824143 0.112859
H104  H     H_    0.513599 0.164952 0.823583 0.086084
H105  H     H_    0.012004 0.334349 0.824086 0.112715
H106  H     H_    0.013622 0.664983 0.823643 0.086266
H107  H     H_    0.905142 0.976749 0.491320 0.119906
H108  H     H_    0.405401 0.524136 0.491174 0.121297
N1    N     N_R   0.392450 0.103580 0.942190 -0.039374
N2    N     N_R   0.392450 0.896420 0.942190 -0.037296
N3    N     N_R   0.892450 0.603580 0.942190 -0.039705
N4    N     N_R   0.892450 0.396420 0.942190 -0.036981
N5    N     N_R   0.450490 0.896000 0.057360 -0.036374
N6    N     N_R   0.450490 0.104000 0.057360 -0.035601
N7    N     N_R   0.950490 0.396000 0.057360 -0.036410
N8    N     N_R   0.950490 0.604000 0.057360 -0.035570
N9    N     N_R   0.525490 0.028390 0.207550 -0.037210
N10   N     N_R   0.525490 0.971610 0.207550 -0.038100
N11   N     N_R   0.025490 0.528390 0.207550 -0.037086
N12   N     N_R   0.025490 0.471610 0.207550 -0.038192
N13   N     N_R   0.317450 0.971190 0.792000 -0.040608
N14   N     N_R   0.317450 0.028810 0.792000 -0.039684
N15   N     N_R   0.817450 0.471190 0.792000 -0.040163
N16   N     N_R   0.817450 0.528810 0.792000 -0.040396
N17   N     N_R   0.473900 0.028390 0.792280 -0.057735
N18   N     N_R   0.473900 0.971610 0.792280 -0.041269
N19   N     N_R   0.973900 0.528390 0.792280 -0.057856
N20   N     N_R   0.973900 0.471610 0.792280 -0.041293
N21   N     N_R   0.682310 0.971180 0.208170 -0.043004
N22   N     N_R   0.682310 0.028820 0.208170 -0.043289
N23   N     N_R   0.182310 0.471180 0.208170 -0.043328
N24   N     N_R   0.182310 0.528820 0.208170 -0.042779
N25   N     N_R   0.606470 0.103570 0.057210 -0.040244
N26   N     N_R   0.606470 0.896430 0.057210 -0.040338
N27   N     N_R   0.106470 0.603570 0.057210 -0.039812
N28   N     N_R   0.106470 0.396430 0.057210 -0.040659
N29   N     N_R   0.549740 0.896000 0.943240 -0.042604
N30   N     N_R   0.549740 0.104000 0.943240 -0.041229
N31   N     N_R   0.049740 0.396000 0.943240 -0.042546
N32   N     N_R   0.049740 0.604000 0.943240 -0.041211
Ni1   Ni    Ni4+2 0.433780 0.065390 0.868430 0.213713
Ni2   Ni    Ni4+2 0.433780 0.934610 0.868430 0.239896
Ni3   Ni    Ni4+2 0.933780 0.565390 0.868430 0.213849
Ni4   Ni    Ni4+2 0.933780 0.434610 0.868430 0.239505
Ni5   Ni    Ni4+2 0.565800 0.934190 0.131570 0.222096
Ni6   Ni    Ni4+2 0.565800 0.065810 0.131570 0.227107
Ni7   Ni    Ni4+2 0.065800 0.434190 0.131570 0.222641
Ni8   Ni    Ni4+2 0.065800 0.565810 0.131570 0.226626
Cl1   Cl    Cl    0.103787 0.792552 0.108718 -0.685231
Cl2   Cl    Cl    0.102781 0.206677 0.108255 -0.692736
Cl3   Cl    Cl    0.603269 0.292596 0.108102 -0.684840
Cl4   Cl    Cl    0.603271 0.706720 0.108836 -0.693601
Cl5   Cl    Cl    0.688568 0.081768 0.737026 -0.695921
Cl6   Cl    Cl    0.413359 0.913239 0.518502 -0.686270
Cl7   Cl    Cl    0.188654 0.581706 0.737083 -0.696541
Cl8   Cl    Cl    0.913206 0.413313 0.518418 -0.690069

loop_
_geom_bond_atom_site_label_1
_geom_bond_atom_site_label_2
_ccdc_geom_bond_type
C16   C112  A    
C85   H75   S    
N25   N30   A    
C16   C28   S    
C44   C60   S    
C55   C59   S    
C43   C59   S    
C27   C29   S    
C2    H2    S    
C15   C109  A    
C77   C101  A    
N19   N20   A    
N24   Ni8   S    
C53   H35   S    
C60   C99   S    
C75   C83   S    
C76   C84   S    
C111  H97   S    
N27   Ni8   S    
C85   C91   S    
C55   H45   S    
C22   C39   S    
C75   Cl7   S    
N27   N32   A    
C9    H103  S    
C106  H92   S    
C83   H69   S    
C91   H83   S    
C33   C39   S    
C82   C89   S    
N21   Ni5   S    
C65   H59   S    
C34   C40   S    
C64   C68   S    
N17   Ni1   S    
C93   H87   S    
C24   C26   S    
N15   Ni4   S    
C49   H55   S    
C76   H66   S    
C23   H7    S    
C65   H31   S    
C50   H28   S    
C77   N9    A    
C105  H91   S    
C66   H32   S    
C96   N16   A    
C10   C17   A    
C46   Cl4   S    
C23   C40   S    
N28   Ni7   S    
C82   H72   S    
C2    N2    A    
C94   N14   A    
C62   C70   S    
C43   H21   S    
N21   N22   A    
C23   C26   S    
C73   C81   S    
C47   H25   S    
C109  H95   S    
C32   H12   S    
C90   C102  S    
C1    N1    A    
C56   H46   S    
C48   C64   S    
C17   C61   S    
C49   C65   S    
C15   C27   S    
C44   H18   S    
C49   H27   S    
C73   C87   S    
C72   H48   S    
C108  N20   A    
C29   C33   S    
C19   C63   S    
N12   Ni7   S    
C29   H9    S    
C67   H33   S    
C46   C62   S    
C21   H5    S    
N15   N16   A    
C79   C102  A    
C6    N26   A    
C36   C97   A    
C51   C57   S    
C109  N21   A    
C74   C87   S    
C89   C91   S    
C35   C98   A    
N13   N14   A    
C11   H105  S    
C105  N17   A    
C52   C68   S    
N28   N31   A    
N7    Ni7   S    
C49   C59   S    
C81   C89   S    
N9    Ni6   S    
C45   C61   S    
C85   H76   S    
C14   C108  A    
C83   H73   S    
N29   Ni2   S    
N17   N18   A    
C78   C101  A    
C59   C100  S    
N22   Ni6   S    
C15   C110  A    
C42   C58   S    
C58   C97   S    
C35   H39   S    
C80   N12   A    
C5    H99   S    
C70   H50   S    
C12   H106  S    
C44   C46   S    
C55   H37   S    
N1    Ni1   S    
C51   H29   S    
C44   H22   S    
C6    C18   A    
C63   C67   S    
C11   C20   A    
C45   H23   S    
C24   H8    S    
C62   C66   S    
C85   C87   S    
C26   H108  S    
C77   H79   S    
C37   H41   S    
C28   C32   S    
C54   H44   S    
C78   H80   S    
C81   H67   S    
C13   C105  A    
C86   H78   S    
C52   H58   S    
C41   H19   S    
C68   H62   S    
N3    N8    A    
C18   C62   S    
N23   Ni7   S    
N2    N5    A    
C93   N13   A    
C111  N23   A    
C4    N4    A    
C107  N19   A    
N1    N6    A    
C22   C25   S    
C47   Cl1   S    
C76   C88   S    
C56   C60   S    
C6    H100  S    
C80   C102  A    
C10   N30   A    
C46   H24   S    
C23   C31   S    
C20   C64   S    
C42   C48   S    
C9    N29   A    
C24   C32   S    
C74   H64   S    
N9    N10   A    
C7    N27   A    
N3    Ni3   S    
N6    Ni6   S    
C40   C104  S    
N30   Ni1   S    
C50   C66   S    
C110  N22   A    
C90   C92   S    
C21   C39   S    
N10   Ni5   S    
C43   H17   S    
C34   H14   S    
C1    C97   A    
C13   C87   S    
C33   H13   S    
C41   C47   S    
C31   C34   S    
C51   C67   S    
C52   C58   S    
C5    C17   A    
C96   H90   S    
N25   Ni6   S    
C43   C45   S    
N14   Ni1   S    
C79   N11   A    
C55   C69   S    
C73   Cl5   S    
N13   Ni2   S    
C95   N15   A    
N32   Ni3   S    
C71   H53   S    
N2    Ni2   S    
C108  H94   S    
C14   C107  A    
C8    C20   A    
C41   C57   S    
N18   Ni2   S    
C94   C103  A    
C53   H43   S    
C56   C70   S    
C76   Cl8   S    
C8    N28   A    
C50   H56   S    
C25   H107  S    
C25   C27   S    
C81   H71   S    
C56   H38   S    
N19   Ni3   S    
C53   C71   S    
N4    N7    A    
C92   H85   S    
C13   C106  A    
C68   H34   S    
C95   C104  A    
N4    Ni4   S    
C38   N8    A    
C54   C58   S    
C41   H15   S    
C66   H60   S    
C22   H6    S    
C83   C90   S    
C21   C25   S    
C12   N32   A    
C24   C40   S    
C86   H77   S    
C36   N6    A    
C22   C30   S    
C30   C33   S    
C89   C101  S    
C35   N5    A    
C110  H96   S    
C72   H54   S    
C84   H70   S    
C4    H4    S    
C28   C31   S    
C36   H40   S    
C69   H51   S    
C5    N25   A    
C38   C99   A    
C7    H101  S    
C53   C57   S    
C73   H63   S    
C61   C65   S    
N8    Ni8   S    
C39   C103  S    
C42   H16   S    
C78   N10   A    
C71   H47   S    
N11   Ni8   S    
C80   H82   S    
C26   C28   S    
C79   H81   S    
C4    C100  A    
C48   H26   S    
C50   C60   S    
N5    Ni5   S    
C96   C104  A    
C84   H74   S    
C86   C88   S    
C31   H11   S    
C54   H36   S    
N26   Ni5   S    
C86   C92   S    
C95   H89   S    
C47   C63   S    
C91   H84   S    
C74   Cl6   S    
C32   C34   S    
C10   H104  S    
N31   Ni4   S    
C21   C29   S    
C9    C18   A    
C67   H61   S    
C7    C19   A    
C30   H10   S    
C57   C98   S    
C12   C19   A    
C48   Cl2   S    
N20   Ni4   S    
C112  N24   A    
C94   H88   S    
C61   C69   S    
C1    H1    S    
N16   Ni3   S    
C51   H57   S    
C75   H65   S    
C52   H30   S    
C107  H93   S    
C64   C72   S    
C45   Cl3   S    
C84   C90   S    
C14   C88   S    
C69   H49   S    
C3    C99   A    
C75   C88   S    
C37   N7    A    
C54   C72   S    
C2    C98   A    
C92   H86   S    
C106  N18   A    
C82   H68   S    
N11   N12   A    
C3    N3    A    
C38   H42   S    
C3    H3    S    
C42   H20   S    
C11   N31   A    
C70   H52   S    
C63   C71   S    
C8    H102  S    
C37   C100  A    
C74   C82   S    
N23   N24   A    
C16   C111  A    
C112  H98   S    
C93   C103  A    
C27   C30   S    
N26   N29   A    
