data_mof_unit_1472.cif
_audit_creation_date              2013-03-05T16:11:32-0500
_audit_creation_method            fapswitch 2.2
_symmetry_space_group_name_H-M    P1
_symmetry_Int_Tables_number       1
_space_group_crystal_system       triclinic
_cell_length_a                    10.6796
_cell_length_b                    9.814588
_cell_length_c                    15.742679
_cell_angle_alpha                 90.15545
_cell_angle_beta                  90.166754
_cell_angle_gamma                 90.192913
_cell_volume                      1650.06019995

loop_
_atom_site_label
_atom_site_type_symbol
_atom_site_description
_atom_site_fract_x
_atom_site_fract_y
_atom_site_fract_z
_atom_type_partial_charge
O1    O     O_R   0.316750 0.614620 0.499990 -0.612656
O2    O     O_R   0.316750 0.385380 0.499990 -0.618327
C1    C     C_R   0.260862 0.499425 0.511918 0.867907
O3    O     O_R   0.499990 0.614720 0.377140 -0.614800
O4    O     O_R   0.499990 0.385280 0.377140 -0.615338
C2    C     C_R   0.499578 0.499818 0.338156 0.923580
Zn1   Zn    Zn3+2 0.499980 0.653120 0.500000 0.935007
Zn2   Zn    Zn3+2 0.499980 0.346880 0.500000 0.933654
O5    O     O_R   0.683220 0.614710 0.500000 -0.624748
O6    O     O_R   0.683220 0.385290 0.500000 -0.623446
O7    O     O_R   0.499980 0.614620 0.622860 -0.626236
O8    O     O_R   0.499980 0.385380 0.622860 -0.628408
C3    C     C_R   0.740562 0.500128 0.502682 0.895918
C4    C     C_R   0.499915 0.500234 0.661785 0.889244
C5    C     C_3   0.444398 0.639075 0.050780 -0.478742
C6    C     C_3   0.411987 0.385291 0.048437 -0.405902
C7    C     C_3   0.406674 0.390045 0.949839 -0.020306
C8    C     C_3   0.449867 0.646246 0.952077 0.004581
H1    H     H_    0.352219 0.661152 0.928814 0.129091
H2    H     H_    0.310022 0.420263 0.930888 0.139864
H3    H     H_    0.345669 0.651511 0.071962 0.154747
H4    H     H_    0.315472 0.395002 0.074303 0.151595
H5    H     H_    0.449616 0.286329 0.071480 0.181759
H6    H     H_    0.498844 0.723351 0.081015 0.174331
C9    C     C_1   0.499335 0.501352 0.750462 -0.215502
C10   C     C_3   0.496041 0.501432 0.082548 0.307261
C11   C     C_3   0.497896 0.504950 0.917170 0.278759
C12   C     C_3   0.631563 0.477294 0.951475 -0.410727
C13   C     C_3   0.631190 0.481849 0.049325 -0.409657
C14   C     C_1   0.498897 0.504091 0.825702 -0.097869
C15   C     C_1   0.496810 0.499846 0.173986 -0.098524
C16   C     C_1   0.498075 0.499470 0.249281 -0.203800
H7    H     H_    0.691967 0.567135 0.071717 0.171056
H8    H     H_    0.671454 0.385537 0.074542 0.168023
H9    H     H_    0.699674 0.552847 0.926401 0.171079
H10   H     H_    0.665203 0.376095 0.929600 0.162749
C17   C     C_R   0.061849 0.371079 0.534600 0.152967
C18   C     C_R   0.063199 0.621728 0.544252 0.140240
C19   C     C_R   0.934017 0.375206 0.522625 -0.247703
C20   C     C_R   0.935173 0.621409 0.532210 -0.221662
H11   H     H_    0.881886 0.280466 0.518328 0.161367
H12   H     H_    0.884276 0.716606 0.536551 0.166825
C21   C     C_R   0.872733 0.499527 0.516179 -0.100168
C22   C     C_R   0.128684 0.497140 0.532879 -0.121290
C23   C     C_R   0.559785 0.072503 0.562799 -0.076796
C24   C     C_R   0.559639 0.928450 0.562867 -0.081988
H13   H     H_    0.607782 0.127564 0.612883 0.126737
H14   H     H_    0.607440 0.874151 0.613037 0.127224
N1    N     N_R   0.499970 0.857200 0.499980 -0.073911
N2    N     N_R   0.499970 0.142800 0.499980 -0.074303
C25   C     C_R   0.440611 0.927538 0.437002 -0.074924
C26   C     C_R   0.440090 0.071547 0.437217 -0.091399
H15   H     H_    0.393132 0.872535 0.386692 0.127510
H16   H     H_    0.391880 0.125823 0.387235 0.127110
C27   C     C_3   0.430210 0.246217 0.910979 -0.386011
C28   C     C_3   0.322052 0.147788 0.928660 -0.921976
H17   H     H_    0.311601 0.129929 0.997858 0.259104
H18   H     H_    0.233053 0.188997 0.902817 0.258666
H19   H     H_    0.340704 0.048502 0.897300 0.259524
H20   H     H_    0.439994 0.252201 0.840944 0.219054
H21   H     H_    0.518091 0.201816 0.936538 0.208148
C29   C     C_3   0.525611 0.775500 0.925471 -0.384149
C30   C     C_3   0.514460 0.814475 0.831708 -0.882811
H22   H     H_    0.582302 0.756171 0.792937 0.268604
H23   H     H_    0.417720 0.797661 0.807720 0.259097
H24   H     H_    0.538014 0.924074 0.823967 0.239056
H25   H     H_    0.488520 0.863600 0.962122 0.204848
H26   H     H_    0.625838 0.766403 0.943189 0.207739
C31   C     C_3   0.119011 0.231203 0.550852 -0.381960
C32   C     C_3   0.180252 0.223368 0.638653 -0.824469
H27   H     H_    0.222558 0.121157 0.647507 0.241331
H28   H     H_    0.254794 0.301227 0.646547 0.268391
H29   H     H_    0.108700 0.239298 0.688750 0.240911
H30   H     H_    0.045763 0.150430 0.549234 0.185289
H31   H     H_    0.184660 0.200803 0.499945 0.223597
C33   C     C_3   0.122405 0.754539 0.573893 -0.370925
C34   C     C_3   0.133927 0.856539 0.501203 -0.843576
H32   H     H_    0.192614 0.943927 0.522073 0.244465
H33   H     H_    0.177940 0.808933 0.444721 0.270703
H34   H     H_    0.040005 0.895061 0.482830 0.235724
H35   H     H_    0.063183 0.800395 0.624390 0.181253
H36   H     H_    0.214348 0.738476 0.605149 0.219321

loop_
_geom_bond_atom_site_label_1
_geom_bond_atom_site_label_2
_geom_bond_distance
_ccdc_geom_bond_type
C5    C8    1.556895 S    
C2    C16   1.399164 S    
C27   C28   1.529947 S    
C30   H23   1.110612 S    
C17   C31   1.526248 S    
C19   H11   1.084019 S    
C18   C33   1.518568 S    
C34   H32   1.109070 S    
Zn1   O7    1.971714 S    
C24   N1    1.365564 A    
C29   H25   1.112832 S    
C12   C13   1.540978 S    
O4    C2    1.282235 A    
O7    C4    1.280461 A    
C13   H7    1.113376 S    
C7    H2    1.114962 S    
C28   H17   1.109743 S    
C8    H1    1.114514 S    
C23   H13   1.081618 S    
O5    C3    1.283047 A    
C20   C21   1.389721 A    
C12   H9    1.111038 S    
C6    C7    1.553912 S    
N1    C25   1.365429 A    
N2    C26   1.365220 A    
C32   H27   1.110555 S    
C7    C27   1.558429 S    
C20   H12   1.084602 S    
C30   H24   1.110976 S    
C10   C15   1.439605 S    
C27   H20   1.109470 S    
C11   C14   1.440019 S    
O3    Zn1   1.969519 S    
C26   H16   1.081546 S    
C34   H33   1.109750 S    
C6    C10   1.542873 S    
C24   H14   1.081753 S    
C1    C22   1.450704 S    
C25   C26   1.413409 A    
C7    C11   1.576095 S    
C33   C34   1.527427 S    
Zn1   N1    2.002962 S    
O3    C2    1.282421 A    
C33   H36   1.108951 S    
C8    C29   1.561085 S    
C5    C10   1.544784 S    
C19   C21   1.390359 A    
C23   C24   1.413822 A    
C13   H8    1.113456 S    
C25   H15   1.081356 S    
C18   C22   1.421847 A    
C29   C30   1.530258 S    
C15   C16   1.185395 T    
Zn2   O8    1.969702 S    
C32   H29   1.110847 S    
C31   H30   1.112042 S    
C5    H6    1.114365 S    
O8    C4    1.281576 A    
C6    H5    1.113620 S    
Zn2   N2    2.002960 S    
C3    C21   1.426850 S    
C34   H34   1.110928 S    
C9    C14   1.184731 T    
Zn1   O5    1.994156 S    
C6    H4    1.113649 S    
O1    Zn1   1.991721 S    
O2    Zn2   1.994219 S    
C8    C11   1.578127 S    
O6    C3    1.281441 A    
C33   H35   1.112402 S    
O4    Zn2   1.971526 S    
C28   H19   1.110058 S    
C29   H26   1.109290 S    
C17   C22   1.426645 A    
O2    C1    1.283886 A    
C17   C19   1.378347 A    
C18   C20   1.379794 A    
C23   N2    1.365682 A    
C27   H21   1.110926 S    
C28   H18   1.110735 S    
C31   H31   1.107345 S    
C4    C9    1.396070 S    
C31   C32   1.529656 S    
C30   H22   1.108336 S    
C5    H3    1.113784 S    
C12   H10   1.111491 S    
C10   C13   1.549015 S    
Zn2   O6    1.991663 S    
C11   C12   1.549844 S    
C32   H28   1.108118 S    
O1    C1    1.291127 A    
