data_mof_unit_3265.cif
_audit_creation_date              2012-12-10T18:21:20-0500
_audit_creation_method            fapswitch 2.2
_symmetry_space_group_name_H-M    P1
_symmetry_Int_Tables_number       1
_space_group_crystal_system       triclinic
_cell_length_a                    15.033294
_cell_length_b                    14.209277
_cell_length_c                    11.043476
_cell_angle_alpha                 88.32902
_cell_angle_beta                  88.228633
_cell_angle_gamma                 93.128491
_cell_volume                      2353.25543006

loop_
_atom_site_label
_atom_site_type_symbol
_atom_type_description
_atom_site_fract_x
_atom_site_fract_y
_atom_site_fract_z
_atom_type_partial_charge
C1    C     C_R   0.326056 0.498010 0.492115 0.982996
C2    C     C_3   0.592551 0.542575 0.914854 0.560731
C3    C     C_R   0.819212 0.558005 0.402096 0.472274
C4    C     C_R   0.771463 0.512472 0.502442 -0.282717
C5    C     C_R   0.817360 0.489890 0.608653 0.358014
C6    C     C_R   0.907243 0.520934 0.616694 0.042432
C7    C     C_R   0.956446 0.543703 0.508517 -0.151045
C8    C     C_R   0.912792 0.562267 0.399836 -0.069567
C9    C     C_R   0.950760 0.527429 0.728400 -0.053221
C10   C     C_R   0.044647 0.538818 0.727943 -0.105665
C11   C     C_R   0.092967 0.526625 0.617998 0.041829
C12   C     C_R   0.506988 0.501124 0.257343 0.947672
C13   C     C_R   0.049275 0.540339 0.508136 0.041257
C14   C     C_R   0.096510 0.539581 0.396783 -0.124026
C15   C     C_R   0.056047 0.571406 0.289875 0.371392
C16   C     C_R   0.963845 0.584336 0.291768 0.488148
C17   C     C_R   0.182888 0.501955 0.613566 -0.075249
C18   C     C_R   0.227507 0.495237 0.500217 -0.204035
C19   C     C_R   0.177806 0.495537 0.394347 -0.169637
C20   C     C_R   0.574574 0.803363 0.458104 0.523834
C21   C     C_R   0.572480 0.206768 0.451792 0.530110
C22   C     C_R   0.431632 0.795381 0.555667 -0.019265
C23   C     C_R   0.431668 0.194947 0.555041 -0.040905
C24   C     C_R   0.438685 0.894418 0.575866 -0.095022
C25   C     C_R   0.437319 0.095267 0.574172 -0.101986
C26   C     C_R   0.673749 0.502722 0.503046 0.888220
C27   C     C_R   0.509980 0.949871 0.520343 0.049230
C28   C     C_R   0.509606 0.050656 0.520041 0.049978
C29   C     C_R   0.581051 0.904297 0.465018 -0.044686
C30   C     C_R   0.580292 0.106779 0.463542 -0.056754
C31   C     C_R   0.376892 0.939586 0.651631 -0.081404
C32   C     C_R   0.374287 0.038750 0.648105 -0.064803
C33   C     C_R   0.656356 0.061101 0.419073 -0.111245
C34   C     C_R   0.656468 0.961107 0.418763 -0.118161
C35   C     C_R   0.496451 0.498785 0.742367 1.119959
C36   C     C_3   0.440704 0.577659 0.071081 0.190743
C37   C     C_3   0.479432 0.393722 0.075331 0.127444
C38   C     C_3   0.418710 0.554658 0.936754 0.600293
C39   C     C_3   0.489042 0.392415 0.931532 0.618659
C40   C     C_3   0.606900 0.528312 0.057693 -0.242952
C41   C     C_3   0.508007 0.501100 0.119303 -0.347992
C42   C     C_3   0.498299 0.497523 0.879148 -0.180713
N1    N     N_R   0.500070 0.750030 0.500050 -0.199465
N2    N     N_R   0.500070 0.249970 0.500050 -0.197720
O1    O     O_R   0.367860 0.580280 0.500020 -0.614776
O2    O     O_R   0.367860 0.419720 0.500020 -0.566891
O3    O     O_R   0.500000 0.580270 0.314790 -0.592008
O4    O     O_R   0.500000 0.419730 0.314790 -0.577355
O5    O     O_R   0.632160 0.580270 0.499960 -0.643562
O6    O     O_R   0.632160 0.419730 0.499960 -0.603778
O7    O     O_R   0.500030 0.580270 0.685200 -0.621567
O8    O     O_R   0.500030 0.419730 0.685200 -0.587157
Zn1   Zn    Zn3+2 0.500020 0.607200 0.499990 1.037337
Zn2   Zn    Zn3+2 0.500020 0.392800 0.499990 1.068501
O9    O     O_3   0.483319 0.668439 0.070386 -0.654970
H1    H     H_    0.440744 0.717268 0.050293 0.399874
O10   O     O_3   0.540438 0.330282 0.121836 -0.699301
H2    H     H_    0.525200 0.265796 0.093122 0.369770
C43   C     C_2   0.091284 0.576186 0.835313 0.941377
O11   O     O_2   0.070408 0.545901 0.937522 -0.516433
O12   O     O_R   0.160380 0.645665 0.818176 -0.770957
H3    H     H_    0.186894 0.665932 0.897241 0.365573
C44   C     C_2   0.223290 0.459393 0.720856 0.960118
O13   O     O_2   0.303735 0.465365 0.729600 -0.521829
O14   O     O_R   0.170589 0.404523 0.805847 -0.774153
H4    H     H_    0.206516 0.376049 0.872329 0.409638
C45   C     C_2   0.183266 0.413147 0.314376 1.066356
O15   O     O_2   0.237219 0.354033 0.333949 -0.545871
O16   O     O_R   0.121704 0.398245 0.223337 -0.719559
H5    H     H_    0.126165 0.335088 0.184085 0.353339
O17   O     O_3   0.104242 0.589454 0.182600 -0.690782
H6    H     H_    0.167715 0.599093 0.200785 0.364090
O18   O     O_3   0.921836 0.612730 0.188044 -0.643794
H7    H     H_    0.965858 0.629377 0.121414 0.403226
O19   O     O_3   0.642957 0.759224 0.404423 -0.743836
H8    H     H_    0.615681 0.701235 0.373291 0.395640
O20   O     O_3   0.635774 0.259027 0.383082 -0.731453
H9    H     H_    0.605388 0.310081 0.342925 0.415241
C46   C     C_2   0.343819 0.745934 0.576778 1.006020
O21   O     O_2   0.329256 0.694312 0.666269 -0.515353
O22   O     O_R   0.275948 0.761795 0.496211 -0.775578
H10   H     H_    0.218241 0.724747 0.520340 0.354628
C47   C     C_2   0.345539 0.235696 0.573619 1.011394
O23   O     O_2   0.287692 0.222044 0.499824 -0.528740
O24   O     O_R   0.326400 0.279671 0.681262 -0.728992
H11   H     H_    0.259918 0.284051 0.694359 0.358067
C48   C     C_2   0.324338 0.885628 0.749515 0.937424
O25   O     O_2   0.363020 0.845359 0.830027 -0.572677
O26   O     O_R   0.231224 0.881933 0.749865 -0.716112
H12   H     H_    0.203270 0.844190 0.821909 0.375591
C49   C     C_2   0.313468 0.081103 0.736886 0.925117
O27   O     O_2   0.233648 0.081268 0.718627 -0.529308
O28   O     O_R   0.347483 0.117273 0.843238 -0.785838
H13   H     H_    0.299470 0.142565 0.897871 0.363573
C50   C     C_2   0.739848 0.116354 0.381377 1.029029
O29   O     O_2   0.782482 0.159099 0.456908 -0.555628
O30   O     O_R   0.768947 0.119798 0.259837 -0.717562
H14   H     H_    0.826262 0.160094 0.245477 0.366773
C51   C     C_2   0.738962 0.917792 0.376114 1.040609
O31   O     O_2   0.758805 0.918519 0.267880 -0.540283
O32   O     O_R   0.793182 0.875694 0.460282 -0.731942
H15   H     H_    0.846901 0.847610 0.420488 0.366976
C52   C     C_2   0.357845 0.582914 0.155022 0.859563
O33   O     O_2   0.305075 0.515618 0.169758 -0.671205
O34   O     O_R   0.345442 0.664182 0.221197 -0.729963
H16   H     H_    0.293962 0.656620 0.282598 0.344867
C53   C     C_2   0.388063 0.351217 0.127204 1.000359
O35   O     O_2   0.385708 0.306964 0.224102 -0.528579
O36   O     O_R   0.310421 0.349108 0.060809 -0.709781
H17   H     H_    0.261156 0.305376 0.098524 0.352465
O37   O     O_3   0.339781 0.497902 0.938475 -0.650791
H18   H     H_    0.288202 0.538540 0.945452 0.392344
O38   O     O_3   0.414892 0.344362 0.881510 -0.659776
H19   H     H_    0.416755 0.276858 0.906444 0.359739
O39   O     O_3   0.401662 0.637114 0.868090 -0.686721
H20   H     H_    0.455596 0.679166 0.855902 0.407573
O40   O     O_3   0.566874 0.345726 0.898083 -0.668520
H21   H     H_    0.556036 0.306155 0.826903 0.375249
C54   C     C_2   0.659256 0.618374 0.095855 1.059514
O41   O     O_2   0.735158 0.635039 0.054082 -0.529402
O42   O     O_R   0.623125 0.684509 0.170019 -0.724626
H22   H     H_    0.662983 0.744288 0.173327 0.395406
C55   C     C_2   0.672115 0.452197 0.093146 1.027754
O43   O     O_2   0.707808 0.403507 0.018476 -0.452711
O44   O     O_R   0.690967 0.437928 0.215078 -0.833968
H23   H     H_    0.736621 0.388950 0.228088 0.378976
O45   O     O_3   0.596817 0.640368 0.883500 -0.751590
H24   H     H_    0.622058 0.651121 0.799776 0.376250
O46   O     O_3   0.659357 0.500971 0.846549 -0.715933
H25   H     H_    0.715651 0.538112 0.859133 0.397732
O47   O     O_3   0.777719 0.596517 0.304299 -0.655308
H26   H     H_    0.712807 0.588970 0.315356 0.347532
O48   O     O_3   0.779398 0.433149 0.702022 -0.682761
H27   H     H_    0.724961 0.399144 0.674566 0.389215
C56   C     C_2   0.899241 0.540276 0.841881 1.022312
O49   O     O_2   0.865656 0.615402 0.858605 -0.585958
O50   O     O_R   0.894259 0.469135 0.932194 -0.666470
H28   H     H_    0.863835 0.489459 0.009487 0.382998

loop_
_geom_bond_atom_site_label_1
_geom_bond_atom_site_label_2
_ccdc_geom_bond_type
C48   O25   D    
C44   O14   S    
O28   H13   S    
C27   C29   A    
C50   O29   D    
O18   H7    S    
O37   H18   S    
C24   C27   A    
C12   O4    A    
C6    C9    A    
O30   H14   S    
C55   O43   D    
O20   H9    S    
C25   C28   A    
O4    Zn2   S    
C1    C18   S    
O6    Zn2   S    
C23   C47   S    
C36   C52   S    
C3    O47   S    
C22   C46   S    
C37   C53   S    
C26   O6    A    
C5    C6    A    
C1    O2    A    
C55   O44   S    
C32   C49   S    
C15   C16   A    
C2    O46   S    
C18   C19   A    
C38   O37   S    
C35   C42   S    
N1    Zn1   S    
C22   N1    A    
C39   O38   S    
C53   O35   D    
C19   C45   S    
C9    C10   A    
O3    Zn1   S    
C2    O45   S    
C25   C32   A    
C56   O49   D    
O50   H28   S    
O1    Zn1   S    
C43   O11   D    
C8    C16   A    
C13   C14   A    
C53   O36   S    
C36   C41   S    
O12   H3    S    
C12   O3    A    
C33   C50   S    
O8    Zn2   S    
C17   C18   A    
C39   C42   S    
C20   C29   A    
C54   O42   S    
C43   O12   S    
C31   C48   S    
C45   O15   D    
O32   H15   S    
C7    C8    A    
C46   O21   D    
C3    C8    A    
C26   O5    A    
C49   O27   D    
C46   O22   S    
O24   H11   S    
C29   C34   A    
O22   H10   S    
C23   N2    A    
C16   O18   S    
C20   O19   S    
C45   O16   S    
C5    O48   S    
O19   H8    S    
C12   C41   S    
C2    C40   S    
C49   O28   S    
C21   N2    A    
C31   C32   A    
O39   H20   S    
O2    Zn2   S    
O9    H1    S    
C34   C51   S    
C52   O34   S    
O42   H22   S    
C9    C56   S    
C40   C41   S    
C51   O32   S    
C48   O26   S    
C35   O7    A    
O48   H27   S    
C22   C24   A    
C47   O23   D    
C3    C4    A    
C52   O33   D    
C20   N1    A    
O38   H19   S    
C21   C30   A    
C56   O50   S    
C40   C55   S    
C11   C17   A    
C30   C33   A    
C47   O24   S    
C14   C19   A    
C4    C5    A    
C4    C26   S    
C54   O41   D    
C50   O30   S    
C38   C42   S    
C6    C7    A    
C15   O17   S    
O34   H16   S    
O40   H21   S    
C51   O31   D    
C28   C30   A    
C10   C43   S    
O46   H25   S    
C24   C31   A    
O17   H6    S    
C37   C39   S    
C36   O9    S    
C39   O40   S    
O47   H26   S    
C17   C44   S    
C38   O39   S    
C11   C13   A    
C1    O1    A    
O10   H2    S    
O44   H23   S    
C2    C42   S    
O5    Zn1   S    
C36   C38   S    
C33   C34   A    
C23   C25   A    
C37   C41   S    
O16   H5    S    
C10   C11   A    
C44   O13   D    
N2    Zn2   S    
C7    C13   A    
C40   C54   S    
O14   H4    S    
C21   O20   S    
C35   O8    A    
C14   C15   A    
O7    Zn1   S    
O26   H12   S    
O36   H17   S    
C37   O10   S    
O45   H24   S    
C27   C28   A    
