data_mof_unit_2245.cif
_audit_creation_date              2012-12-11T15:32:11-0500
_audit_creation_method            fapswitch 2.2
_symmetry_space_group_name_H-M    P1
_symmetry_Int_Tables_number       1
_space_group_crystal_system       triclinic
_cell_length_a                    13.500435
_cell_length_b                    13.603797
_cell_length_c                    27.697245
_cell_angle_alpha                 90.465495
_cell_angle_beta                  90.100106
_cell_angle_gamma                 119.869904
_cell_volume                      4410.81581227

loop_
_atom_site_label
_atom_site_type_symbol
_atom_type_description
_atom_site_fract_x
_atom_site_fract_y
_atom_site_fract_z
_atom_type_partial_charge
C1    C     C_R   0.619873 0.898480 0.431306 0.563809
C2    C     C_R   0.108070 0.874829 0.267880 -0.010905
C3    C     C_R   0.097691 0.873232 0.217037 0.209626
C4    C     C_R   0.600464 0.219717 0.431746 0.539774
C5    C     C_R   0.238540 0.810740 0.208343 0.027151
C6    C     C_R   0.251231 0.814973 0.259203 0.275551
C7    C     C_R   0.185507 0.845444 0.288806 0.011241
C8    C     C_R   0.160780 0.839427 0.187564 -0.003325
C9    C     C_1   0.133787 0.820547 0.136378 0.046081
C10   C     C_1   0.205977 0.853733 0.340521 0.104744
C11   C     C_1   0.101888 0.797614 0.094958 0.060044
C12   C     C_R   0.633269 0.286081 0.210061 -0.076947
C13   C     C_1   0.635992 0.866500 0.383727 0.044899
C14   C     C_R   0.664065 0.744581 0.271841 -0.087675
C15   C     C_R   0.668840 0.731920 0.221864 -0.109496
C16   C     C_R   0.279466 0.878917 0.430523 0.561053
C17   C     C_R   0.649509 0.898019 0.209007 0.297306
C18   C     C_R   0.644839 0.910366 0.259031 -0.009625
C19   C     C_R   0.652315 0.834074 0.290520 0.019922
C20   C     C_R   0.661875 0.808443 0.190250 0.079187
C21   C     C_1   0.675050 0.797501 0.139161 0.057309
C22   C     C_1   0.645166 0.848054 0.341778 0.009494
C23   C     C_R   0.614789 0.254544 0.258630 -0.009496
C24   C     C_1   0.692523 0.786867 0.097282 0.054158
C25   C     C_R   0.636790 0.275254 0.616322 -0.016940
C26   C     C_R   0.752657 0.355544 0.627225 -0.021253
C27   C     C_R   0.784270 0.390974 0.676037 0.036229
C28   C     C_R   0.621865 0.899976 0.568489 0.567175
C29   C     C_R   0.702874 0.333726 0.712324 -0.056812
C30   C     C_R   0.592358 0.249340 0.700715 -0.053592
C31   C     C_R   0.556441 0.227885 0.653637 0.244525
C32   C     C_R   0.648598 0.413802 0.779691 0.280391
C33   C     C_R   0.625714 0.409126 0.829049 -0.002761
C34   C     C_R   0.675896 0.337269 0.294705 0.007841
C35   C     C_R   0.762715 0.343087 0.844055 0.002654
C36   C     C_R   0.773316 0.335574 0.794173 -0.111871
C37   C     C_R   0.718234 0.371934 0.762449 -0.025769
C38   C     C_R   0.691403 0.383945 0.861939 -0.091629
C39   C     C_R   0.244888 0.869738 0.617901 0.086204
C40   C     C_R   0.601497 0.222924 0.568559 0.529638
C41   C     C_R   0.140932 0.858911 0.633212 0.270340
C42   C     C_R   0.117094 0.850505 0.682598 0.018254
C43   C     C_R   0.197895 0.855460 0.716007 0.068030
C44   C     C_R   0.302659 0.870336 0.700376 -0.034050
C45   C     C_R   0.710397 0.397315 0.196895 -0.011091
C46   C     C_R   0.324912 0.874987 0.651621 -0.087308
C47   C     C_R   0.165833 0.745059 0.790034 0.243913
C48   C     C_R   0.142743 0.727791 0.839139 0.261754
C49   C     C_R   0.128073 0.900324 0.843702 -0.063108
C50   C     C_R   0.159882 0.921861 0.794645 -0.025117
C51   C     C_R   0.172513 0.840354 0.767625 -0.019487
C52   C     C_R   0.278983 0.880940 0.567848 0.598071
C53   C     C_R   0.112422 0.798850 0.865347 -0.040792
C54   C     C_R   0.643824 0.859325 0.614276 -0.025069
C55   C     C_R   0.548774 0.775516 0.638948 -0.123472
C56   C     C_1   0.718742 0.424100 0.146287 0.030300
C57   C     C_R   0.555989 0.753037 0.687394 -0.037756
C58   C     C_R   0.660761 0.817904 0.711876 -0.012571
C59   C     C_R   0.759447 0.895894 0.686711 0.202446
C60   C     C_R   0.752438 0.913713 0.637180 0.018865
C61   C     C_R   0.730622 0.747156 0.777179 0.025719
C62   C     C_R   0.745333 0.732879 0.825872 0.056366
C63   C     C_R   0.632262 0.822305 0.846796 -0.089633
C64   C     C_1   0.635291 0.272528 0.385726 0.033024
C65   C     C_R   0.619852 0.837319 0.797910 -0.098823
C66   C     C_R   0.669834 0.800270 0.763284 0.023771
C67   C     C_1   0.656958 0.306303 0.344954 0.014465
C68   C     C_R   0.694834 0.770603 0.860907 0.043514
C69   C     C_R   0.049809 0.761363 0.048104 0.543064
C70   C     C_R   0.734059 0.483828 0.055203 0.558478
C71   C     C_R   0.723452 0.770541 0.049601 0.549636
C72   C     C_R   0.047682 0.757518 0.911156 0.542515
C73   C     C_R   0.707740 0.429632 0.911646 0.504641
C74   C     C_R   0.717835 0.764635 0.911667 0.516090
C75   C     C_R   0.754408 0.449775 0.281881 0.205894
C76   C     C_R   0.772675 0.480853 0.232710 0.029134
C77   C     C_2   0.837467 0.400342 0.587510 0.322294
C78   C     C_1   0.725427 0.448999 0.104338 0.052107
C79   C     C_2   0.528536 0.423353 0.845490 0.324927
C80   C     C_2   0.896429 0.490171 0.689895 0.351362
C81   C     C_2   0.820814 0.301516 0.876872 0.296010
C82   C     C_2   0.855483 0.600328 0.219815 0.257805
C83   C     C_2   0.184036 0.030924 0.772230 0.290606
C84   C     C_2   0.119561 0.987201 0.873435 0.253269
C85   C     C_2   0.814855 0.680153 0.839376 0.253106
C86   C     C_2   0.453470 0.662031 0.711872 0.317891
C87   C     C_2   0.859034 0.986810 0.610158 0.347568
C88   C     C_2   0.530521 0.135175 0.271032 0.247842
C89   C     C_1   0.232556 0.862920 0.382654 0.089333
C90   C     C_2   0.036760 0.906605 0.298171 0.269714
C91   C     C_2   0.305840 0.777623 0.176126 0.333622
Cl1   Cl    Cl    0.831020 0.550815 0.328042 -0.570033
Cl2   Cl    Cl    0.353219 0.786983 0.286867 -0.531594
Cl3   Cl    Cl    0.640852 0.996480 0.170914 -0.548998
Cl4   Cl    Cl    0.582118 0.461976 0.737933 -0.510638
Cl5   Cl    Cl    0.408127 0.142074 0.644467 -0.496063
Cl6   Cl    Cl    0.039018 0.851962 0.591678 -0.466350
Cl7   Cl    Cl    0.180387 0.641993 0.755929 -0.470326
Cl8   Cl    Cl    0.154968 0.616416 0.866295 -0.435865
Cl9   Cl    Cl    0.892283 0.971519 0.717674 -0.600416
Cl10  Cl    Cl    0.999917 0.907407 0.189521 -0.599635
Cr1   Cr    Cr6+3 0.417720 0.831920 0.499820 1.098505
Cr2   Cr    Cr6+3 0.668190 0.085770 0.500360 1.093910
Cr3   Cr    Cr6+3 0.414060 0.082260 0.499840 1.133810
Cr4   Cr    Cr6+3 0.908000 0.821090 0.979770 1.083240
Cr5   Cr    Cr6+3 0.912420 0.571130 0.979880 1.102938
Cr6   Cr    Cr6+3 0.657970 0.566940 0.980940 1.057284
H1    H     H_    0.678951 0.662908 0.207813 0.129555
H2    H     H_    0.768052 0.718752 0.749666 0.203781
H3    H     H_    0.572588 0.878626 0.786986 0.118769
H4    H     H_    0.595229 0.852766 0.873550 0.125677
H5    H     H_    0.669762 0.684967 0.295780 0.164032
H6    H     H_    0.810948 0.408921 0.551517 0.115672
H7    H     H_    0.469330 0.365456 0.871881 0.127296
H8    H     H_    0.931711 0.495130 0.725622 0.164284
H9    H     H_    0.797803 0.286807 0.914691 0.116737
H10   H     H_    0.881337 0.667760 0.246361 0.176274
H11   H     H_    0.133768 0.070305 0.781239 0.219496
H12   H     H_    0.635270 0.979512 0.273379 0.160327
H13   H     H_    0.164970 0.014347 0.907668 0.113155
H14   H     H_    0.820268 0.659436 0.876524 0.132880
H15   H     H_    0.457223 0.642030 0.749401 0.179428
H16   H     H_    0.930314 0.059105 0.627647 0.181216
H17   H     H_    0.516924 0.107411 0.308229 0.103974
H18   H     H_    0.001031 0.955551 0.283066 0.172149
H19   H     H_    0.321090 0.805659 0.138944 0.104871
H20   H     H_    0.821143 0.297543 0.779688 0.184767
H21   H     H_    0.529719 0.208490 0.729012 0.183661
H22   H     H_    0.035856 0.838873 0.694943 0.182015
H23   H     H_    0.366016 0.875777 0.726010 0.130718
H24   H     H_    0.406429 0.885890 0.640074 0.111043
H25   H     H_    0.466478 0.730522 0.620938 0.196926
H26   H     H_    0.586205 0.223778 0.182013 0.198774
O1    O     O_R   0.302900 0.805360 0.446400 -0.477687
O2    O     O_R   0.638120 0.455970 0.034270 -0.500335
O3    O     O_R   0.667540 0.672320 0.030160 -0.511804
O4    O     O_R   0.522090 0.841370 0.450730 -0.484143
O5    O     O_R   0.814460 0.840990 0.926980 -0.475852
O6    O     O_R   0.001710 0.811400 0.930110 -0.517101
O7    O     O_R   0.023410 0.659800 0.926210 -0.435148
O8    O     O_R   0.806940 0.473170 0.931090 -0.486016
O9    O     O_R   0.633420 0.451310 0.927930 -0.523784
O10   O     O_R   0.663190 0.668000 0.931580 -0.492511
O11   O     O_3   0.826130 0.653050 0.980200 -0.302488
O12   O     O_R   0.657980 0.180990 0.549630 -0.518908
O13   O     O_R   0.693280 0.995650 0.447220 -0.483813
O14   O     O_R   0.657260 0.178740 0.451050 -0.495680
O15   O     O_R   0.502640 0.195380 0.446850 -0.500767
O16   O     O_R   0.319630 0.976590 0.450330 -0.495240
O17   O     O_R   0.303680 0.807790 0.552740 -0.500058
O18   O     O_R   0.522820 0.843620 0.549310 -0.513592
O19   O     O_R   0.694060 0.998080 0.553560 -0.468138
O20   O     O_2   0.936120 0.422965 0.593975 -0.413432
O21   O     O_2   0.514691 0.500013 0.830763 -0.443429
O22   O     O_2   0.947671 0.569953 0.662725 -0.419217
O23   O     O_R   0.503420 0.197810 0.553190 -0.432080
O24   O     O_2   0.894333 0.281855 0.861933 -0.423555
O25   O     O_2   0.897159 0.625292 0.179634 -0.502455
O26   O     O_2   0.262669 0.079537 0.743954 -0.445072
O27   O     O_2   0.057097 0.023831 0.861452 -0.454817
O28   O     O_2   0.866828 0.658532 0.808952 -0.523073
O29   O     O_2   0.363163 0.606807 0.690118 -0.397225
O30   O     O_2   0.870070 0.964129 0.568469 -0.410806
O31   O     O_2   0.474577 0.065816 0.239639 -0.469442
O32   O     O_2   0.014457 0.876531 0.340056 -0.459958
O33   O     O_2   0.342187 0.716454 0.189860 -0.413810
O34   O     O_R   0.320350 0.978840 0.548910 -0.441910
O35   O     O_3   0.499990 0.999990 0.500010 -0.292201
O36   O     O_R   0.819150 0.845650 0.033320 -0.471950
O37   O     O_R   0.006060 0.815720 0.028680 -0.486057
O38   O     O_R   0.028100 0.664460 0.032550 -0.499213
O39   O     O_R   0.811290 0.477490 0.029660 -0.479853

loop_
_geom_bond_atom_site_label_1
_geom_bond_atom_site_label_2
_ccdc_geom_bond_type
C25   C31   A    
C7    C10   S    
C87   O30   D    
C74   O10   A    
C63   C65   A    
C75   C76   A    
C91   H19   S    
C70   C78   S    
C85   O28   D    
C41   C42   A    
Cr3   O15   S    
C91   O33   D    
C2    C7    A    
C88   H17   S    
C61   H2    S    
Cr4   O11   S    
C84   O27   D    
Cr2   O14   S    
C39   C41   A    
C73   O8    A    
C14   H5    S    
C74   O5    A    
C12   C23   A    
C26   C27   A    
Cr6   O3    S    
C47   Cl7   S    
Cr4   O36   S    
C40   O12   A    
Cr5   O8    S    
C45   C76   A    
C83   H11   S    
C36   C37   A    
C52   O34   A    
C30   C31   A    
C82   O25   D    
C27   C29   A    
C68   C74   S    
C31   Cl5   S    
C4    O15   A    
C17   C20   A    
C56   C78   T    
C57   C86   S    
C18   C19   A    
C69   O38   A    
C2    C90   S    
C70   O39   A    
Cr6   O2    S    
C77   O20   D    
Cr4   O5    S    
C63   C68   A    
C61   C66   A    
C58   C66   S    
C72   O6    A    
C35   C36   A    
C10   C89   T    
C8    C9    S    
C86   H15   S    
C71   O36   A    
C85   H14   S    
C16   O16   A    
C86   O29   D    
C15   H1    S    
C34   C75   A    
C3    Cl10  S    
C39   C52   S    
C16   O1    A    
C59   C60   A    
C59   Cl9   S    
C1    O13   A    
C15   C20   A    
C77   H6    S    
C60   C87   S    
C44   C46   A    
C50   C83   S    
C50   C51   A    
C73   O9    A    
C35   C81   S    
C48   C53   A    
C62   C85   S    
C30   H21   S    
C26   C77   S    
C81   O24   D    
Cr4   O37   S    
C64   C67   T    
C19   C22   S    
C45   C56   S    
C3    C8    A    
C76   C82   S    
C46   H24   S    
C28   C54   S    
C33   C79   S    
C54   C60   A    
C25   C26   A    
C88   O31   D    
C4    O14   A    
Cr1   O4    S    
Cr3   O16   S    
C43   C44   A    
Cr1   O1    S    
C29   C30   A    
Cr4   O6    S    
Cr5   O7    S    
C47   C48   A    
C80   H8    S    
C72   O7    A    
C84   H13   S    
C6    Cl2   S    
C35   C38   A    
C17   C18   A    
C32   C37   A    
Cr3   O23   S    
Cr6   O9    S    
Cr5   O11   S    
C9    C11   T    
C5    C91   S    
Cr2   O19   S    
Cr1   O17   S    
C39   C46   A    
C75   Cl1   S    
C27   C80   S    
C12   H26   S    
C55   C57   A    
C90   O32   D    
C70   O2    A    
C49   C50   A    
C41   Cl6   S    
C21   C24   T    
C36   H20   S    
C1    C13   S    
C42   C43   A    
Cr6   O10   S    
Cr5   O38   S    
C71   O3    A    
C1    O4    A    
Cr2   O12   S    
C80   O22   D    
C49   C84   S    
C48   Cl8   S    
C4    C64   S    
C54   C55   A    
C23   C34   A    
Cr1   O35   S    
Cr5   O39   S    
C14   C19   A    
C12   C45   A    
C34   C67   S    
C5    C8    A    
C47   C51   A    
Cr3   O35   S    
C11   C69   S    
C28   O19   A    
C6    C7    A    
Cr1   O18   S    
C33   C38   A    
C62   C68   A    
C23   C88   S    
C32   C33   A    
C2    C3    A    
C58   C59   A    
C25   C40   S    
Cr3   O34   S    
C87   H16   S    
C43   C51   S    
C57   C58   A    
C5    C6    A    
Cr2   O35   S    
C49   C53   A    
C81   H9    S    
C90   H18   S    
C13   C22   T    
C42   H22   S    
C69   O37   A    
C65   C66   A    
C63   H4    S    
C61   C62   A    
C65   H3    S    
C16   C89   S    
C32   Cl4   S    
C83   O26   D    
C20   C21   S    
C24   C71   S    
C28   O18   A    
C52   O17   A    
C55   H25   S    
C79   H7    S    
C29   C37   S    
C14   C15   A    
C40   O23   A    
C17   Cl3   S    
C82   H10   S    
Cr6   O11   S    
C53   C72   S    
C44   H23   S    
C18   H12   S    
Cr2   O13   S    
C79   O21   D    
C38   C73   S    
