data_mof_unit_3699.cif
_audit_creation_date              2013-03-05T16:30:28-0500
_audit_creation_method            fapswitch 2.2
_symmetry_space_group_name_H-M    P1
_symmetry_Int_Tables_number       1
_space_group_crystal_system       triclinic
_cell_length_a                    8.621798
_cell_length_b                    14.79933
_cell_length_c                    14.161466
_cell_angle_alpha                 90.059966
_cell_angle_beta                  97.760219
_cell_angle_gamma                 89.985271
_cell_volume                      1790.40880058

loop_
_atom_site_label
_atom_site_type_symbol
_atom_site_description
_atom_site_fract_x
_atom_site_fract_y
_atom_site_fract_z
_atom_type_partial_charge
O1    O     O_R   0.500010 0.369070 0.579480 -0.626540
O2    O     O_R   0.499990 0.630930 0.420520 -0.606884
O3    O     O_R   0.500010 0.369060 0.420520 -0.613425
O4    O     O_R   0.499990 0.630940 0.579480 -0.636239
C1    C     C_R   0.504150 0.327135 0.500265 0.887902
C2    C     C_R   0.504252 0.672870 0.500447 0.887013
O5    O     O_R   0.271750 0.500000 0.560890 -0.619389
O6    O     O_R   0.728250 0.500000 0.439110 -0.635789
O7    O     O_R   0.271750 0.499990 0.401930 -0.620725
O8    O     O_R   0.728250 0.500010 0.598070 -0.603228
C3    C     C_R   0.201913 0.497987 0.476172 0.969672
C4    C     C_R   0.798081 0.501924 0.523855 0.963170
Zn1   Zn    Zn3+2 0.500000 0.500010 0.606140 0.965012
Zn2   Zn    Zn3+2 0.500000 0.499990 0.393860 0.970384
C5    C     C_2   0.040615 0.480551 0.467612 -0.035757
C6    C     C_2   0.959431 0.519089 0.532602 -0.029323
C7    C     C_R   0.520680 0.087736 0.579117 -0.109267
C8    C     C_R   0.521822 0.912341 0.424611 -0.116953
H1    H     H_    0.474888 0.046509 0.632223 0.178174
H2    H     H_    0.476766 0.953596 0.363841 0.176737
C9    C     C_R   0.486446 0.178866 0.575196 -0.149189
C10   C     C_R   0.487658 0.821203 0.422671 -0.152876
H3    H     H_    0.419421 0.207908 0.627169 0.177882
H4    H     H_    0.421370 0.792210 0.359417 0.179608
C11   C     C_R   0.534198 0.231304 0.502639 -0.100089
C12   C     C_R   0.534485 0.768700 0.503157 -0.096220
C13   C     C_R   0.623012 0.193618 0.436647 -0.246875
C14   C     C_R   0.622327 0.806359 0.584116 -0.259296
H5    H     H_    0.665309 0.235951 0.383183 0.200237
H6    H     H_    0.664049 0.763994 0.644614 0.186152
C15   C     C_R   0.662354 0.102298 0.441391 0.325826
C16   C     C_R   0.661401 0.897719 0.586157 0.326860
C17   C     C_R   0.605916 0.048923 0.511900 0.024188
C18   C     C_R   0.605962 0.951129 0.506209 0.028527
C19   C     C_R   0.375652 0.467853 0.093478 -0.199593
C20   C     C_R   0.534008 0.576321 0.899206 -0.208709
H7    H     H_    0.273165 0.443969 0.047554 0.193652
H8    H     H_    0.557583 0.638683 0.938621 0.185299
C21   C     C_R   0.374339 0.468913 0.192610 0.054978
C22   C     C_R   0.531465 0.576845 0.799739 0.020426
H9    H     H_    0.272177 0.444843 0.221612 0.158759
H10   H     H_    0.554969 0.639124 0.764464 0.153395
N1    N     N_R   0.500000 0.499980 0.252470 -0.122614
N2    N     N_R   0.500000 0.500020 0.747530 -0.121170
C23   C     C_R   0.629066 0.530820 0.216578 -0.072776
C24   C     C_R   0.470138 0.421314 0.791762 -0.047499
H11   H     H_    0.727142 0.555420 0.265428 0.176641
H12   H     H_    0.446167 0.360941 0.749360 0.175746
C25   C     C_R   0.638851 0.528554 0.117695 0.253232
C26   C     C_R   0.475001 0.416399 0.891865 0.239932
C27   C     C_R   0.508563 0.496975 0.054081 0.033868
C28   C     C_R   0.506933 0.495854 0.947348 0.044908
C29   C     C_3   0.978771 0.406203 0.397927 -0.823970
H13   H     H_    0.075786 0.367761 0.372345 0.241350
H14   H     H_    0.908395 0.356551 0.432836 0.234777
H15   H     H_    0.907495 0.435625 0.334341 0.266403
C30   C     C_3   0.021738 0.592647 0.603175 -0.820168
H16   H     H_    0.925046 0.630601 0.629745 0.237012
H17   H     H_    0.093906 0.562407 0.666099 0.271974
H18   H     H_    0.091490 0.642878 0.568607 0.237072
N3    N     N_R   0.757909 0.064936 0.374954 0.206595
O9    O     O_R   0.848263 0.995819 0.398410 -0.347330
O10   O     O_R   0.766601 0.105100 0.294114 -0.336386
N4    N     N_R   0.755642 0.935080 0.668797 0.209511
O11   O     O_R   0.846085 0.004275 0.660816 -0.333955
O12   O     O_R   0.762946 0.894906 0.750995 -0.351021
N5    N     N_R   0.782753 0.555019 0.084506 0.200985
O13   O     O_R   0.832954 0.512239 0.014233 -0.358896
O14   O     O_R   0.874628 0.613557 0.132510 -0.378777
N6    N     N_R   0.453133 0.330265 0.935211 0.210002
O15   O     O_R   0.535219 0.308501 0.015927 -0.322012
O16   O     O_R   0.366149 0.268808 0.888398 -0.350920

loop_
_geom_bond_atom_site_label_1
_geom_bond_atom_site_label_2
_geom_bond_distance
_ccdc_geom_bond_type
O5    Zn1   1.985651 S    
O6    Zn2   1.985649 S    
O7    Zn2   1.986588 S    
C15   C17   1.410974 A    
N6    O15   1.301307 A    
C11   C13   1.400967 A    
N1    C23   1.363245 A    
C24   C26   1.414510 A    
C12   C14   1.401091 A    
C20   C28   1.407926 A    
C23   C25   1.414557 A    
O6    C4    1.268218 A    
Zn2   N1    2.002291 S    
C30   H18   1.111054 S    
N4    O11   1.301510 A    
C29   H15   1.108748 S    
C14   H6    1.083640 S    
C17   C18   1.449439 S    
C26   N6    1.438856 S    
C15   N3    1.441417 S    
C21   H9    1.081472 S    
C2    C12   1.441581 S    
C29   H13   1.111617 S    
Zn1   N2    2.002291 S    
O5    C3    1.267933 A    
O7    C3    1.280565 A    
C30   H16   1.111790 S    
O2    C2    1.286498 A    
O3    Zn2   1.974499 S    
O8    C4    1.280171 A    
C8    C18   1.401257 A    
C1    C11   1.441251 S    
C19   C21   1.405497 A    
C5    C29   1.524725 S    
C10   H4    1.083608 S    
C20   H8    1.083069 S    
C19   H7    1.083129 S    
N2    C24   1.364043 A    
C8    H2    1.083966 S    
C6    C30   1.524975 S    
C29   H14   1.111086 S    
C9    H3    1.083717 S    
C19   C27   1.408404 A    
N3    O9    1.301502 A    
O2    Zn2   1.973874 S    
O1    C1    1.286163 A    
C30   H17   1.110154 S    
O1    Zn1   1.973874 S    
C5    C6    1.354589 D    
C13   C15   1.392786 A    
C27   C28   1.509738 S    
C24   H12   1.080305 S    
C4    C6    1.403097 S    
C22   N2    1.362780 A    
C13   H5    1.083695 S    
C16   N4    1.441398 S    
O4    C2    1.285160 A    
C10   C12   1.394023 A    
C23   H11   1.080648 S    
N5    O14   1.301463 A    
C26   C28   1.419737 A    
N3    O10   1.301589 A    
C9    C11   1.394140 A    
C7    H1    1.083975 S    
C20   C22   1.405825 A    
C21   N1    1.362065 A    
C25   N5    1.439351 S    
C7    C17   1.401293 A    
O3    C1    1.285360 A    
C8    C10   1.380089 A    
C3    C5    1.403510 S    
N6    O16   1.301534 A    
C14   C16   1.392809 A    
C7    C9    1.380081 A    
N5    O13   1.301309 A    
O4    Zn1   1.974499 S    
N4    O12   1.301568 A    
C22   H10   1.080984 S    
C25   C27   1.420533 A    
O8    Zn1   1.986586 S    
C16   C18   1.410903 A    
