data_mof_unit_4607.cif
_audit_creation_date              2013-03-05T15:48:24-0500
_audit_creation_method            fapswitch 2.2
_symmetry_space_group_name_H-M    P1
_symmetry_Int_Tables_number       1
_space_group_crystal_system       triclinic
_cell_length_a                    11.648994
_cell_length_b                    13.030036
_cell_length_c                    11.795097
_cell_angle_alpha                 100.166744
_cell_angle_beta                  92.051425
_cell_angle_gamma                 91.731563
_cell_volume                      1759.88406933

loop_
_atom_site_label
_atom_site_type_symbol
_atom_site_description
_atom_site_fract_x
_atom_site_fract_y
_atom_site_fract_z
_atom_type_partial_charge
O1    O     O_R   0.505930 0.354460 0.582000 -0.516784
O2    O     O_R   0.494070 0.645540 0.418000 -0.494852
O3    O     O_R   0.491820 0.341410 0.386200 -0.570861
O4    O     O_R   0.508180 0.658590 0.613800 -0.596396
C1    C     C_R   0.498099 0.298983 0.478396 0.868563
C2    C     C_R   0.497324 0.700813 0.522182 0.907382
O5    O     O_R   0.344250 0.506540 0.597900 -0.524152
O6    O     O_R   0.655750 0.493460 0.402100 -0.531110
O7    O     O_R   0.330140 0.493480 0.402100 -0.588985
O8    O     O_R   0.669860 0.506520 0.597900 -0.596280
C3    C     C_R   0.284308 0.499900 0.501448 0.836006
C4    C     C_R   0.715689 0.499993 0.498549 0.831095
Cu1   Cu    Cu3+1 0.508350 0.507730 0.615930 1.030704
Cu2   Cu    Cu3+1 0.491650 0.492270 0.384070 1.043245
C5    C     C_1   0.162680 0.500019 0.503691 -0.091727
C6    C     C_1   0.837328 0.499732 0.496373 -0.097664
C7    C     C_1   0.059977 0.499920 0.501941 0.013193
C8    C     C_1   0.940034 0.499754 0.498211 0.016566
C9    C     C_R   0.484476 0.814639 0.538381 -0.327796
C10   C     C_R   0.485296 0.184833 0.467154 -0.315210
C11   C     C_R   0.394984 0.020199 0.369234 0.411445
C12   C     C_R   0.512727 0.986209 0.656659 0.486399
C13   C     C_R   0.429244 0.124738 0.368487 0.288161
C14   C     C_R   0.521776 0.878106 0.643895 0.293373
C15   C     C_R   0.519763 0.137279 0.560512 0.287248
C16   C     C_R   0.430576 0.860254 0.450749 0.294229
C17   C     C_R   0.489800 0.031766 0.559045 -0.228449
C18   C     C_R   0.437203 0.970038 0.458631 -0.219718
N1    N     N_R   0.520920 0.519350 0.790130 -0.263238
N2    N     N_R   0.479080 0.480650 0.209870 -0.266099
C19   C     C_R   0.356646 0.448709 0.037298 0.376650
C20   C     C_R   0.642815 0.551612 0.963674 0.373870
C21   C     C_R   0.379719 0.441351 0.153480 -0.088092
C22   C     C_R   0.623956 0.549871 0.845031 -0.097006
C23   C     C_R   0.565949 0.518400 0.150239 0.528789
C24   C     C_R   0.431593 0.488160 0.851881 0.528920
C25   C     C_R   0.552972 0.517961 0.029092 -0.214714
C26   C     C_R   0.445727 0.484939 0.972213 -0.223164
H1    H     H_    0.694527 0.571429 0.796426 0.171294
H2    H     H_    0.315773 0.405748 0.199808 0.171776
N3    N     N_R   0.375604 0.794528 0.352101 0.181577
O9    O     O_R   0.286865 0.735360 0.365321 -0.411139
O10   O     O_R   0.426818 0.778746 0.254709 -0.326328
N4    N     N_R   0.605421 0.189061 0.643743 0.177899
O11   O     O_R   0.576469 0.246080 0.739679 -0.332579
O12   O     O_R   0.713617 0.181111 0.621305 -0.363927
O13   O     O_3   0.587101 0.837873 0.725401 -0.571729
C27   C     C_3   0.520707 0.818962 0.818393 0.152051
H3    H     H_    0.515785 0.733904 0.817692 0.172005
H4    H     H_    0.430284 0.843552 0.814789 0.097673
C28   C     C_3   0.581858 0.870306 0.931725 -0.433323
H5    H     H_    0.670987 0.843133 0.934349 0.219723
H6    H     H_    0.587714 0.955870 0.937053 0.256834
C29   C     C_3   0.519323 0.844417 0.035014 -0.845401
H7    H     H_    0.432385 0.877313 0.037754 0.271922
H8    H     H_    0.569121 0.878393 0.115597 0.273164
H9    H     H_    0.510858 0.758565 0.029978 0.266602
O14   O     O_3   0.399057 0.170485 0.274425 -0.597159
C30   C     C_3   0.466456 0.131797 0.179399 0.081054
H10   H     H_    0.413615 0.133384 0.099604 0.151669
H11   H     H_    0.490726 0.049398 0.176135 0.159854
C31   C     C_3   0.574769 0.201426 0.178363 -0.343886
H12   H     H_    0.549484 0.281744 0.172637 0.246916
H13   H     H_    0.627370 0.203746 0.259298 0.225891
C32   C     C_3   0.648176 0.162058 0.076410 -0.875128
H14   H     H_    0.680815 0.084205 0.083660 0.248287
H15   H     H_    0.722941 0.216962 0.076277 0.278307
H16   H     H_    0.597441 0.157211 0.994007 0.288447
O15   O     O_3   0.323497 0.966920 0.280100 -0.568426
C33   C     C_3   0.210729 0.005086 0.289156 0.080634
H17   H     H_    0.169483 0.991406 0.201153 0.158669
H18   H     H_    0.208706 0.090753 0.321151 0.157634
C34   C     C_3   0.138917 0.946500 0.365428 -0.353673
H19   H     H_    0.128131 0.863144 0.324278 0.265599
H20   H     H_    0.183536 0.951289 0.451152 0.222102
C35   C     C_3   0.020418 0.992225 0.382734 -0.881461
H21   H     H_    0.028792 0.074112 0.429471 0.264600
H22   H     H_    0.968992 0.945699 0.434432 0.277672
H23   H     H_    0.974355 0.990467 0.298344 0.254938
O16   O     O_3   0.519342 0.046750 0.765887 -0.555126
C36   C     C_3   0.408472 0.048222 0.813404 -0.031258
H24   H     H_    0.418426 0.035632 0.903703 0.152158
H25   H     H_    0.346768 0.985540 0.768286 0.107576
C37   C     C_3   0.353530 0.153317 0.814864 -0.238518
H26   H     H_    0.408305 0.216282 0.868312 0.259491
H27   H     H_    0.345164 0.168620 0.725373 0.245367
C38   C     C_3   0.234235 0.153479 0.864564 -0.863342
H28   H     H_    0.178148 0.089708 0.814342 0.244428
H29   H     H_    0.193811 0.228553 0.859914 0.311499
H30   H     H_    0.240547 0.143473 0.956143 0.243119
N5    N     N_R   0.322402 0.460033 0.795188 0.169127
O17   O     O_R   0.301573 0.366074 0.738158 -0.384204
O18   O     O_R   0.243008 0.528685 0.801092 -0.407518
N6    N     N_R   0.669240 0.561347 0.211383 0.159453
O19   O     O_R   0.760327 0.505597 0.209209 -0.366959
O20   O     O_R   0.674773 0.658210 0.263296 -0.365775
O21   O     O_3   0.251206 0.410502 0.985896 -0.566798
C39   C     C_3   0.161407 0.472168 0.035835 0.113769
H31   H     H_    0.165659 0.550586 0.010776 0.176022
H32   H     H_    0.165628 0.483890 0.131636 0.100055
C40   C     C_3   0.044580 0.417780 0.996744 -0.386705
H33   H     H_    0.044932 0.335952 0.011883 0.223939
H34   H     H_    0.976822 0.458424 0.049589 0.221196
C41   C     C_3   0.013989 0.418150 0.869864 -0.631874
H35   H     H_    0.011734 0.499418 0.853371 0.244136
H36   H     H_    0.927635 0.380072 0.847127 0.241456
H37   H     H_    0.077252 0.374352 0.814019 0.294589
O22   O     O_3   0.753823 0.571256 0.010337 -0.564788
C42   C     C_3   0.786365 0.677208 0.014767 0.071792
H38   H     H_    0.724857 0.728504 0.065669 0.179195
H39   H     H_    0.790574 0.696079 0.926635 0.116612
C43   C     C_3   0.905743 0.698894 0.073583 -0.269531
H40   H     H_    0.904416 0.680587 0.162075 0.264375
H41   H     H_    0.968364 0.648292 0.023921 0.206958
C44   C     C_3   0.944781 0.812743 0.080630 -0.935650
H42   H     H_    0.948975 0.832140 0.992830 0.261233
H43   H     H_    0.031655 0.826052 0.123467 0.265008
H44   H     H_    0.884187 0.864973 0.131245 0.261319

loop_
_geom_bond_atom_site_label_1
_geom_bond_atom_site_label_2
_geom_bond_distance
_ccdc_geom_bond_type
C13   O14   1.388563 S    
C38   H28   1.110841 S    
C40   H33   1.111838 S    
N3    O10   1.300351 A    
C34   H19   1.110104 S    
C35   H23   1.110051 S    
C41   H36   1.110654 S    
C36   H24   1.108485 S    
C1    C10   1.472302 S    
O5    C3    1.301555 A    
C2    C9    1.474478 S    
N1    C24   1.382632 A    
C25   C26   1.414776 A    
N2    C23   1.379733 A    
O1    C1    1.303979 A    
Cu1   N1    2.033094 S    
C23   C25   1.430511 A    
C37   H27   1.109764 S    
O15   C33   1.419556 S    
C42   H39   1.112035 S    
C10   C15   1.407835 A    
C44   H42   1.110862 S    
O22   C42   1.412028 S    
N3    O9    1.301182 A    
O4    Cu1   1.970362 S    
C9    C16   1.417340 A    
C43   H40   1.111500 S    
C31   H13   1.111088 S    
C3    C5    1.418081 S    
C27   C28   1.526199 S    
C4    C6    1.418223 S    
C44   H43   1.109661 S    
C19   C21   1.407455 A    
C33   H17   1.110808 S    
N2    C21   1.353932 A    
C44   H44   1.110668 S    
C27   H4    1.111744 S    
C30   H10   1.109650 S    
C40   H34   1.111735 S    
Cu1   Cu2   2.706044 S    
C34   H20   1.111099 S    
O2    C2    1.308721 A    
Cu2   N2    2.033095 S    
C15   N4    1.438756 S    
C43   H41   1.110538 S    
C41   H35   1.110805 S    
C36   H25   1.118316 S    
N4    O12   1.300548 A    
O21   C39   1.419385 S    
C29   H8    1.110128 S    
C30   H11   1.112971 S    
C21   H2    1.080024 S    
C22   H1    1.077045 S    
C43   C44   1.525573 S    
C35   H21   1.110899 S    
O4    C2    1.300301 A    
C42   C43   1.527415 S    
N5    O17   1.299941 A    
C32   H15   1.110489 S    
O14   C30   1.419253 S    
N1    C22   1.357476 A    
C28   H5    1.108204 S    
C11   O15   1.387617 S    
C28   H6    1.105425 S    
C20   C22   1.404847 A    
O7    Cu2   1.901186 S    
C31   H12   1.108481 S    
N5    O18   1.301159 A    
O13   C27   1.416547 S    
C10   C13   1.409564 A    
O6    C4    1.301657 A    
C32   H16   1.110365 S    
C33   C34   1.532847 S    
C7    C8    1.396254 S    
C20   C25   1.425656 A    
C37   H26   1.111157 S    
N6    O20   1.300566 A    
O7    C3    1.295418 A    
O3    Cu2   1.970361 S    
O8    C4    1.295309 A    
C24   N5    1.422602 S    
C27   H3    1.106611 S    
C11   C18   1.416521 A    
C39   H31   1.112874 S    
C40   C41   1.526816 S    
C39   H32   1.112323 S    
C12   C17   1.406478 A    
C11   C13   1.409407 A    
C34   C35   1.526136 S    
C12   C14   1.397555 A    
O1    Cu1   1.965464 S    
C36   C37   1.526622 S    
N4    O11   1.300710 A    
C23   N6    1.426804 S    
C5    C7    1.195777 T    
C29   H7    1.110901 S    
C30   C31   1.533337 S    
O6    Cu2   1.915103 S    
C31   C32   1.524084 S    
C14   O13   1.388449 S    
C35   H22   1.110375 S    
O16   C36   1.425495 S    
O3    C1    1.304805 A    
O8    Cu1   1.901185 S    
C37   C38   1.527391 S    
C15   C17   1.405161 A    
C39   C40   1.532429 S    
C16   C18   1.416606 A    
C19   C26   1.429823 A    
C28   C29   1.523969 S    
C38   H29   1.107508 S    
C9    C14   1.413435 A    
C12   O16   1.385103 S    
C42   H38   1.112959 S    
C24   C26   1.431111 A    
C19   O21   1.388260 S    
N6    O19   1.302376 A    
O2    Cu2   1.965465 S    
O5    Cu1   1.915102 S    
C6    C8    1.195838 T    
C32   H14   1.110202 S    
C20   O22   1.385624 S    
C38   H30   1.110773 S    
C17   C18   1.416720 A    
C33   H18   1.114673 S    
C41   H37   1.109110 S    
C16   N3    1.434964 S    
C29   H9    1.110902 S    
