data_mof_unit_2794.cif
_audit_creation_date              2012-12-10T18:57:11-0500
_audit_creation_method            fapswitch 2.2
_symmetry_space_group_name_H-M    P1
_symmetry_Int_Tables_number       1
_space_group_crystal_system       triclinic
_cell_length_a                    8.774646
_cell_length_b                    10.878686
_cell_length_c                    9.545262
_cell_angle_alpha                 90.818813
_cell_angle_beta                  97.759932
_cell_angle_gamma                 90.488093
_cell_volume                      902.672116401

loop_
_atom_site_label
_atom_site_type_symbol
_atom_type_description
_atom_site_fract_x
_atom_site_fract_y
_atom_site_fract_z
_atom_type_partial_charge
C1    C     C_R   0.502187 0.262478 0.498907 0.847836
C2    C     C_R   0.564822 0.933553 0.393310 -0.236222
C3    C     C_R   0.501260 0.871078 0.499420 -0.136151
C4    C     C_R   0.426283 0.938469 0.594099 0.070881
C5    C     C_3   0.451758 0.939550 0.751442 -0.513181
C6    C     C_3   0.437502 0.078342 0.747145 0.346077
C7    C     C_R   0.617570 0.554756 0.089379 0.285121
C8    C     C_R   0.394961 0.433022 0.060260 -0.077845
C9    C     C_R   0.396321 0.431895 0.911428 -0.078913
C10   C     C_R   0.617693 0.554498 0.941829 0.233448
C11   C     C_3   0.661268 0.686553 0.944230 -0.508191
C12   C     C_R   0.203936 0.501552 0.464360 0.914467
C13   C     C_3   0.662305 0.686942 0.102748 -0.505015
C14   C     C_R   0.502174 0.737683 0.500912 0.831002
C15   C     C_R   0.796015 0.504026 0.536577 0.779658
C16   C     C_2   0.038259 0.496370 0.447475 -0.444598
C17   C     C_2   0.961687 0.518672 0.557933 0.315990
C18   C     C_R   0.421339 0.065363 0.589627 0.075264
C19   C     C_R   0.498028 0.129235 0.493412 -0.222578
C20   C     C_R   0.565265 0.061688 0.389819 0.261566
Cu1   Cu    Cu3+1 0.499990 0.499980 0.640670 0.977372
Cu2   Cu    Cu3+1 0.500010 0.500020 0.359330 0.970210
H1    H     H_    0.979354 0.465418 0.345350 0.145833
H2    H     H_    0.311593 0.377983 0.843840 0.172459
H3    H     H_    0.776081 0.703335 0.910984 0.208669
H4    H     H_    0.565512 0.740012 0.890165 0.223388
H5    H     H_    0.778657 0.701399 0.163191 0.202084
H6    H     H_    0.569968 0.745006 0.136257 0.220506
H7    H     H_    0.622942 0.883369 0.318062 0.178590
H8    H     H_    0.358296 0.890610 0.796500 0.221369
H9    H     H_    0.571359 0.914073 0.792604 0.165980
H10   H     H_    0.543098 0.130594 0.792428 0.106679
H11   H     H_    0.307764 0.380976 0.104343 0.137439
N1    N     N_R   0.500980 0.500930 0.148050 -0.176247
N2    N     N_R   0.500990 0.500890 0.852140 -0.184595
O1    O     O_R   0.500000 0.319640 0.618810 -0.594249
O2    O     O_R   0.500020 0.319680 0.381230 -0.539531
O3    O     O_R   0.274830 0.499980 0.591380 -0.526228
O4    O     O_R   0.274850 0.500020 0.353800 -0.604380
O5    O     O_R   0.499980 0.680320 0.618770 -0.576214
O6    O     O_R   0.500000 0.680360 0.381190 -0.595947
O7    O     O_R   0.725150 0.499980 0.646200 -0.589583
O8    O     O_R   0.725170 0.500020 0.408620 -0.591835
O9    O     O_3   0.034573 0.577132 0.680119 -0.557049
C21   C     C_3   0.024288 0.505054 0.800417 -0.250612
H12   H     H_    0.036910 0.404847 0.779524 0.147506
H13   H     H_    0.916461 0.522991 0.844900 0.173260
H14   H     H_    0.117470 0.534585 0.884282 0.172743
Br1   Br    Br    0.677126 0.135722 0.252078 -0.570471
O10   O     O_3   0.299285 0.120645 0.790721 -0.558357
C22   C     C_3   0.314106 0.122811 0.939851 -0.294274
H15   H     H_    0.417880 0.175382 0.987777 0.185080
H16   H     H_    0.317199 0.028173 0.982329 0.184450
H17   H     H_    0.212085 0.168887 0.972758 0.177340

loop_
_geom_bond_atom_site_label_1
_geom_bond_atom_site_label_2
_ccdc_geom_bond_type
C8    C9    A    
C7    C10   A    
C6    H10   S    
C13   H6    S    
C20   Br1   S    
Cu1   N2    S    
C19   C20   A    
C1    O2    A    
C22   H17   S    
C4    C18   A    
C12   O4    A    
C2    C3    A    
C17   O9    S    
C15   O8    A    
C9    H2    S    
Cu1   O1    S    
C8    N1    A    
C21   H12   S    
C6    O10   S    
C11   C13   S    
C10   N2    A    
C3    C14   S    
C14   O6    A    
C6    C18   S    
Cu2   O4    S    
C18   C19   A    
C16   H1    S    
C8    H11   S    
C21   H13   S    
C12   O3    A    
C5    C6    S    
Cu2   N1    S    
C7    N1    A    
C1    C19   S    
Cu2   O6    S    
C10   C11   S    
C11   H3    S    
C2    C20   A    
C22   H15   S    
C12   C16   S    
C7    C13   S    
C2    H7    S    
O9    C21   S    
C15   O7    A    
C15   C17   S    
C5    H8    S    
C21   H14   S    
C9    N2    A    
C4    C5    S    
C5    H9    S    
Cu1   O7    S    
C11   H4    S    
O10   C22   S    
Cu1   Cu2   S    
Cu2   O2    S    
C14   O5    A    
Cu2   O8    S    
C13   H5    S    
Cu1   O3    S    
C3    C4    A    
C1    O1    A    
C16   C17   D    
C22   H16   S    
Cu1   O5    S    
