data_mof_unit_2650.cif
_audit_creation_date              2012-12-10T19:09:03-0500
_audit_creation_method            fapswitch 2.2
_symmetry_space_group_name_H-M    P1
_symmetry_Int_Tables_number       1
_space_group_crystal_system       triclinic
_cell_length_a                    17.721746
_cell_length_b                    10.812974
_cell_length_c                    9.560104
_cell_angle_alpha                 89.848134
_cell_angle_beta                  90.150287
_cell_angle_gamma                 90.147189
_cell_volume                      1831.9340642

loop_
_atom_site_label
_atom_site_type_symbol
_atom_type_description
_atom_site_fract_x
_atom_site_fract_y
_atom_site_fract_z
_atom_type_partial_charge
C1    C     C_R   0.498410 0.262349 0.500190 0.820988
C2    C     C_R   0.885056 0.512883 0.501201 0.000743
C3    C     C_1   0.965831 0.509459 0.500842 0.085486
C4    C     C_1   0.033464 0.505631 0.498693 0.058247
C5    C     C_R   0.153264 0.502009 0.621247 -0.159226
C6    C     C_R   0.231743 0.501319 0.623598 -0.160667
C7    C     C_R   0.272422 0.500266 0.498137 -0.059699
C8    C     C_R   0.233248 0.499495 0.370150 -0.226136
C9    C     C_R   0.154097 0.499490 0.365634 0.005152
C10   C     C_R   0.114190 0.501320 0.493882 0.048185
C11   C     C_R   0.496247 0.063299 0.626241 0.107643
C12   C     C_R   0.355523 0.500009 0.499742 0.791561
C13   C     C_R   0.490275 0.129240 0.501036 -0.143210
C14   C     C_R   0.472305 0.064857 0.377660 -0.174228
C15   C     C_R   0.471469 0.935796 0.377847 -0.199683
C16   C     C_R   0.489683 0.870702 0.500753 -0.101059
C17   C     C_R   0.496240 0.936048 0.625824 0.081340
C18   C     C_3   0.555041 0.928525 0.737534 -0.482600
C19   C     C_3   0.555387 0.069036 0.737807 0.133766
C20   C     C_R   0.566096 0.507882 0.073218 0.213877
C21   C     C_R   0.435291 0.481354 0.073938 -0.015728
C22   C     C_R   0.435240 0.481821 0.925641 -0.012727
C23   C     C_R   0.498097 0.737640 0.499922 0.814270
C24   C     C_R   0.566187 0.505315 0.926094 0.334072
C25   C     C_3   0.625166 0.603080 0.915032 -0.521191
C26   C     C_3   0.624208 0.609393 0.074089 -0.292693
C27   C     C_R   0.644263 0.498442 0.500436 0.843837
C28   C     C_R   0.847558 0.437065 0.597334 -0.172174
C29   C     C_R   0.769066 0.430316 0.598619 0.251724
C30   C     C_R   0.727043 0.500572 0.501805 -0.113846
C31   C     C_R   0.764711 0.576805 0.405853 -0.278145
C32   C     C_R   0.843735 0.584654 0.403874 0.007063
Cu1   Cu    Cu3+1 0.500000 0.499980 0.640670 0.996303
Cu2   Cu    Cu3+1 0.500000 0.500020 0.359330 0.988171
H1    H     H_    0.879620 0.381144 0.670541 0.177283
H2    H     H_    0.460032 0.887724 0.281016 0.217173
H3    H     H_    0.532448 0.886348 0.834835 0.260771
H4    H     H_    0.608772 0.887844 0.699524 0.178537
H5    H     H_    0.609254 0.110113 0.700613 0.175365
H6    H     H_    0.382582 0.467218 0.127948 0.139351
H7    H     H_    0.382426 0.468279 0.871341 0.138809
H8    H     H_    0.679056 0.566194 0.873412 0.232885
H9    H     H_    0.604513 0.687047 0.859880 0.210448
H10   H     H_    0.678417 0.578856 0.121092 0.178173
H11   H     H_    0.731991 0.633192 0.334814 0.212724
H12   H     H_    0.122837 0.503675 0.719453 0.145035
H13   H     H_    0.260444 0.502077 0.723714 0.155504
H14   H     H_    0.264641 0.497986 0.273199 0.186445
H15   H     H_    0.462104 0.113491 0.280261 0.202513
N1    N     N_R   0.500470 0.500930 0.147930 -0.192880
N2    N     N_R   0.500480 0.500890 0.852020 -0.185385
O1    O     O_R   0.500000 0.319640 0.618810 -0.541048
O2    O     O_R   0.500010 0.319680 0.381230 -0.574070
O3    O     O_R   0.391250 0.499990 0.618840 -0.594917
O4    O     O_R   0.391260 0.500020 0.381250 -0.597440
O5    O     O_R   0.499990 0.680320 0.618770 -0.579714
O6    O     O_R   0.500000 0.680360 0.381190 -0.567130
O7    O     O_R   0.608740 0.499980 0.618750 -0.555597
O8    O     O_R   0.608750 0.500010 0.381160 -0.587212
Br1   Br    Br    0.516693 0.139031 0.910201 -0.476287
Br2   Br    Br    0.723256 0.317728 0.729039 -0.522094
C33   C     C_2   0.596658 0.732008 0.128415 0.954273
O9    O     O_2   0.536670 0.774834 0.087537 -0.611451
O10   O     O_R   0.640902 0.797456 0.224199 -0.757131
H16   H     H_    0.617566 0.879325 0.251630 0.339815
C34   C     C_2   0.880551 0.668192 0.299802 0.899639
O11   O     O_2   0.845324 0.702859 0.196717 -0.570826
O12   O     O_R   0.954642 0.709441 0.319711 -0.747046
H17   H     H_    0.972714 0.765439 0.241370 0.348075
C35   C     C_2   0.116130 0.497610 0.225922 0.857814
O13   O     O_2   0.048928 0.473539 0.215171 -0.574083
O14   O     O_R   0.158079 0.521923 0.105054 -0.780378
H18   H     H_    0.126489 0.517420 0.016610 0.334642

loop_
_geom_bond_atom_site_label_1
_geom_bond_atom_site_label_2
_ccdc_geom_bond_type
C25   H8    S    
Cu2   O6    S    
C34   O12   S    
C8    H14   S    
C29   C30   A    
C2    C3    S    
C19   Br1   S    
Cu1   N2    S    
C14   H15   S    
Cu2   O4    S    
C5    H12   S    
C33   O10   S    
C31   C32   A    
Cu1   O7    S    
C30   C31   A    
O10   H16   S    
C25   H9    S    
C24   N2    A    
C17   C18   S    
C26   C33   S    
C26   H10   S    
C7    C8    A    
C27   O8    A    
C13   C14   A    
C9    C35   S    
Cu1   O1    S    
C11   C13   A    
C11   C19   S    
C6    C7    A    
C21   H6    S    
C20   C26   S    
Cu1   O5    S    
C19   H5    S    
C2    C32   A    
C32   C34   S    
C28   C29   A    
C18   H3    S    
Cu1   Cu2   S    
C34   O11   D    
C16   C23   S    
C21   N1    A    
C18   H4    S    
C5    C6    A    
O12   H17   S    
C1    O1    A    
C29   Br2   S    
C7    C12   S    
Cu2   N1    S    
C22   H7    S    
C1    C13   S    
C6    H13   S    
C12   O3    A    
C4    C10   S    
C15   C16   A    
C12   O4    A    
C9    C10   A    
C20   C24   A    
C15   H2    S    
C5    C10   A    
C35   O13   D    
C16   C17   A    
C24   C25   S    
Cu2   O2    S    
C20   N1    A    
C18   C19   S    
C31   H11   S    
C23   O5    A    
Cu1   O3    S    
C23   O6    A    
C1    O2    A    
C14   C15   A    
C8    C9    A    
C2    C28   A    
C25   C26   S    
C21   C22   A    
Cu2   O8    S    
C35   O14   S    
C22   N2    A    
C11   C17   A    
C33   O9    D    
C3    C4    T    
C28   H1    S    
O14   H18   S    
C27   C30   S    
C27   O7    A    
