data_mof_unit_4162.cif
_audit_creation_date              2013-03-05T16:06:16-0500
_audit_creation_method            fapswitch 2.2
_symmetry_space_group_name_H-M    P1
_symmetry_Int_Tables_number       1
_space_group_crystal_system       triclinic
_cell_length_a                    10.811423
_cell_length_b                    9.590589
_cell_length_c                    27.758061
_cell_angle_alpha                 90.001768
_cell_angle_beta                  91.89227
_cell_angle_gamma                 89.99697
_cell_volume                      2876.60592355

loop_
_atom_site_label
_atom_site_type_symbol
_atom_site_description
_atom_site_fract_x
_atom_site_fract_y
_atom_site_fract_z
_atom_type_partial_charge
O1    O     O_R   0.319640 0.618740 0.500000 -0.551143
O2    O     O_R   0.680360 0.381260 0.500000 -0.551638
O3    O     O_R   0.680360 0.618740 0.500000 -0.551166
O4    O     O_R   0.319640 0.381260 0.500000 -0.551684
C1    C     C_R   0.262294 0.500001 0.499947 0.824490
C2    C     C_R   0.737706 0.499997 0.500052 0.824527
O5    O     O_R   0.500020 0.618770 0.430260 -0.547813
O6    O     O_R   0.499980 0.381230 0.569740 -0.547736
O7    O     O_R   0.499980 0.618770 0.569740 -0.547920
O8    O     O_R   0.500020 0.381230 0.430260 -0.547922
C3    C     C_R   0.499725 0.499937 0.407459 0.830202
C4    C     C_R   0.500247 0.499938 0.592540 0.830182
Cu1   Cu    Cu3+1 0.500000 0.640660 0.500000 1.054833
Cu2   Cu    Cu3+1 0.500000 0.359340 0.500000 1.054453
C5    C     C_R   0.389702 0.516580 0.176002 0.590129
C6    C     C_R   0.610192 0.515083 0.824003 0.590123
O9    O     O_2   0.286136 0.542479 0.200182 -0.433981
O10   O     O_2   0.714029 0.539577 0.799830 -0.434015
N1    N     N_R   0.498201 0.494527 0.201610 -0.480313
N2    N     N_R   0.501477 0.494426 0.798388 -0.480267
C7    C     C_R   0.606083 0.466532 0.179329 0.559746
C8    C     C_R   0.393319 0.467836 0.820670 0.559589
C9    C     C_R   0.492602 0.623508 0.278006 -0.084799
C10   C     C_R   0.493300 0.371232 0.720985 -0.088983
C11   C     C_R   0.493370 0.625014 0.328294 -0.164726
C12   C     C_R   0.493102 0.372384 0.670785 -0.161746
C13   C     C_R   0.504503 0.372232 0.329168 -0.161676
C14   C     C_R   0.508641 0.624797 0.671737 -0.165094
C15   C     C_R   0.504191 0.371105 0.278966 -0.089471
C16   C     C_R   0.509364 0.623252 0.722024 -0.084952
C17   C     C_R   0.498230 0.496572 0.253256 0.331303
C18   C     C_R   0.501467 0.496493 0.746738 0.330890
C19   C     C_R   0.497498 0.478701 0.101599 -0.104193
C20   C     C_R   0.502019 0.478631 0.898402 -0.104220
C21   C     C_R   0.386266 0.509915 0.125036 -0.102923
C22   C     C_R   0.613553 0.508423 0.874968 -0.102744
C23   C     C_R   0.277358 0.534339 0.096480 0.419486
C24   C     C_R   0.722692 0.531503 0.903527 0.419619
C25   C     C_R   0.607927 0.458205 0.128990 -0.051951
C26   C     C_R   0.391396 0.459529 0.871008 -0.052296
C27   C     C_R   0.499229 0.499246 0.354357 -0.053849
C28   C     C_R   0.500635 0.499230 0.645638 -0.053789
H1    H     H_    0.509154 0.273649 0.348177 0.192540
H2    H     H_    0.514500 0.724075 0.653387 0.198502
H3    H     H_    0.508364 0.272693 0.259945 0.150214
H4    H     H_    0.515561 0.720428 0.741817 0.153710
C29   C     C_R   0.386691 0.453151 0.972737 0.066101
C30   C     C_R   0.612564 0.451745 0.027261 0.066235
C31   C     C_R   0.613043 0.475597 0.976730 -0.008022
C32   C     C_R   0.386447 0.477024 0.023270 -0.008067
C33   C     C_R   0.500598 0.468586 0.949324 0.039768
C34   C     C_R   0.498817 0.468616 0.050675 0.039805
C35   C     C_R   0.278870 0.418024 0.944292 0.139152
C36   C     C_R   0.720034 0.415273 0.055700 0.139251
C37   C     C_R   0.281987 0.426833 0.894088 -0.104065
C38   C     C_R   0.717004 0.424125 0.105906 -0.104277
O11   O     O_2   0.287857 0.449347 0.794028 -0.502866
O12   O     O_2   0.711338 0.446645 0.205974 -0.503089
C39   C     C_R   0.279332 0.519425 0.046598 -0.253537
C40   C     C_R   0.720567 0.516648 0.953407 -0.253477
H5    H     H_    0.486702 0.273969 0.651740 0.191336
H6    H     H_    0.489312 0.724432 0.346674 0.197397
H7    H     H_    0.487345 0.272949 0.739973 0.150191
H8    H     H_    0.488144 0.720838 0.258239 0.153336
H9    H     H_    0.198504 0.403186 0.872923 0.216660
H10   H     H_    0.800249 0.399428 0.127068 0.215753
H11   H     H_    0.196411 0.546977 0.026019 0.195034
H12   H     H_    0.803750 0.543177 0.973991 0.194824
C41   C     C_R   0.063932 0.373269 0.500009 -0.130836
C42   C     C_R   0.936069 0.626726 0.499989 -0.130497
C43   C     C_R   0.936083 0.373266 0.500014 -0.130809
C44   C     C_R   0.063916 0.626729 0.499986 -0.130476
H13   H     H_    0.111966 0.274159 0.500057 0.193522
H14   H     H_    0.888036 0.725837 0.499939 0.193765
H15   H     H_    0.888060 0.274156 0.499986 0.193518
H16   H     H_    0.111938 0.725840 0.500017 0.193752
C45   C     C_R   0.871655 0.499995 0.500029 -0.041601
C46   C     C_R   0.128345 0.500000 0.499971 -0.041592
C47   C     C_R   0.421799 0.074105 0.469485 0.347983
C48   C     C_R   0.578262 0.925905 0.530490 0.348134
C49   C     C_R   0.578199 0.074104 0.530515 0.348146
C50   C     C_R   0.421747 0.925906 0.469506 0.348180
N3    N     N_R   0.500000 0.852070 0.500000 -0.274428
N4    N     N_R   0.500000 0.147930 0.500000 -0.275288
Cl1   Cl    Cl    0.318976 0.161828 0.429281 -0.529145
Cl2   Cl    Cl    0.681384 0.838213 0.570580 -0.532556
Cl3   Cl    Cl    0.680987 0.161827 0.570732 -0.528228
Cl4   Cl    Cl    0.318686 0.838211 0.429393 -0.531655
Cl5   Cl    Cl    0.134353 0.586033 0.119760 -0.523528
Cl6   Cl    Cl    0.866196 0.581412 0.880256 -0.524869
C51   C     C_3   0.164840 0.351438 0.964475 -0.828997
H17   H     H_    0.135120 0.261386 0.941712 0.248448
H18   H     H_    0.182508 0.308310 0.001119 0.244594
H19   H     H_    0.087642 0.427810 0.964524 0.251257
C52   C     C_3   0.833402 0.347260 0.035509 -0.829576
H20   H     H_    0.862230 0.256836 0.058258 0.248162
H21   H     H_    0.815315 0.304358 0.998858 0.244983
H22   H     H_    0.911344 0.422659 0.035473 0.250670

loop_
_geom_bond_atom_site_label_1
_geom_bond_atom_site_label_2
_geom_bond_distance
_ccdc_geom_bond_type
C43   H15   1.083095 S    
C13   C15   1.393444 A    
C43   C45   1.400836 A    
C52   H20   1.111288 S    
Cu2   N4    2.027547 S    
C44   H16   1.083090 S    
O3    C2    1.296593 A    
N1    C17   1.433719 S    
C8    O11   1.350082 S    
C52   H22   1.110455 S    
C19   C34   1.417387 A    
C30   C36   1.426515 A    
C20   C33   1.417384 A    
C19   C25   1.407882 A    
C31   C40   1.405449 A    
C20   C26   1.407868 A    
C32   C39   1.405441 A    
C21   C23   1.417006 A    
C12   H5    1.082904 S    
C10   C12   1.393452 A    
C47   N4    1.373423 A    
C38   H10   1.084541 S    
C41   C43   1.382229 A    
O7    Cu1   1.947211 S    
C4    C28   1.473781 S    
C39   H11   1.079822 S    
C5    N1    1.367818 A    
C31   C33   1.414249 A    
C42   H14   1.083088 S    
C32   C34   1.414249 A    
C41   H13   1.083095 S    
O3    Cu1   1.961237 S    
C6    N2    1.367870 A    
C29   C35   1.426529 A    
Cu1   Cu2   2.698024 S    
C42   C45   1.400846 A    
C41   C46   1.400853 A    
O2    C2    1.296606 A    
C48   N3    1.373464 A    
C5    C21   1.415418 A    
C37   H9    1.084544 S    
C29   C32   1.421349 A    
C35   C37   1.397652 A    
C36   C38   1.397648 A    
O8    Cu2   1.947211 S    
C11   C27   1.406883 A    
C51   H17   1.111289 S    
O4    C1    1.296584 A    
C2    C45   1.448201 S    
C29   C33   1.419055 A    
C14   H2    1.082680 S    
C15   H3    1.083135 S    
C9    C17   1.400151 A    
O5    C3    1.303570 A    
C10   C18   1.399211 A    
C35   C51   1.512363 S    
C51   H18   1.108776 S    
C13   C27   1.406608 A    
C25   C38   1.399271 A    
C7    C25   1.400406 A    
C30   C34   1.419043 A    
O6    C4    1.302499 A    
C26   C37   1.399290 A    
C8    C26   1.400414 A    
C23   C39   1.392850 A    
C36   C52   1.512335 S    
C49   Cl3   1.762701 S    
C24   C40   1.392837 A    
C9    H8    1.083039 S    
N2    C8    1.364814 A    
C10   H7    1.082904 S    
O1    C1    1.296616 A    
O1    Cu1   1.961259 S    
C22   C24   1.417024 A    
C47   Cl1   1.762689 S    
C49   N4    1.373405 A    
C12   C28   1.406286 A    
N2    C18   1.433838 S    
C5    O9    1.347408 S    
C24   Cl6   1.766284 S    
C30   C31   1.421336 A    
O6    Cu2   1.947198 S    
N1    C7    1.364763 A    
C16   H4    1.082811 S    
C48   C49   1.421308 A    
C47   C50   1.421313 A    
C52   H21   1.108774 S    
Cu1   N3    2.027546 S    
C48   Cl2   1.762580 S    
C23   Cl5   1.766250 S    
C14   C16   1.395710 A    
C7    O12   1.350086 S    
C15   C17   1.399425 A    
C6    C22   1.415411 A    
C51   H19   1.110450 S    
C16   C18   1.399917 A    
C50   Cl4   1.762608 S    
C14   C28   1.406553 A    
C19   C21   1.417983 A    
C3    C27   1.473850 S    
C20   C22   1.417980 A    
C11   H6    1.082963 S    
C9    C11   1.395722 A    
O4    Cu2   1.961237 S    
O2    Cu2   1.961259 S    
O7    C4    1.303577 A    
O8    C3    1.302546 A    
C13   H1    1.083110 S    
O5    Cu1   1.947198 S    
C40   H12   1.079833 S    
C6    O10   1.347402 S    
C50   N3    1.373456 A    
C44   C46   1.400829 A    
C42   C44   1.382216 A    
C1    C46   1.448200 S    
