data_mof_unit_3694.cif
_audit_creation_date              2013-03-05T16:12:49-0500
_audit_creation_method            fapswitch 2.2
_symmetry_space_group_name_H-M    P1
_symmetry_Int_Tables_number       1
_space_group_crystal_system       triclinic
_cell_length_a                    8.239959
_cell_length_b                    16.232655
_cell_length_c                    18.859618
_cell_angle_alpha                 112.005981
_cell_angle_beta                  90.708975
_cell_angle_gamma                 84.451
_cell_volume                      2327.0723638

loop_
_atom_site_label
_atom_site_type_symbol
_atom_site_description
_atom_site_fract_x
_atom_site_fract_y
_atom_site_fract_z
_atom_type_partial_charge
P1    P     P_3+3 0.582960 0.413890 0.320860 0.539604
O1    O     O_2   0.402610 0.439360 0.314250 -0.320439
O2    O     O_3   0.648560 0.446300 0.404730 -0.407884
O3    O     O_3   0.108870 0.604000 0.387500 -0.432257
O4    O     O_2   0.251867 0.539067 0.252396 -0.340472
O5    O     O_3   0.602589 0.297087 0.280519 -0.494508
O6    O     O_3   0.126188 0.704790 0.298380 -0.457387
H1    H     H_    0.086982 0.769336 0.415137 0.123334
C1    C     C_3   0.038217 0.860253 0.357700 -0.726292
H2    H     H_    0.166050 0.877116 0.359964 0.295378
H3    H     H_    0.982963 0.862061 0.304250 0.282225
P2    P     P_3+3 0.071690 0.707860 0.593450 0.503956
P3    P     P_3+3 0.496726 0.766952 0.455326 0.493343
O7    O     O_2   0.241370 0.719440 0.573960 -0.365043
O8    O     O_3   0.507090 0.652150 0.432150 -0.313542
O9    O     O_2   0.344496 0.811319 0.507617 -0.411805
O10   O     O_3   0.066256 0.745631 0.693477 -0.567647
O11   O     O_3   0.458711 0.788961 0.372364 -0.508402
C2    C     C_3   0.543163 0.721284 0.309922 0.334850
H4    H     H_    0.468099 0.664309 0.285901 0.132842
H5    H     H_    0.662852 0.696078 0.325659 -0.057258
C3    C     C_3   0.575416 0.758213 0.248534 0.068763
H6    H     H_    0.638027 0.704815 0.197789 0.063846
C4    C     C_3   0.627829 0.736615 0.662673 0.423027
H7    H     H_    0.756183 0.712976 0.644777 0.127502
H8    H     H_    0.547264 0.716223 0.612695 0.142376
C5    C     C_3   0.610206 0.838062 0.700077 -0.867215
H9    H     H_    0.691551 0.860024 0.749733 0.292370
H10   H     H_    0.643336 0.867922 0.658977 0.202924
H11   H     H_    0.481929 0.862657 0.720059 0.266365
Ba1   Ba    Ba6+2 0.333520 0.539550 0.472180 1.611531
C6    C     C_3   0.580525 0.260103 0.335248 0.194982
H12   H     H_    0.449319 0.266421 0.348846 0.078110
H13   H     H_    0.647635 0.292326 0.388287 0.107284
C7    C     C_3   0.646614 0.161686 0.301354 -0.089137
H14   H     H_    0.642885 0.132630 0.345963 0.093207
H15   H     H_    0.775855 0.156424 0.282784 0.189954
C8    C     C_3   0.150602 0.684592 0.720524 0.192816
H16   H     H_    0.268892 0.656900 0.689467 0.067577
H17   H     H_    0.074430 0.629358 0.713253 0.160585
C9    C     C_3   0.181688 0.736461 0.805685 -0.057062
H18   H     H_    0.287949 0.775113 0.809815 0.159553
H19   H     H_    0.075289 0.785774 0.832305 0.200551
P4    P     P_3+3 0.606720 0.586180 0.679160 0.522214
O12   O     O_2   0.787080 0.560670 0.685800 -0.332404
O13   O     O_3   0.541120 0.553770 0.595290 -0.405853
O14   O     O_3   0.080800 0.396070 0.612520 -0.376744
O15   O     O_3   0.583102 0.703074 0.716759 -0.540017
P5    P     P_3+3 0.696151 0.234465 0.550338 0.464629
O16   O     O_3   0.164600 0.390590 0.443970 -0.404835
O17   O     O_3   0.682580 0.347920 0.567870 -0.352246
O18   O     O_2   0.846142 0.192771 0.496154 -0.356552
O19   O     O_3   0.759437 0.220685 0.634686 -0.550476
Ba2   Ba    Ba6+2 0.856270 0.460520 0.527840 1.634182
P6    P     P_3+3 0.096133 0.597504 0.293695 0.488643
C10   C     C_3   0.033883 0.768066 0.360436 0.419505
H20   H     H_    0.904692 0.753650 0.358394 -0.028115
H21   H     H_    0.968259 0.910971 0.407315 0.173943
O20   O     O_3   0.025080 0.609480 0.556050 -0.370285
C11   C     C_3   0.045818 0.319608 0.283653 0.389784
H22   H     H_    0.925737 0.343713 0.313975 0.071689
H23   H     H_    0.124790 0.375176 0.300280 0.126318
C12   C     C_3   0.018736 0.288432 0.198002 -0.812555
H24   H     H_    0.926778 0.239228 0.181406 0.268858
H25   H     H_    0.974692 0.345864 0.182235 0.208072
H26   H     H_    0.134748 0.256586 0.165929 0.282726
P7    P     P_3+3 0.128661 0.278132 0.399197 0.506968
O21   O     O_2   0.948320 0.280590 0.426090 -0.337432
O22   O     O_3   0.121476 0.247748 0.299916 -0.520508
H27   H     H_    0.657510 0.812137 0.271532 0.161231
C13   C     C_3   0.631207 0.241304 0.688923 0.888516
H28   H     H_    0.529050 0.285379 0.678986 -0.132362
C14   C     C_3   0.569457 0.154131 0.685276 -0.926740
H29   H     H_    0.671853 0.105620 0.687513 0.290693
H30   H     H_    0.482846 0.166760 0.733379 0.283661
H31   H     H_    0.506216 0.124517 0.631443 0.250940
P8    P     P_3+3 0.095953 0.400255 0.705487 0.541135
C15   C     C_3   0.153501 0.229111 0.653543 0.251101
H32   H     H_    0.279119 0.238634 0.673582 0.012550
O23   O     O_2   0.954066 0.468689 0.750548 -0.273251
O24   O     O_3   0.045496 0.297297 0.704498 -0.484930
H33   H     H_    0.145956 0.230048 0.594902 0.085375
C16   C     C_3   0.112084 0.137026 0.649251 0.490772
H34   H     H_    0.998313 0.120959 0.616982 0.088147
C17   C     C_R   0.515740 0.447971 0.035291 -0.112686
C18   C     C_R   0.436642 0.407464 0.078552 0.363677
C19   C     C_R   0.355956 0.381873 0.916861 -0.120786
C20   C     C_R   0.465554 0.442115 0.960149 0.114117
C21   C     C_R   0.294676 0.384398 0.848586 -0.169375
C22   C     C_R   0.352054 0.440675 0.815707 0.027653
C23   C     C_R   0.476531 0.494840 0.852611 0.090192
C24   C     C_R   0.532656 0.495337 0.925103 0.097131
C25   C     C_R   0.293315 0.441523 0.745347 0.164161
C26   C     C_R   0.375836 0.484517 0.706806 -0.436490
C27   C     C_R   0.502421 0.536766 0.740207 0.229647
C28   C     C_R   0.544894 0.548306 0.817296 -0.135835
C29   C     C_R   0.652438 0.494708 0.068058 0.027050
C30   C     C_R   0.713500 0.496991 0.140706 -0.082934
C31   C     C_R   0.635289 0.451723 0.180966 -0.181052
C32   C     C_R   0.509194 0.398745 0.143620 0.536219
H35   H     H_    0.335618 0.480704 0.650947 0.157349
H36   H     H_    0.207205 0.338317 0.820255 0.203681
C33   C     C_R   0.650314 0.611041 0.861754 0.416780
C34   C     C_R   0.708046 0.608193 0.930644 -0.196083
C35   C     C_R   0.658632 0.547398 0.961208 0.023522
C36   C     C_R   0.726891 0.540899 0.028826 0.077996
C37   C     C_R   0.870723 0.578673 0.057207 -0.263369
C38   C     C_R   0.854114 0.543323 0.171891 -0.148867
C39   C     C_R   0.932211 0.582667 0.127007 0.328728
C40   C     C_R   0.908023 0.547667 0.245657 0.187732
C41   C     C_R   0.818976 0.509725 0.286682 -0.528696
C42   C     C_R   0.684874 0.462121 0.257084 0.313554
H37   H     H_    0.860111 0.513372 0.342204 0.158981
H38   H     H_    0.318887 0.329499 0.933273 0.210089
H39   H     H_    0.783332 0.659969 0.962616 0.180624
H40   H     H_    0.941646 0.605935 0.024986 0.191393
C43   C     C_2   0.397710 0.238227 0.482023 -0.547406
C44   C     C_R   0.803149 0.749732 0.515485 0.074026
C45   C     C_2   0.267208 0.109786 0.392413 0.182164
C46   C     C_2   0.265025 0.199914 0.428785 0.129396
C47   C     C_2   0.511560 0.185689 0.501426 0.152491
C48   C     C_3   0.483331 0.089090 0.479990 -0.073255
C49   C     C_3   0.411579 0.050021 0.401019 0.123406
C50   C     C_2   0.623619 0.028934 0.489046 -0.161244
C51   C     C_2   0.589717 0.964286 0.512269 -0.063958
C52   C     C_R   0.858006 0.929254 0.560848 0.037634
C53   C     C_R   0.714850 0.899800 0.523020 -0.129987
C54   C     C_R   0.970337 0.870057 0.578237 -0.313619
C55   C     C_R   0.942257 0.780438 0.556530 0.203548
C56   C     C_R   0.685452 0.809956 0.502006 0.125076
H41   H     H_    0.075933 0.894610 0.611050 0.193169
H42   H     H_    0.409951 0.309039 0.499579 0.186951
H43   H     H_    0.747461 0.034902 0.474016 0.176693
H44   H     H_    0.463203 0.957247 0.521752 0.203218
N1    N     N_R   0.553263 0.111711 0.235520 0.281422
O25   O     O_R   0.552361 0.130082 0.174018 -0.283517
O26   O     O_R   0.488672 0.041204 0.234169 -0.302278
N2    N     N_R   0.210871 0.679446 0.849799 0.231089
O27   O     O_R   0.287739 0.710089 0.913641 -0.321994
O28   O     O_R   0.118556 0.615936 0.840799 -0.381446
N3    N     N_R   0.693681 0.289025 0.764958 0.240682
O29   O     O_R   0.749116 0.365602 0.779407 -0.367667
O30   O     O_R   0.694828 0.257055 0.818851 -0.352379
O31   O     O_3   0.237224 0.072097 0.609253 -0.824958
H45   H     H_    0.196028 0.013255 0.598083 0.323438
N4    N     N_R   0.090047 0.135609 0.725674 0.268657
O32   O     O_R   0.958662 0.108026 0.742898 -0.356302
O33   O     O_R   0.206329 0.154536 0.774716 -0.375017
O34   O     O_3   0.455005 0.338349 0.171086 -0.669695
H46   H     H_    0.394613 0.294360 0.131071 0.362088
N5    N     N_R   0.678682 0.688129 0.846366 0.251988
O35   O     O_R   0.825892 0.698521 0.830013 -0.356552
O36   O     O_R   0.573853 0.758423 0.872704 -0.328295
N6    N     N_R   0.069355 0.632847 0.150816 0.254585
O37   O     O_R   0.214591 0.591948 0.130117 -0.418735
O38   O     O_R   0.047948 0.717938 0.164259 -0.353704
O39   O     O_3   0.280544 0.382316 0.064128 -0.753219
H47   H     H_    0.216052 0.426880 0.048158 0.350081
N7    N     N_R   0.146651 0.069088 0.338048 0.259923
O40   O     O_R   0.992728 0.094878 0.353821 -0.392634
O41   O     O_R   0.187455 0.994546 0.280873 -0.279004
O42   O     O_3   0.772208 0.662671 0.495775 -0.708177
H48   H     H_    0.858195 0.626641 0.458092 0.341410
O43   O     O_3   0.429378 0.793645 0.227363 -0.583555
H49   H     H_    0.374440 0.742015 0.193135 0.392509

loop_
_geom_bond_atom_site_label_1
_geom_bond_atom_site_label_2
_geom_bond_distance
_ccdc_geom_bond_type
C51   H44   1.083860 S    
O5    C6    1.396056 S    
C19   C20   1.411589 A    
C12   H25   1.108565 S    
C52   C53   1.400584 A    
C21   H36   1.076911 S    
C5    H10   1.105742 S    
C14   H30   1.105782 S    
C14   H29   1.108735 S    
C35   C36   1.423147 A    
C27   C28   1.437820 A    
C4    C5    1.521921 S    
O6    P6    1.752043 S    
O7    Ba1   2.862651 S    
C54   C55   1.397803 A    
H1    C10   1.109407 S    
C29   C30   1.442309 A    
N1    O25   1.301129 A    
C17   C18   1.421581 A    
C10   H20   1.109001 S    
O16   Ba2   2.905412 S    
C50   H43   1.085314 S    
C11   C12   1.521699 S    
O43   H49   0.992332 S    
C7    H15   1.110531 S    
C4    H8    1.109900 S    
O11   C2    1.407435 S    
N3    O30   1.302552 A    
P1    C42   1.903336 S    
C16   O31   1.398715 S    
O2    Ba2   2.819540 S    
C17   C20   1.442390 A    
Ba2   O21   2.862827 S    
C36   C37   1.394983 A    
C34   H39   1.080089 S    
P1    Ba1   3.391399 S    
C30   C38   1.440214 A    
C38   C39   1.427115 A    
C11   H23   1.109905 S    
P1    O1    1.519908 D    
C9    H18   1.111002 S    
Ba1   O20   2.906177 S    
C43   H42   1.085093 S    
C43   C47   1.346099 D    
C40   C41   1.405319 A    
C19   H38   1.077804 S    
C23   C28   1.432186 A    
P2    O20   1.569424 S    
N3    O29   1.296507 A    
C15   C16   1.537758 S    
O39   H47   0.990644 S    
C20   C24   1.420666 A    
C26   H35   1.081628 S    
P5    O17   1.737338 S    
Ba1   O13   2.818993 S    
P2    O10   1.751197 S    
N5    O35   1.297213 A    
N7    O41   1.300923 A    
C18   C32   1.406754 A    
P7    C46   1.850835 S    
N6    O38   1.301852 A    
C33   N5    1.426573 S    
C13   N3    1.465534 S    
C12   H26   1.109653 S    
C5    H11   1.110919 S    
C9    H19   1.111504 S    
O6    C10   1.404738 S    
C34   C35   1.407749 A    
P4    O13   1.575160 S    
N4    O33   1.299993 A    
Ba2   O20   2.780787 S    
C8    H16   1.107829 S    
C47   C48   1.506471 S    
P2    C55   1.834043 S    
N4    O32   1.299799 A    
P7    O21   1.568141 D    
C4    O15   1.391784 S    
C6    C7    1.527249 S    
C2    C3    1.526072 S    
C4    H7    1.101375 S    
C8    C9    1.540193 S    
C43   C46   1.492186 S    
C7    N1    1.460676 S    
C23   C24   1.435239 A    
C13   C14   1.526908 S    
C15   H32   1.102547 S    
P1    O5    1.750028 S    
O16   P7    1.753948 S    
C11   H22   1.109328 S    
P1    O2    1.575160 S    
C7    H14   1.109963 S    
C6    H13   1.109113 S    
C44   C56   1.399163 A    
C16   N4    1.463898 S    
C3    O43   1.401656 S    
C15   H33   1.112630 S    
N7    O40   1.298350 A    
P8    O24   1.754204 S    
P3    C56   1.842871 S    
P5    O18   1.543050 D    
P5    C47   1.855304 S    
O13   Ba2   2.920874 S    
N6    O37   1.299617 A    
C41   H37   1.078655 S    
C1    C10   1.520365 S    
O2    Ba1   2.920108 S    
C39   N6    1.426016 S    
C1    H3    1.110189 S    
C9    N2    1.461385 S    
N2    O28   1.299070 A    
O14   Ba2   2.805822 S    
C29   C36   1.414907 A    
P3    O11   1.748987 S    
P2    O7    1.496868 D    
O12   Ba2   2.841853 S    
P3    O8    1.740939 S    
O3    P6    1.734849 S    
C14   H31   1.096820 S    
C16   H34   1.109700 S    
O14   P8    1.732421 S    
Ba1   O16   2.781315 S    
C48   C50   1.490227 S    
O19   C13   1.405895 S    
C54   H41   1.080646 S    
C5    H9    1.110797 S    
P4    O12   1.520219 D    
C22   C25   1.411299 A    
C51   C53   1.464646 S    
O42   H48   0.984878 S    
C1    H2    1.110034 S    
P8    O23   1.545657 D    
N1    O26   1.299793 A    
C44   O42   1.368959 S    
C52   C54   1.394394 A    
C41   C42   1.398701 A    
C2    H5    1.110801 S    
O4    P6    1.545582 D    
O31   H45   0.991014 S    
C45   C46   1.361757 D    
O8    Ba1   2.742748 S    
C45   C49   1.507563 S    
C32   O34   1.378331 S    
C25   C26   1.400709 A    
C31   C32   1.419859 A    
O17   Ba2   2.743332 S    
C6    H12   1.100379 S    
C2    H4    1.110339 S    
C19   C21   1.390739 A    
C21   C22   1.399231 A    
C53   C56   1.405508 A    
C13   H28   1.111614 S    
P2    Ba1   3.413119 S    
C44   C55   1.400329 A    
O34   H46   0.991269 S    
C8    H17   1.109584 S    
C15   O24   1.405057 S    
C22   C23   1.416920 A    
C37   C39   1.385537 A    
C11   O22   1.402188 S    
P5    O19   1.753881 S    
C31   C42   1.439955 A    
P8    C25   1.860541 S    
C38   C40   1.433517 A    
O10   C8    1.400649 S    
N5    O36   1.300053 A    
Ba1   Ba2   4.505485 S    
C26   C27   1.399485 A    
C18   O39   1.380122 S    
C37   H40   1.080260 S    
O3    Ba1   2.806430 S    
C17   C29   1.422293 A    
N2    O27   1.300593 A    
C12   H24   1.110809 S    
P6    C40   1.880503 S    
P4    Ba2   3.391907 S    
C24   C35   1.405810 A    
C1    H21   1.109021 S    
C45   N7    1.438262 S    
C30   C31   1.433044 A    
P3    O9    1.545422 D    
C33   C34   1.393539 A    
P4    C27   1.886110 S    
C3    H6    1.112415 S    
O1    Ba1   2.841352 S    
P7    O22   1.750275 S    
C48   C49   1.520791 S    
C28   C33   1.416968 A    
C3    H27   1.111142 S    
P4    O15   1.750681 S    
C50   C51   1.332396 D    
