data_mof_unit_4421.cif
_audit_creation_date              2012-12-11T15:55:40-0500
_audit_creation_method            fapswitch 2.2
_symmetry_space_group_name_H-M    P1
_symmetry_Int_Tables_number       1
_space_group_crystal_system       triclinic
_cell_length_a                    11.08582
_cell_length_b                    11.124252
_cell_length_c                    18.738969
_cell_angle_alpha                 90.935235
_cell_angle_beta                  91.312715
_cell_angle_gamma                 59.136635
_cell_volume                      1983.12638565

loop_
_atom_site_label
_atom_site_type_symbol
_atom_type_description
_atom_site_fract_x
_atom_site_fract_y
_atom_site_fract_z
_atom_type_partial_charge
C1    C     C_R   0.381093 0.719704 0.389342 0.573744
C2    C     C_R   0.633101 0.115949 0.172612 0.029273
C3    C     C_R   0.367534 0.327120 0.161907 -0.010912
C4    C     C_R   0.476470 0.233175 0.275554 -0.161203
C5    C     C_R   0.488272 0.225588 0.201523 -0.027750
C6    C     C_R   0.046685 0.616538 0.360233 -0.026423
C7    C     C_R   0.909434 0.683243 0.384913 -0.028732
C8    C     C_R   0.661021 0.001662 0.126382 -0.077753
C9    C     C_R   0.797293 0.898351 0.108472 -0.138823
C10   C     C_R   0.254535 0.438975 0.197672 -0.121450
C11   C     C_R   0.237685 0.439007 0.271668 0.052151
C12   C     C_R   0.382593 0.353081 0.388206 0.528943
C13   C     C_R   0.806064 0.680434 0.343452 -0.088073
C14   C     C_R   0.837558 0.620350 0.275985 -0.117584
C15   C     C_R   0.976944 0.539579 0.255280 -0.118588
C16   C     C_R   0.087787 0.529357 0.298555 0.057868
C17   C     C_R   0.356819 0.337683 0.311920 -0.002235
C18   C     C_R   0.865637 0.330805 0.183429 0.021766
C19   C     C_R   0.959733 0.236954 0.233922 0.011434
C20   C     C_R   0.928657 0.249788 0.304624 -0.000924
C21   C     C_R   0.695184 0.436302 0.276821 -0.154673
C22   C     C_R   0.727017 0.423582 0.203881 -0.182318
C23   C     C_R   0.771726 0.381152 0.402107 0.538080
C24   C     C_3   0.111790 0.177264 0.248924 -0.277507
C25   C     C_3   0.076138 0.195622 0.328087 -0.290154
C26   C     C_R   0.802362 0.358657 0.327842 0.041139
C27   C     C_R   0.374871 0.809486 0.168148 -0.046134
C28   C     C_R   0.461121 0.829805 0.217169 -0.031085
C29   C     C_R   0.457208 0.807322 0.289861 -0.048840
C30   C     C_R   0.300842 0.723601 0.264932 0.317498
C31   C     C_R   0.311194 0.737347 0.192305 -0.119873
C32   C     C_3   0.469976 0.956129 0.233462 -0.273643
C33   C     C_3   0.451297 0.939958 0.311042 -0.268237
C34   C     C_R   0.344933 0.769087 0.604533 0.554591
C35   C     C_R   0.372758 0.759417 0.314920 0.022561
C36   C     C_R   0.301577 0.307144 0.808599 -0.010598
C37   C     C_R   0.389865 0.188540 0.767946 0.024968
C38   C     C_R   0.397837 0.193307 0.695257 -0.027607
C39   C     C_R   0.210467 0.434100 0.697615 -0.168972
C40   C     C_R   0.204902 0.429023 0.772188 -0.181508
C41   C     C_3   0.542345 0.082909 0.777216 0.289894
C42   C     C_3   0.550568 0.079744 0.696876 0.266079
C43   C     C_R   0.319169 0.321396 0.659872 0.015752
C44   C     C_R   0.811738 0.337101 0.835763 0.008609
C45   C     C_R   0.369139 0.349074 0.594648 0.568634
C46   C     C_R   0.777075 0.461795 0.800440 0.096411
C47   C     C_R   0.767542 0.469147 0.727381 0.030664
C48   C     C_R   0.816895 0.232173 0.720417 -0.108586
C49   C     C_R   0.820798 0.225824 0.795157 -0.158285
C50   C     C_3   0.851411 0.543567 0.801843 -0.225951
C51   C     C_3   0.838372 0.551737 0.722015 -0.271944
C52   C     C_R   0.794834 0.353213 0.686201 0.004104
C53   C     C_R   0.296643 0.844088 0.825576 0.025913
C54   C     C_R   0.177658 0.888396 0.782012 -0.033705
C55   C     C_R   0.188586 0.879525 0.708354 -0.009926
C56   C     C_R   0.761663 0.378050 0.610794 0.546020
C57   C     C_R   0.436368 0.796059 0.720220 -0.104228
C58   C     C_R   0.426133 0.798385 0.794174 0.403113
C59   C     C_3   0.081252 0.831850 0.781761 -0.268518
C60   C     C_3   0.089389 0.826333 0.701579 -0.243625
C61   C     C_R   0.319386 0.828193 0.676265 -0.052827
C62   C     C_R   0.911226 0.315794 0.111170 0.546511
C63   C     C_R   0.331816 0.294477 0.091339 0.532083
C64   C     C_R   0.311157 0.895466 0.104191 0.533506
C65   C     C_R   0.880514 0.310984 0.905525 0.549382
C66   C     C_R   0.294186 0.286690 0.884500 0.540169
C67   C     C_R   0.911438 0.898339 0.139983 -0.064495
C68   C     C_R   0.275054 0.893358 0.898542 0.577230
C69   C     C_R   0.889273 0.000794 0.190008 -0.058851
C70   C     C_R   0.752431 0.108702 0.205385 -0.107710
Cr1   Cr    Cr6+3 0.601740 0.606840 0.505840 1.017519
Cr2   Cr    Cr6+3 0.291500 0.601560 0.495070 1.022702
Cr3   Cr    Cr6+3 0.606780 0.291630 0.499130 1.082926
Cr4   Cr    Cr6+3 0.062440 0.063060 0.008240 1.019518
Cr5   Cr    Cr6+3 0.062950 0.375000 0.998920 1.004824
Cr6   Cr    Cr6+3 0.374550 0.061770 0.992470 1.079154
H1    H     H_    0.566396 0.154125 0.305485 0.152205
H2    H     H_    0.701983 0.724457 0.363572 0.152161
H3    H     H_    0.754120 0.633117 0.240498 0.139575
H4    H     H_    0.997185 0.486029 0.204606 0.135191
H5    H     H_    0.589932 0.509158 0.293654 0.113486
H6    H     H_    0.646925 0.488917 0.165017 0.125810
H7    H     H_    0.151864 0.243787 0.229744 0.130724
H8    H     H_    0.171726 0.065976 0.232109 0.150316
H9    H     H_    0.118757 0.095179 0.357174 0.152140
H10   H     H_    0.091387 0.276614 0.355223 0.143098
H11   H     H_    0.814270 0.812850 0.073430 0.113634
H12   H     H_    0.249466 0.712496 0.156220 0.141084
H13   H     H_    0.385477 0.052986 0.208162 0.150832
H14   H     H_    0.578797 0.931074 0.227112 0.148377
H15   H     H_    0.538523 0.930256 0.345083 0.139304
H16   H     H_    0.348246 0.020304 0.331507 0.145937
H17   H     H_    0.137293 0.529314 0.670264 0.129271
H18   H     H_    0.129899 0.521090 0.801167 0.117360
H19   H     H_    0.602425 0.125116 0.805298 0.142364
H20   H     H_    0.570060 0.980242 0.671705 0.143387
H21   H     H_    0.837750 0.141353 0.689409 0.201913
H22   H     H_    0.844211 0.130248 0.820952 0.135509
H23   H     H_    0.961781 0.478979 0.819808 0.154083
H24   H     H_    0.792401 0.646932 0.828782 0.240660
H25   H     H_    0.769109 0.659756 0.702097 0.169822
H26   H     H_    0.940331 0.492301 0.694494 0.138605
H27   H     H_    0.538475 0.756034 0.697601 0.154085
H28   H     H_    0.974980 0.906620 0.801426 0.154287
H29   H     H_    0.016501 0.814907 0.128058 0.124861
H30   H     H_    0.131104 0.727100 0.806942 0.135222
H31   H     H_    0.140605 0.718487 0.680746 0.166901
H32   H     H_    0.989055 0.901364 0.674253 0.168436
H33   H     H_    0.978745 0.993671 0.218203 0.150657
H34   H     H_    0.738881 0.182302 0.246796 0.131523
H35   H     H_    0.111547 0.648536 0.386551 0.229260
H36   H     H_    0.582932 0.976628 0.110374 0.173456
H37   H     H_    0.168581 0.519522 0.166166 0.133939
O1    O     O_R   0.748670 0.497520 0.427970 -0.527992
O2    O     O_R   0.300170 0.471020 0.567120 -0.525381
O3    O     O_R   0.491630 0.259030 0.574940 -0.427621
O4    O     O_R   0.718640 0.304340 0.577850 -0.460177
O5    O     O_3   0.500010 0.500010 0.500020 -0.283081
O6    O     O_R   0.186620 0.923750 0.087000 -0.532595
O7    O     O_R   0.957350 0.194160 0.084660 -0.489133
O8    O     O_R   0.935120 0.407280 0.085350 -0.530585
O9    O     O_R   0.203800 0.365060 0.067090 -0.515088
O10   O     O_R   0.417470 0.174910 0.067830 -0.536583
O11   O     O_R   0.375160 0.946380 0.070880 -0.514100
O12   O     O_R   0.476470 0.723930 0.429450 -0.519587
O13   O     O_R   0.160500 0.919670 0.926690 -0.535505
O14   O     O_R   0.933140 0.190380 0.936050 -0.503289
O15   O     O_R   0.909010 0.403210 0.925030 -0.518579
O16   O     O_R   0.179590 0.361290 0.918480 -0.517503
O17   O     O_R   0.391360 0.170840 0.907510 -0.469486
O18   O     O_R   0.350950 0.942600 0.922260 -0.415964
O19   O     O_3   0.166650 0.166610 0.999880 -0.268074
O20   O     O_R   0.264730 0.744140 0.416740 -0.481475
O21   O     O_R   0.309440 0.472410 0.418220 -0.528270
O22   O     O_R   0.501630 0.260530 0.414310 -0.527064
O23   O     O_R   0.727920 0.305730 0.428950 -0.503180
O24   O     O_R   0.738670 0.496020 0.588600 -0.521430
O25   O     O_R   0.467190 0.722540 0.578350 -0.505957
O26   O     O_R   0.254720 0.742640 0.577370 -0.511337
F1    F     F_    0.204954 0.694165 0.286185 -0.679657
F2    F     F_    0.566193 0.958523 0.804620 -0.611434
F3    F     F_    0.641329 0.121152 0.675516 -0.663071
C71   C     C_1   0.873467 0.760551 0.451213 0.171350
N1    N     N_1   0.844624 0.822567 0.504457 -0.296656
F4    F     F_    0.542912 0.751273 0.835792 -0.605455

loop_
_geom_bond_atom_site_label_1
_geom_bond_atom_site_label_2
_ccdc_geom_bond_type
C44   C49   A    
C7    C13   A    
C21   C26   A    
Cr4   O19   S    
C63   O10   A    
Cr5   O9    S    
C41   C42   S    
C19   C20   A    
C15   H4    S    
C7    C71   S    
C57   C58   A    
C58   F4    S    
Cr1   O24   S    
C41   H19   S    
C53   C54   A    
C51   H26   S    
C48   H21   S    
Cr2   O2    S    
C50   H23   S    
C64   O6    A    
C23   O23   A    
C42   H20   S    
C59   H28   S    
C22   H6    S    
C21   C22   A    
C28   C29   A    
C24   H7    S    
C1    O12   A    
C38   C42   S    
C8    H36   S    
C30   C31   A    
Cr6   O18   S    
C36   C66   S    
C20   C25   S    
C15   C16   A    
C29   C33   S    
C34   O26   A    
Cr5   O15   S    
C56   O4    A    
C23   C26   S    
C4    H1    S    
C53   C68   S    
C39   H17   S    
C70   H34   S    
C49   H22   S    
C46   C47   A    
C52   C56   S    
Cr6   O17   S    
Cr2   O26   S    
C32   H14   S    
Cr3   O22   S    
C8    C9    A    
C12   O22   A    
C12   C17   S    
C42   F3    S    
C31   H12   S    
C62   O7    A    
C60   H32   S    
C66   O16   A    
C59   C60   S    
C12   O21   A    
C55   C60   S    
C44   C65   S    
C69   H33   S    
Cr4   O14   S    
C1    O20   A    
Cr5   O8    S    
C44   C46   A    
Cr1   O25   S    
C54   C59   S    
C57   H27   S    
C2    C8    A    
C59   H30   S    
Cr3   O4    S    
C27   C31   A    
Cr6   O11   S    
C65   O15   A    
C28   C32   S    
C30   F1    S    
C24   C25   S    
C10   C11   A    
C33   H16   S    
C39   C40   A    
C18   C19   A    
C39   C43   A    
C64   O11   A    
C34   O25   A    
C34   C61   S    
Cr1   O1    S    
C67   C69   A    
C68   O18   A    
C9    C67   A    
C41   F2    S    
C37   C38   A    
Cr4   O6    S    
C43   C45   S    
C11   C16   S    
C45   O2    A    
Cr2   O21   S    
C32   H13   S    
Cr3   O23   S    
C36   C40   A    
C25   H9    S    
C50   C51   S    
C14   H3    S    
Cr3   O3    S    
C47   C52   A    
C60   H31   S    
C4    C17   A    
C30   C35   A    
C48   C49   A    
C21   H5    S    
C2    C5    S    
C68   O13   A    
C63   O9    A    
Cr5   O19   S    
C1    C35   S    
C46   C50   S    
C54   C55   A    
C36   C37   A    
C10   H37   S    
Cr3   O5    S    
Cr1   O5    S    
C18   C22   A    
Cr6   O10   S    
C65   O14   A    
C67   H29   S    
C40   H18   S    
C4    C5    A    
C3    C5    A    
C11   C17   A    
C47   C51   S    
C53   C58   A    
C57   C61   A    
C6    C7    A    
C3    C63   S    
C51   H25   S    
Cr4   O7    S    
C29   C35   A    
C50   H24   S    
C32   C33   S    
C33   H15   S    
C19   C24   S    
C24   H8    S    
C38   C43   A    
C3    C10   A    
C2    C70   A    
C9    H11   S    
C23   O1    A    
C56   O24   A    
Cr6   O19   S    
C45   O3    A    
Cr2   O20   S    
Cr4   O13   S    
C20   C26   A    
C55   C61   A    
C25   H10   S    
C6    H35   S    
C37   C41   S    
C69   C70   A    
C27   C64   S    
C13   H2    S    
C6    C16   A    
Cr5   O16   S    
C48   C52   A    
Cr2   O5    S    
C27   C28   A    
C14   C15   A    
Cr1   O12   S    
C18   C62   S    
C13   C14   A    
C62   O8    A    
C71   N1    T    
C66   O17   A    
