data_mof_unit_2677.cif
_audit_creation_date              2012-12-10T20:25:40-0500
_audit_creation_method            fapswitch 2.2
_symmetry_space_group_name_H-M    P1
_symmetry_Int_Tables_number       1
_space_group_crystal_system       triclinic
_cell_length_a                    8.636823
_cell_length_b                    10.722094
_cell_length_c                    9.933636
_cell_angle_alpha                 88.525476
_cell_angle_beta                  98.756634
_cell_angle_gamma                 91.93718
_cell_volume                      908.463205016

loop_
_atom_site_label
_atom_site_type_symbol
_atom_type_description
_atom_site_fract_x
_atom_site_fract_y
_atom_site_fract_z
_atom_type_partial_charge
C1    C     C_R   0.507048 0.259880 0.502039 0.935135
C2    C     C_R   0.364813 0.473825 0.911954 -0.140030
C3    C     C_3   0.262653 0.358455 0.893850 0.884634
C4    C     C_R   0.201476 0.497744 0.464005 0.845264
C5    C     C_3   0.276725 0.346411 0.048395 0.892012
C6    C     C_R   0.508936 0.739847 0.499509 0.937105
C7    C     C_R   0.798433 0.499430 0.535334 0.955820
C8    C     C_2   0.036102 0.482236 0.444856 0.290490
C9    C     C_2   0.963512 0.506085 0.550878 -0.313365
C10   C     C_R   0.556988 0.059914 0.627554 -0.076770
C11   C     C_R   0.538504 0.128932 0.505750 -0.205169
C12   C     C_R   0.559295 0.940460 0.382152 0.677961
C13   C     C_R   0.558623 0.069670 0.385059 -0.179919
C14   C     C_R   0.541822 0.871352 0.501384 -0.215674
C15   C     C_R   0.559783 0.932103 0.625181 -0.247571
C16   C     C_3   0.469896 0.916276 0.742533 0.913329
C17   C     C_3   0.465221 0.057069 0.743395 0.509891
C18   C     C_R   0.367394 0.468267 0.054618 -0.213698
C19   C     C_R   0.623955 0.547863 0.087396 0.743679
C20   C     C_R   0.624276 0.549077 0.944338 0.419500
F1    F     F_    0.330857 0.265787 0.834378 -0.628009
F2    F     F_    0.135317 0.351762 0.096001 -0.623952
F3    F     F_    0.562951 0.884967 0.261350 -0.575879
F4    F     F_    0.322698 0.860260 0.708091 -0.643162
F5    F     F_    0.551316 0.108363 0.859078 -0.578418
F6    F     F_    0.747346 0.600439 0.169205 -0.572899
H1    H     H_    0.025044 0.541879 0.646122 0.172945
H2    H     H_    0.561992 0.121603 0.290720 0.232937
H3    H     H_    0.344882 0.091270 0.713408 0.151315
H4    H     H_    0.014185 0.459936 0.249593 0.419616
H5    H     H_    0.710575 0.646242 0.808676 0.372524
H6    H     H_    0.069426 0.453085 0.868798 0.344299
H7    H     H_    0.468881 0.249842 0.076045 0.340927
H8    H     H_    0.665581 0.892579 0.869128 0.361179
N1    N     N_R   0.498950 0.499140 0.142680 -0.189790
N2    N     N_R   0.498950 0.499180 0.857030 -0.151497
O1    O     O_R   0.500020 0.316790 0.614690 -0.549300
O2    O     O_3   0.750825 0.605295 0.896509 -0.691125
O3    O     O_3   0.109621 0.379485 0.827772 -0.710341
O4    O     O_3   0.363983 0.244330 0.105602 -0.682964
O5    O     O_3   0.554751 0.861932 0.860594 -0.661430
O6    O     O_R   0.500000 0.316760 0.385350 -0.601453
O7    O     O_R   0.271760 0.500010 0.587850 -0.598021
O8    O     O_R   0.271740 0.499970 0.358500 -0.591303
O9    O     O_R   0.500000 0.683240 0.614650 -0.607787
O10   O     O_R   0.499980 0.683210 0.385310 -0.544192
O11   O     O_R   0.728260 0.500030 0.641500 -0.631626
O12   O     O_R   0.728240 0.499990 0.412150 -0.513515
O13   O     O_3   0.956727 0.434029 0.324747 -0.656079
Zn1   Zn    Zn3+2 0.500010 0.500020 0.653130 1.076690
Zn2   Zn    Zn3+2 0.499990 0.499980 0.346870 1.117687

loop_
_geom_bond_atom_site_label_1
_geom_bond_atom_site_label_2
_ccdc_geom_bond_type
C13   H2    S    
C6    O9    A    
C2    C18   A    
C17   H3    S    
C18   N1    A    
C19   C20   A    
C1    C11   S    
H5    O2    S    
C1    O1    A    
O6    Zn2   S    
C4    C8    S    
C17   F5    S    
C7    O12   A    
C2    C3    S    
C3    O3    S    
O7    Zn1   S    
C19   N1    A    
O1    Zn1   S    
C11   C13   A    
C12   F3    S    
C6    O10   A    
H8    O5    S    
O9    Zn1   S    
C8    O13   S    
O8    Zn2   S    
C4    O7    A    
H4    O13   S    
C12   C14   A    
O11   Zn1   S    
C10   C15   A    
N1    Zn2   S    
C3    F1    S    
H7    O4    S    
C6    C14   S    
C10   C11   A    
C10   C17   S    
C15   C16   S    
C20   N2    A    
C1    O6    A    
C20   O2    S    
C12   C13   A    
C9    H1    S    
C16   F4    S    
H6    O3    S    
C2    N2    A    
C7    C9    S    
C19   F6    S    
C14   C15   A    
C8    C9    D    
C5    C18   S    
C4    O8    A    
C3    C5    S    
C5    O4    S    
O10   Zn2   S    
O12   Zn2   S    
C5    F2    S    
N2    Zn1   S    
C16   C17   S    
C16   O5    S    
C7    O11   A    
