data_mof_unit_1564.cif
_audit_creation_date              2012-10-26T19:02:36-0400
_audit_creation_method            fapswitch 2.2
_symmetry_space_group_name_H-M    P1
_symmetry_Int_Tables_number       1
_space_group_crystal_system       triclinic
_cell_length_a                    17.200827
_cell_length_b                    8.803489
_cell_length_c                    7.420438
_cell_angle_alpha                 102.896533
_cell_angle_beta                  90.421626
_cell_angle_gamma                 93.481977
_cell_volume                      1093.0376505

loop_
_atom_site_label
_atom_site_type_symbol
_atom_type_description
_atom_site_fract_x
_atom_site_fract_y
_atom_site_fract_z
_atom_type_partial_charge
C1    C     C_R   0.490234 0.200402 0.457579 0.549361
C2    C     C_R   0.782480 0.465210 0.583776 0.270572
C3    C     C_R   0.139487 0.542369 0.407308 -0.103167
C4    C     C_R   0.861810 0.510246 0.593461 -0.093981
C5    C     C_R   0.110526 0.604107 0.583109 0.001973
C6    C     C_R   0.893971 0.597428 0.471889 -0.006417
C7    C     C_R   0.159942 0.627913 0.738453 -0.146778
C8    C     C_R   0.846243 0.632531 0.334873 -0.141839
C9    C     C_R   0.237632 0.593422 0.718719 -0.191974
C10   C     C_R   0.766478 0.592857 0.329190 -0.183764
C11   C     C_2   0.026843 0.626452 0.609307 -0.138654
C12   C     C_R   0.495778 0.798911 0.548331 0.545212
C13   C     C_2   0.978451 0.635004 0.469406 -0.137953
C14   C     C_3   0.197069 0.344460 0.086977 -0.000370
C15   C     C_3   0.243760 0.252545 0.929179 -0.254157
C16   C     C_3   0.191333 0.131601 0.795409 -0.485314
C17   C     C_3   0.774794 0.212931 0.617074 -0.009775
C18   C     C_3   0.732034 0.139548 0.432201 -0.281847
C19   C     C_3   0.742030 0.965255 0.374775 -0.483766
C20   C     C_3   0.411284 0.954540 0.289492 -0.258094
C21   C     C_3   0.335281 0.038629 0.297170 -0.312742
C22   C     C_3   0.272646 0.940380 0.167272 -0.464906
C23   C     C_2   0.467906 0.035940 0.446391 -0.041257
C24   C     C_3   0.512223 0.051767 0.784006 -0.224472
C25   C     C_3   0.600602 0.084753 0.808728 -0.289855
C26   C     C_3   0.624686 0.144484 0.010774 -0.423862
C27   C     C_2   0.489898 0.966375 0.584079 -0.043651
C28   C     C_R   0.350789 0.506893 0.525902 0.544512
C29   C     C_R   0.649130 0.499393 0.474086 0.561567
C30   C     C_R   0.267084 0.531659 0.543320 0.017052
C31   C     C_R   0.733757 0.516350 0.459644 0.014746
C32   C     C_R   0.217326 0.503615 0.384444 0.251450
Cu1   Cu    Cu3+1 0.508700 0.517250 0.683000 0.934326
Cu2   Cu    Cu3+1 0.491300 0.482750 0.317000 0.919765
H1    H     H_    0.730020 0.626845 0.227160 0.137651
H2    H     H_    0.564301 0.613593 0.040204 0.240490
H3    H     H_    0.154020 0.408227 0.024954 0.129685
H4    H     H_    0.166300 0.260535 0.158944 0.120239
H5    H     H_    0.273121 0.333531 0.852379 0.172041
H6    H     H_    0.289823 0.192802 0.985889 0.162520
H7    H     H_    0.159920 0.050893 0.869745 0.147187
H8    H     H_    0.227201 0.061631 0.688055 0.144528
H9    H     H_    0.148345 0.190523 0.726770 0.151752
H10   H     H_    0.759794 0.141532 0.719073 0.148032
H11   H     H_    0.838973 0.208502 0.600180 0.119222
H12   H     H_    0.274942 0.616668 0.841288 0.151642
H13   H     H_    0.668961 0.159261 0.442684 0.170849
H14   H     H_    0.756119 0.194953 0.322275 0.150545
H15   H     H_    0.804857 0.944174 0.360126 0.153642
H16   H     H_    0.711684 0.916641 0.239786 0.142600
H17   H     H_    0.716699 0.905067 0.479320 0.150614
H18   H     H_    0.292790 0.916573 0.022356 0.154738
H19   H     H_    0.258695 0.827717 0.207509 0.175295
H20   H     H_    0.218628 0.004129 0.175823 0.139724
H21   H     H_    0.313161 0.061199 0.440242 0.152926
H22   H     H_    0.346004 0.152697 0.258775 0.198530
H23   H     H_    0.001592 0.659294 0.342420 0.112053
H24   H     H_    0.439313 0.949755 0.154612 0.145059
H25   H     H_    0.392859 0.833984 0.297732 0.196473
H26   H     H_    0.598797 0.257012 0.064470 0.226565
H27   H     H_    0.605176 0.059098 0.093593 0.148058
H28   H     H_    0.689037 0.163628 0.023043 0.134872
H29   H     H_    0.630666 0.976418 0.753096 0.155412
H30   H     H_    0.619974 0.174207 0.732601 0.218081
H31   H     H_    0.478954 0.154929 0.836289 0.155487
H32   H     H_    0.492338 0.979971 0.881874 0.149713
H33   H     H_    0.003968 0.622143 0.744089 0.110363
H34   H     H_    0.138341 0.673185 0.875553 0.110472
H35   H     H_    0.870534 0.692975 0.233963 0.112398
H36   H     H_    0.897791 0.469998 0.691074 0.104006
H37   H     H_    0.101299 0.521548 0.287586 0.083691
H38   H     H_    0.433870 0.391031 0.961559 0.233603
N1    N     N_2   0.478180 0.456750 0.041980 -0.271294
N2    N     N_2   0.521820 0.543250 0.958020 -0.259314
O1    O     O_R   0.505650 0.286040 0.618880 -0.517172
O2    O     O_3   0.752523 0.366576 0.691171 -0.569468
O3    O     O_R   0.494350 0.713960 0.381120 -0.519602
O4    O     O_R   0.490960 0.256910 0.309800 -0.522992
O5    O     O_R   0.509040 0.743090 0.690200 -0.510571
O6    O     O_R   0.394600 0.516230 0.672450 -0.530406
O7    O     O_R   0.605400 0.483770 0.327550 -0.535327
O8    O     O_R   0.379910 0.487100 0.363380 -0.449461
O9    O     O_R   0.620090 0.512900 0.636620 -0.455455
O10   O     O_3   0.248241 0.452225 0.209298 -0.561642

loop_
_geom_bond_atom_site_label_1
_geom_bond_atom_site_label_2
_ccdc_geom_bond_type
N1    N2    D    
C2    C4    A    
C24   C27   S    
C14   O10   S    
C18   H13   S    
C4    H36   S    
C21   H21   S    
C22   H20   S    
C8    H35   S    
C26   H27   S    
C17   H11   S    
C5    C11   S    
Cu2   O3    S    
C13   H23   S    
C15   C16   S    
C12   O5    A    
C18   C19   S    
C25   H29   S    
C7    H34   S    
C10   C31   A    
Cu1   O1    S    
C17   O2    S    
C10   H1    S    
Cu2   O7    S    
C23   C27   D    
C24   H32   S    
C9    H12   S    
C21   C22   S    
C1    O4    A    
C11   H33   S    
Cu1   Cu2   S    
C22   H19   S    
C32   O10   S    
C12   C27   S    
C28   O8    A    
C1    O1    A    
C24   C25   S    
C4    C6    A    
C5    C7    A    
Cu1   O5    S    
C6    C8    A    
C25   C26   S    
C2    C31   A    
C25   H30   S    
C3    H37   S    
C29   O7    A    
C14   H4    S    
C19   H15   S    
C20   C23   S    
C12   O3    A    
C17   C18   S    
C20   H25   S    
Cu1   O9    S    
C16   H9    S    
C15   H5    S    
H2    N2    S    
C9    C30   A    
C24   H31   S    
C1    C23   S    
C20   H24   S    
C16   H8    S    
C2    O2    S    
C22   H18   S    
C7    C9    A    
H38   N1    S    
C3    C5    A    
C18   H14   S    
C21   H22   S    
Cu1   O6    S    
C29   O9    A    
C28   C30   S    
C26   H28   S    
C17   H10   S    
C29   C31   S    
Cu2   O4    S    
C14   H3    S    
C30   C32   A    
C11   C13   D    
C19   H16   S    
C3    C32   A    
C28   O6    A    
C15   H6    S    
Cu2   N1    S    
C19   H17   S    
Cu1   N2    S    
C20   C21   S    
C8    C10   A    
C14   C15   S    
Cu2   O8    S    
C26   H26   S    
C16   H7    S    
C6    C13   S    
