data_mof_unit_4944.cif
_audit_creation_date              2012-12-10T19:47:43-0500
_audit_creation_method            fapswitch 2.2
_symmetry_space_group_name_H-M    P1
_symmetry_Int_Tables_number       1
_space_group_crystal_system       triclinic
_cell_length_a                    18.355361
_cell_length_b                    18.284905
_cell_length_c                    18.344538
_cell_angle_alpha                 119.557568
_cell_angle_beta                  90.39052
_cell_angle_gamma                 120.069562
_cell_volume                      4363.11011744

loop_
_atom_site_label
_atom_site_type_symbol
_atom_type_description
_atom_site_fract_x
_atom_site_fract_y
_atom_site_fract_z
_atom_type_partial_charge
C1    C     C_R   0.640130 0.779970 0.640429 0.795479
C2    C     C_R   0.205346 0.948997 0.157814 -0.026104
C3    C     C_R   0.397876 0.959636 0.988077 -0.136217
C4    C     C_R   0.355189 0.930159 0.905589 -0.181166
C5    C     C_R   0.292629 0.825655 0.837712 -0.187293
C6    C     C_R   0.192042 0.891619 0.193812 -0.143290
C7    C     C_R   0.360155 0.220327 0.360350 0.810100
C8    C     C_R   0.237165 0.945839 0.284089 0.019444
C9    C     C_3   0.210558 0.939060 0.359681 0.072495
C10   C     C_3   0.274577 0.058634 0.419171 -0.178477
C11   C     C_R   0.788675 0.568218 0.340813 0.078404
C12   C     C_R   0.695651 0.505508 0.304559 -0.076262
C13   C     C_R   0.655509 0.447177 0.212298 -0.288250
C14   C     C_R   0.706461 0.441690 0.156059 -0.049232
C15   C     C_3   0.674635 0.384182 0.652637 -0.066709
C16   C     C_R   0.801153 0.499757 0.193525 -0.125171
C17   C     C_R   0.840215 0.564955 0.286272 0.120642
C18   C     C_3   0.904793 0.574305 0.346639 -0.080884
C19   C     C_R   0.361272 0.500400 0.641015 0.810760
C20   C     C_3   0.847960 0.578653 0.406823 -0.539817
C21   C     C_R   0.789285 0.947098 0.726067 0.077539
C22   C     C_R   0.696285 0.891598 0.702355 -0.087948
C23   C     C_R   0.658334 0.945400 0.743045 -0.213423
C24   C     C_R   0.711962 0.053183 0.796598 -0.238562
C25   C     C_R   0.804118 0.108158 0.810343 -0.062108
C26   C     C_3   0.698464 0.495646 0.695265 0.137565
C27   C     C_R   0.842163 0.053659 0.778769 0.090259
C28   C     C_3   0.904910 0.061062 0.726980 -0.463126
C29   C     C_3   0.846804 0.943604 0.668426 -0.097375
C30   C     C_R   0.300121 0.585013 0.337749 0.067455
C31   C     C_R   0.640110 0.500495 0.360307 0.804214
C32   C     C_R   0.312886 0.506510 0.300614 -0.133867
C33   C     C_R   0.283401 0.438249 0.205992 -0.036518
C34   C     C_R   0.230620 0.441025 0.154176 -0.285336
C35   C     C_R   0.205527 0.508513 0.194471 -0.071215
C36   C     C_R   0.246250 0.584996 0.285423 0.087212
C37   C     C_3   0.800565 0.498348 0.799771 0.133478
C38   C     C_3   0.208217 0.622855 0.355253 -0.506248
C39   C     C_3   0.268322 0.623904 0.414163 -0.201439
C40   C     C_R   0.273003 0.556037 0.720674 0.106987
C41   C     C_R   0.310405 0.502079 0.701316 -0.165842
C42   C     C_R   0.299383 0.453415 0.745799 -0.057370
C43   C     C_R   0.359862 0.500364 0.358632 0.792197
C44   C     C_R   0.246052 0.454829 0.801015 0.034602
C45   C     C_R   0.205799 0.508269 0.814993 -0.162669
C46   C     C_R   0.228687 0.565252 0.779245 0.051623
C47   C     C_3   0.216817 0.636806 0.770887 -0.189721
C48   C     C_3   0.752599 0.547622 0.852244 -0.068522
C49   C     C_3   0.263654 0.620512 0.700361 -0.524881
C50   C     C_R   0.859236 0.498687 0.139415 0.810849
C51   C     C_R   0.142702 0.502630 0.862996 0.798007
C52   C     C_R   0.137261 0.779671 0.139392 0.798267
C53   C     C_R   0.859862 0.219933 0.860290 0.795045
C54   C     C_R   0.141689 0.500846 0.140557 0.810665
C55   C     C_R   0.641179 0.497356 0.638778 0.750231
C56   C     C_R   0.858697 0.499825 0.858498 0.749190
C57   C     C_3   0.798710 0.565933 0.707613 -0.445223
C58   C     C_3   0.857384 0.561573 0.763565 -0.443889
C59   C     C_3   0.731235 0.386054 0.717353 -0.362845
C60   C     C_3   0.689458 0.540401 0.788941 -0.376960
C61   C     C_R   0.148451 0.903834 0.069429 0.175397
C62   C     C_R   0.187940 0.919903 0.008850 -0.153832
C63   C     C_R   0.136275 0.890094 0.930533 -0.142364
C64   C     C_R   0.045055 0.846801 0.913483 -0.136371
C65   C     C_R   0.005215 0.831491 0.973921 -0.161663
C66   C     C_R   0.056348 0.858768 0.051165 -0.116062
C67   C     C_R   0.111810 0.893090 0.352800 0.223509
C68   C     C_R   0.079315 0.863782 0.410130 -0.163037
C69   C     C_R   0.991304 0.826837 0.408559 -0.155258
C70   C     C_R   0.294075 0.051555 0.337510 0.031951
C71   C     C_R   0.933666 0.817236 0.349294 -0.098984
C72   C     C_R   0.964692 0.847407 0.293173 -0.162975
C73   C     C_R   0.053184 0.886571 0.295784 -0.191217
C74   C     C_R   0.655552 0.366293 0.059615 0.180841
C75   C     C_R   0.613513 0.386854 0.015676 -0.175796
C76   C     C_R   0.557961 0.311444 0.926701 -0.158956
C77   C     C_R   0.544006 0.215246 0.881087 -0.123834
C78   C     C_R   0.585048 0.193949 0.924723 -0.147491
C79   C     C_R   0.640482 0.269044 0.013845 -0.092530
C80   C     C_R   0.296707 0.355436 0.157816 0.181815
C81   C     C_R   0.306336 0.108952 0.303936 -0.066669
C82   C     C_R   0.372231 0.374237 0.131381 -0.115190
C83   C     C_R   0.383364 0.294817 0.084371 -0.133372
C84   C     C_R   0.319162 0.196512 0.063372 -0.106724
C85   C     C_R   0.243522 0.177397 0.088987 -0.151724
C86   C     C_R   0.232216 0.256500 0.136066 -0.137230
C87   C     C_R   0.340570 0.730974 0.495374 0.212531
C88   C     C_R   0.344487 0.751746 0.580451 -0.115078
C89   C     C_R   0.409232 0.850088 0.656637 -0.165945
C90   C     C_R   0.470759 0.928802 0.648625 -0.124152
C91   C     C_R   0.467770 0.909243 0.564436 -0.146293
C92   C     C_R   0.265017 0.056697 0.212807 -0.288362
C93   C     C_R   0.403064 0.811028 0.488081 -0.158728
C94   C     C_R   0.343543 0.402412 0.739531 0.213643
C95   C     C_R   0.298382 0.295934 0.675772 -0.075001
C96   C     C_R   0.334254 0.244901 0.677903 -0.123012
C97   C     C_R   0.414268 0.299451 0.744464 -0.141545
C98   C     C_R   0.458924 0.405258 0.808772 -0.176358
C99   C     C_R   0.424192 0.456946 0.805997 -0.133688
C100  C     C_R   0.273695 0.749120 0.850786 0.208882
C101  C     C_R   0.314598 0.780043 0.935459 -0.093024
C102  C     C_R   0.376248 0.884767 0.003523 -0.163353
H1    H     H_    0.820972 0.647271 0.741497 0.188883
H2    H     H_    0.882741 0.655215 0.471751 0.190795
H3    H     H_    0.587091 0.904595 0.730930 0.180602
H4    H     H_    0.680835 0.093035 0.824088 0.165888
H5    H     H_    0.902455 0.094900 0.691403 0.174396
H6    H     H_    0.973251 0.097184 0.767627 0.211182
H7    H     H_    0.812184 0.908593 0.598254 0.158006
H8    H     H_    0.889260 0.526171 0.722089 0.180386
H9    H     H_    0.204224 0.385091 0.082519 0.183160
H10   H     H_    0.226008 0.700171 0.377594 0.212557
H11   H     H_    0.135783 0.564132 0.336420 0.199022
H12   H     H_    0.687755 0.335721 0.737806 0.187714
H13   H     H_    0.229479 0.565731 0.428944 0.145504
H14   H     H_    0.145734 0.604873 0.743220 0.154902
H15   H     H_    0.912021 0.641136 0.819143 0.203184
H16   H     H_    0.217973 0.573870 0.631406 0.180236
H17   H     H_    0.330100 0.689945 0.718351 0.213677
H18   H     H_    0.706498 0.618949 0.817445 0.133642
H19   H     H_    0.804951 0.630950 0.903945 0.133320
H20   H     H_    0.693643 0.362001 0.591459 0.130508
H21   H     H_    0.766770 0.352444 0.681823 0.129907
H22   H     H_    0.747695 0.526192 0.953446 0.200013
H23   H     H_    0.619226 0.493333 0.784181 0.185689
H24   H     H_    0.662077 0.422766 0.856010 0.211171
H25   H     H_    0.259214 0.959241 0.024354 0.149173
H26   H     H_    0.167449 0.903356 0.884432 0.133774
H27   H     H_    0.005300 0.825679 0.853745 0.122411
H28   H     H_    0.934865 0.799545 0.961329 0.112639
H29   H     H_    0.024869 0.848409 0.098168 0.092064
H30   H     H_    0.121945 0.870740 0.457568 0.119079
H31   H     H_    0.967777 0.805689 0.453579 0.132008
H32   H     H_    0.865339 0.787784 0.347780 0.122153
H33   H     H_    0.920573 0.842284 0.248631 0.123411
H34   H     H_    0.273089 0.100064 0.185594 0.179486
H35   H     H_    0.075588 0.914659 0.255119 0.116000
H36   H     H_    0.259818 0.923824 0.448988 0.155017
H37   H     H_    0.305025 0.909543 0.368856 0.176139
H38   H     H_    0.197342 0.089798 0.492490 0.176926
H39   H     H_    0.184769 0.091759 0.402413 0.194422
H40   H     H_    0.622691 0.460532 0.050707 0.125797
H41   H     H_    0.525106 0.327391 0.893481 0.128876
H42   H     H_    0.500665 0.156903 0.812280 0.119505
H43   H     H_    0.572804 0.118763 0.889905 0.112295
H44   H     H_    0.670586 0.251122 0.047605 0.107230
H45   H     H_    0.334571 0.091710 0.471159 0.161278
H46   H     H_    0.838425 0.416048 0.279597 0.190047
H47   H     H_    0.940106 0.488380 0.355137 0.180951
H48   H     H_    0.915223 0.926113 0.741980 0.193887
H49   H     H_    0.848933 0.820972 0.637710 0.217206
H50   H     H_    0.422168 0.450066 0.147178 0.111124
H51   H     H_    0.441476 0.309280 0.063835 0.129554
H52   H     H_    0.327804 0.135108 0.026936 0.118373
H53   H     H_    0.193400 0.101328 0.072292 0.143312
H54   H     H_    0.173328 0.240819 0.155502 0.116133
H55   H     H_    0.296774 0.691898 0.587687 0.108119
H56   H     H_    0.583381 0.400211 0.182949 0.178932
H57   H     H_    0.411673 0.865339 0.721926 0.128814
H58   H     H_    0.520851 0.004878 0.707624 0.120935
H59   H     H_    0.515488 0.970316 0.558323 0.129842
H60   H     H_    0.401585 0.797728 0.423508 0.125497
H61   H     H_    0.234552 0.252552 0.626179 0.111641
H62   H     H_    0.299230 0.162674 0.629362 0.118623
H63   H     H_    0.441220 0.259418 0.746429 0.117397
H64   H     H_    0.519873 0.447046 0.861482 0.139341
H65   H     H_    0.458301 0.538504 0.857277 0.113437
H66   H     H_    0.255898 0.455341 0.912425 0.204198
H67   H     H_    0.808392 0.540860 0.641754 0.174965
H68   H     H_    0.171390 0.338503 0.816908 0.219841
H69   H     H_    0.301087 0.723912 0.948793 0.116239
H70   H     H_    0.408185 0.907838 0.068011 0.127881
H71   H     H_    0.446261 0.040576 0.040590 0.130658
H72   H     H_    0.370870 0.988276 0.894094 0.134336
H73   H     H_    0.261578 0.804048 0.773531 0.127894
H74   H     H_    0.552463 0.329437 0.674128 0.218434
H75   H     H_    0.544096 0.280805 0.565570 0.201487
H76   H     H_    0.973303 0.646449 0.376987 0.175180
H77   H     H_    0.813566 0.511702 0.411628 0.197372
N1    N     N_3   0.703009 0.503137 0.898408 -0.482906
N2    N     N_3   0.244539 0.891454 0.380770 -0.444055
N3    N     N_3   0.231524 0.112181 0.454089 -0.420816
N4    N     N_3   0.903912 0.481695 0.305276 -0.447419
N5    N     N_3   0.894064 0.901307 0.676018 -0.449370
N6    N     N_3   0.237013 0.403936 0.843646 -0.449348
N7    N     N_3   0.579638 0.303403 0.625977 -0.476101
O1    O     O_3   0.500000 0.500000 0.500000 -0.479575
O2    O     O_R   0.945140 0.268320 0.884430 -0.642070
O3    O     O_R   0.116800 0.560590 0.177500 -0.635341
O4    O     O_R   0.676800 0.731580 0.616070 -0.656773
O5    O     O_R   0.822390 0.439230 0.883130 -0.649700
O6    O     O_R   0.116800 0.439160 0.056060 -0.659465
O7    O     O_R   0.943840 0.560660 0.883130 -0.641957
O8    O     O_R   0.115490 0.731510 0.054770 -0.635972
O9    O     O_R   0.823160 0.268340 0.883890 -0.645141
O10   O     O_R   0.945140 0.560620 0.176740 -0.620923
O11   O     O_R   0.116030 0.439190 0.884430 -0.660267
O12   O     O_R   0.384470 0.439280 0.616070 -0.639024
O13   O     O_R   0.384470 0.268410 0.445190 -0.626088
O14   O     O_R   0.383920 0.560720 0.615530 -0.642476
O15   O     O_R   0.554810 0.439290 0.323210 -0.646464
O16   O     O_R   0.383160 0.560750 0.443890 -0.642525
O17   O     O_R   0.677560 0.560680 0.616830 -0.652291
O18   O     O_R   0.383160 0.439320 0.322450 -0.634772
O19   O     O_R   0.556120 0.439250 0.616830 -0.649272
O20   O     O_R   0.676800 0.560710 0.445190 -0.647437
O21   O     O_R   0.554810 0.731590 0.615530 -0.637047
O22   O     O_R   0.383920 0.268420 0.323210 -0.648366
O23   O     O_3   0.999960 0.499910 0.999960 -0.482608
O24   O     O_R   0.823160 0.439210 0.054770 -0.645188
O25   O     O_R   0.115490 0.560640 0.883890 -0.642968
O26   O     O_R   0.116030 0.731490 0.176740 -0.622299
Zn1   Zn    Zn3+2 0.457010 0.413240 0.543760 0.962777
Zn2   Zn    Zn3+2 0.456230 0.586760 0.542990 0.959631
Zn3   Zn    Zn3+2 0.456230 0.413270 0.369490 0.961785
Zn4   Zn    Zn3+2 0.630520 0.586730 0.543760 0.934678
Zn5   Zn    Zn3+2 0.042950 0.586670 0.956190 0.962078
Zn6   Zn    Zn3+2 0.043720 0.586650 0.130470 0.980472
Zn7   Zn    Zn3+2 0.043720 0.413150 0.956960 0.939770
Zn8   Zn    Zn3+2 0.869430 0.413180 0.956190 0.957658

loop_
_geom_bond_atom_site_label_1
_geom_bond_atom_site_label_2
_ccdc_geom_bond_type
C87   C88   A    
O1    Zn1   S    
C101  C102  A    
C29   N5    S    
C41   C42   A    
C95   C96   A    
C39   C87   S    
C26   C55   S    
C71   H32   S    
C97   C98   A    
C90   C91   A    
H49   N5    S    
C47   C49   S    
C2    C6    A    
C77   C78   A    
C44   C45   A    
C40   C46   A    
O18   Zn3   S    
C28   C29   S    
C19   O14   A    
C54   O6    A    
C6    C8    A    
O23   Zn6   S    
C18   N4    S    
C29   H7    S    
C60   H23   S    
C15   H20   S    
C53   O2    A    
C16   C50   S    
H39   N3    S    
C88   C89   A    
H46   N4    S    
C38   C39   S    
C97   H63   S    
C45   C51   S    
C28   H5    S    
C40   C49   S    
C23   H3    S    
O24   Zn8   S    
C69   C71   A    
C34   C35   A    
C85   H53   S    
C68   H30   S    
C70   C81   A    
C86   H54   S    
O15   Zn3   S    
C80   C86   A    
C51   O11   A    
C78   H43   S    
C46   C47   S    
C81   C92   A    
C84   H52   S    
C61   C66   A    
C3    H71   S    
C35   C36   A    
C8    C9    S    
O14   Zn2   S    
C23   C24   A    
C89   H57   S    
C67   C73   A    
C79   H44   S    
C9    C10   S    
C99   H65   S    
C37   C58   S    
H37   N2    S    
C2    C61   S    
C44   N6    S    
C48   C60   S    
C1    O4    A    
C61   C62   A    
C21   C27   A    
O1    Zn2   S    
O19   Zn1   S    
C1    C22   S    
C37   C56   S    
C58   H8    S    
C13   C14   A    
C35   C54   S    
C59   H21   S    
C34   H9    S    
C5    H73   S    
C92   H34   S    
C42   C44   A    
C55   O19   A    
O9    Zn8   S    
C65   H28   S    
C20   H77   S    
C57   H67   S    
C76   C77   A    
C90   H58   S    
C102  H70   S    
C47   H14   S    
C57   H1    S    
C15   N7    S    
O1    Zn3   S    
C11   C20   S    
C31   O15   A    
C74   C75   A    
C67   C68   A    
O23   Zn7   S    
O17   Zn4   S    
C84   C85   A    
C52   O8    A    
C24   C25   A    
C31   O20   A    
C80   C82   A    
C48   H19   S    
C38   H11   S    
C78   C79   A    
C68   C69   A    
C72   H33   S    
H48   N5    S    
C85   C86   A    
C54   O3    A    
C21   C29   S    
C58   H15   S    
H38   N3    S    
C47   C100  S    
C96   H62   S    
O7    Zn5   S    
C75   C76   A    
C9    C67   S    
C62   C63   A    
C75   H40   S    
C95   H61   S    
C91   C93   A    
O10   Zn6   S    
C83   C84   A    
C5    C100  A    
O4    Zn4   S    
O8    Zn5   S    
C55   O17   A    
C96   C97   A    
C43   O16   A    
C17   C18   S    
C37   C59   S    
C88   H55   S    
O16   Zn2   S    
C37   C48   S    
H24   N1    S    
C50   O24   A    
C98   H64   S    
C20   H2    S    
C10   C70   S    
O25   Zn5   S    
C40   C41   A    
C7    C81   S    
C98   C99   A    
O22   Zn3   S    
C39   H13   S    
C74   C79   A    
C12   C31   S    
C10   N3    S    
C14   C16   A    
C45   C46   A    
C24   H4    S    
C38   H10   S    
C3    C4    A    
C14   C74   S    
C13   H56   S    
C48   N1    S    
O3    Zn6   S    
C3    C102  A    
C52   O26   A    
C66   H29   S    
O2    Zn7   S    
O20   Zn4   S    
O1    Zn4   S    
C11   C17   A    
C19   O12   A    
C69   H31   S    
H66   N6    S    
C42   C94   S    
O23   Zn8   S    
C15   C59   S    
C76   H41   S    
C63   H26   S    
C25   C53   S    
C72   C73   A    
C15   C26   S    
O5    Zn8   S    
C7    O22   A    
C11   C12   A    
C33   C80   S    
H74   N7    S    
C83   H51   S    
C64   H27   S    
C25   C27   A    
C10   H45   S    
C49   H17   S    
C8    C70   A    
C30   C36   A    
C43   O18   A    
O23   Zn5   S    
C64   C65   A    
O13   Zn1   S    
C77   H42   S    
C71   C72   A    
C65   C66   A    
O11   Zn7   S    
C32   C33   A    
C36   C38   S    
C30   C32   A    
H36   N2    S    
C57   C58   S    
C16   C17   A    
C56   O7    A    
C73   H35   S    
C94   C99   A    
C28   H6    S    
C59   H12   S    
C53   O9    A    
C87   C93   A    
H68   N6    S    
C2    C92   A    
C100  C101  A    
C32   C43   S    
C33   C34   A    
C30   C39   S    
C101  H69   S    
C18   C20   S    
O21   Zn2   S    
C7    O13   A    
C94   C95   A    
C1    O21   A    
C26   C57   S    
C93   H60   S    
H22   N1    S    
C9    N2    S    
H75   N7    S    
C60   H18   S    
C63   C64   A    
C49   H16   S    
C51   O25   A    
C62   H25   S    
C4    C5    A    
C12   C13   A    
C18   H76   S    
C82   C83   A    
C56   O5    A    
C50   O10   A    
C27   C28   S    
H47   N4    S    
C22   C23   A    
C91   H59   S    
C4    H72   S    
O6    Zn7   S    
C6    C52   S    
C89   C90   A    
C21   C22   A    
O12   Zn1   S    
C26   C60   S    
C82   H50   S    
C19   C41   S    
O26   Zn6   S    
