data_mof_unit_4280.cif
_audit_creation_date              2012-12-10T18:31:49-0500
_audit_creation_method            fapswitch 2.2
_symmetry_space_group_name_H-M    P1
_symmetry_Int_Tables_number       1
_space_group_crystal_system       triclinic
_cell_length_a                    10.639425
_cell_length_b                    14.992676
_cell_length_c                    15.183116
_cell_angle_alpha                 82.652835
_cell_angle_beta                  89.543654
_cell_angle_gamma                 104.162317
_cell_volume                      2327.07903238

loop_
_atom_site_label
_atom_site_type_symbol
_atom_type_description
_atom_site_fract_x
_atom_site_fract_y
_atom_site_fract_z
_atom_type_partial_charge
C1    C     C_R   0.485888 0.442020 0.663073 0.900517
C2    C     C_3   0.121319 0.500397 0.499292 0.142326
C3    C     C_3   0.069352 0.484801 0.406115 -0.414888
C4    C     C_3   0.103868 0.595676 0.520965 -0.386349
C5    C     C_R   0.505568 0.407343 0.755595 -0.210976
C6    C     C_R   0.564349 0.591207 0.243667 -0.103565
C7    C     C_R   0.521382 0.283538 0.871474 -0.254375
C8    C     C_R   0.492095 0.312254 0.784710 0.623187
C9    C     C_R   0.552835 0.472182 0.813278 -0.318398
C10   C     C_R   0.595302 0.445221 0.896849 0.090501
C11   C     C_R   0.568675 0.349295 0.928632 -0.024354
C12   C     C_R   0.742064 0.500625 0.500173 0.816347
C13   C     C_R   0.646743 0.511310 0.954094 0.005075
C14   C     C_R   0.626252 0.481774 0.046210 -0.115416
C15   C     C_R   0.606753 0.385865 0.077578 0.584172
C16   C     C_R   0.583597 0.320821 0.018144 -0.264145
C17   C     C_R   0.716265 0.605008 0.924754 0.183480
C18   C     C_R   0.728823 0.670546 0.984535 -0.288719
C19   C     C_R   0.676606 0.644358 0.071348 0.129930
C20   C     C_R   0.624417 0.549374 0.102489 0.094681
C21   C     C_R   0.677179 0.711523 0.128023 -0.192083
C22   C     C_R   0.622869 0.684905 0.214337 -0.199982
C23   C     C_R   0.522386 0.557806 0.336850 0.846090
C24   C     C_R   0.561910 0.525131 0.186372 -0.176099
C25   C     C_R   0.704233 0.845411 0.631006 -0.315489
C26   C     C_R   0.670153 0.755807 0.609410 0.007576
C27   C     C_R   0.509143 0.792366 0.513967 -0.064687
C28   C     C_R   0.540575 0.885191 0.531629 -0.003882
C29   C     C_R   0.639868 0.910560 0.592183 0.179346
C30   C     C_R   0.478693 0.953145 0.490906 0.081719
C31   C     C_R   0.516876 0.045752 0.512390 0.082265
C32   C     C_R   0.615341 0.067283 0.573876 -0.210601
C33   C     C_R   0.675372 0.000809 0.612777 -0.208311
C34   C     C_R   0.257839 0.499705 0.500038 0.833581
C35   C     C_R   0.381085 0.931835 0.428788 -0.237210
C36   C     C_R   0.323499 0.998901 0.388102 -0.202221
C37   C     C_R   0.359787 0.089341 0.408111 0.177604
C38   C     C_R   0.455962 0.113941 0.470943 -0.007735
C39   C     C_R   0.300088 0.155656 0.365795 -0.298379
C40   C     C_R   0.335173 0.245606 0.386476 0.046226
C41   C     C_R   0.486354 0.206504 0.489311 -0.004436
C42   C     C_3   0.899655 0.422635 0.568398 -0.440559
C43   C     C_3   0.043699 0.422445 0.569845 -0.406252
C44   C     C_3   0.924637 0.487018 0.403909 0.011844
C45   C     C_3   0.961156 0.595594 0.523464 -0.401133
C46   C     C_3   0.879229 0.502345 0.498188 0.122625
H1    H     H_    0.842388 0.354156 0.552764 0.179701
H2    H     H_    0.156772 0.652789 0.469744 0.169921
H3    H     H_    0.129855 0.538818 0.355439 0.162294
H4    H     H_    0.568089 0.247799 0.043229 0.174396
H5    H     H_    0.508119 0.454523 0.207350 0.213308
H6    H     H_    0.627890 0.737179 0.258135 0.161535
H7    H     H_    0.778161 0.742507 0.963115 0.141533
H8    H     H_    0.504410 0.209962 0.894509 0.166011
H9    H     H_    0.549294 0.543356 0.794607 0.181754
H10   H     H_    0.865565 0.431339 0.635607 0.174083
H11   H     H_    0.720054 0.784350 0.105746 0.139239
H12   H     H_    0.751109 0.020511 0.659061 0.147939
H13   H     H_    0.555919 0.231985 0.536847 0.143468
H14   H     H_    0.289366 0.297598 0.354771 0.125156
H15   H     H_    0.249618 0.979654 0.340452 0.141839
H16   H     H_    0.781101 0.863886 0.676731 0.142216
H17   H     H_    0.721025 0.705227 0.636925 0.124726
H18   H     H_    0.435397 0.765854 0.469456 0.125164
H19   H     H_    0.080548 0.433291 0.637079 0.170063
H20   H     H_    0.649905 0.135382 0.593131 0.147388
H21   H     H_    0.346842 0.863842 0.409253 0.132128
H22   H     H_    0.226704 0.137985 0.317514 0.143608
H23   H     H_    0.055113 0.353539 0.556301 0.188111
H24   H     H_    0.867423 0.417553 0.390443 0.175559
H25   H     H_    0.079034 0.416430 0.389698 0.162741
H26   H     H_    0.946035 0.655660 0.477383 0.177256
H27   H     H_    0.931592 0.604953 0.591586 0.179600
H28   H     H_    0.144201 0.610147 0.586623 0.184572
N1    N     N_R   0.573860 0.731700 0.552730 -0.096543
N2    N     N_R   0.426060 0.268290 0.447230 -0.100015
O1    O     O_R   0.462770 0.383110 0.605620 -0.546213
O2    O     O_R   0.510160 0.531900 0.639510 -0.624948
O3    O     O_R   0.661510 0.425600 0.483070 -0.626481
O4    O     O_R   0.708900 0.574390 0.516960 -0.629965
O5    O     O_R   0.489840 0.468100 0.360490 -0.605338
O6    O     O_R   0.537230 0.616890 0.394380 -0.614983
O7    O     O_R   0.291100 0.425610 0.483040 -0.626394
O8    O     O_R   0.338490 0.574400 0.516930 -0.628409
Zn1   Zn    Zn3+2 0.468350 0.400660 0.477370 0.976205
Zn2   Zn    Zn3+2 0.531650 0.599340 0.522630 0.922648
C47   C     C_3   0.901273 0.560125 0.327612 -0.417620
C48   C     C_3   0.910552 0.529140 0.236191 -0.826573
H29   H     H_    0.008034 0.518138 0.223092 0.248613
H30   H     H_    0.835869 0.463745 0.231914 0.301103
H31   H     H_    0.893503 0.583464 0.184050 0.258222
H32   H     H_    0.803172 0.571923 0.335547 0.212959
H33   H     H_    0.972517 0.627871 0.328849 0.212524
F1    F     F_    0.447802 0.246833 0.730679 -0.672627
F2    F     F_    0.618687 0.354735 0.164316 -0.697610
C49   C     C_3   0.796271 0.634560 0.837474 -0.407004
C50   C     C_3   0.895730 0.577406 0.829818 -0.849039
H34   H     H_    0.958418 0.605622 0.768814 0.235729
H35   H     H_    0.957916 0.580802 0.888322 0.264348
H36   H     H_    0.846955 0.503863 0.825121 0.262936
H37   H     H_    0.736130 0.631249 0.778837 0.192518
H38   H     H_    0.850915 0.708537 0.832584 0.197799

loop_
_geom_bond_atom_site_label_1
_geom_bond_atom_site_label_2
_ccdc_geom_bond_type
C49   H37   S    
C47   C48   S    
C33   H12   S    
C40   H14   S    
C23   O6    A    
C49   H38   S    
C1    O1    A    
C39   H22   S    
C2    C4    S    
C19   C20   A    
C50   H34   S    
C3    H3    S    
C7    C8    A    
C45   C46   S    
C21   H11   S    
C30   C35   A    
C1    C5    S    
C22   H6    S    
C36   C37   A    
C19   C21   A    
C16   H4    S    
C15   F2    S    
C30   C31   A    
C15   C16   A    
C6    C22   A    
C12   O3    A    
C29   C33   A    
C45   H27   S    
C18   C19   A    
C42   C46   S    
O4    Zn2   S    
C18   H7    S    
C42   H10   S    
C20   C24   A    
C44   H24   S    
C9    H9    S    
C44   C47   S    
C9    C10   A    
C4    H28   S    
C25   H16   S    
O2    Zn2   S    
C24   H5    S    
O1    Zn1   S    
C43   H23   S    
C21   C22   A    
C45   H26   S    
C1    O2    A    
C34   O8    A    
C27   N1    A    
C50   H35   S    
C44   C46   S    
C26   N1    A    
C4    C45   S    
C25   C29   A    
C3    C44   S    
C14   C20   A    
C8    F1    S    
C41   H13   S    
C38   C41   A    
C12   C46   S    
C10   C11   A    
C39   C40   A    
C25   C26   A    
O6    Zn2   S    
C40   N2    A    
C35   C36   A    
C3    H25   S    
C26   H17   S    
C5    C9    A    
C37   C38   A    
C11   C16   A    
N1    Zn2   S    
C7    C11   A    
C31   C32   A    
C48   H31   S    
C35   H21   S    
C2    C43   S    
C43   H19   S    
C6    C24   A    
C49   C50   S    
C17   C18   A    
C17   C49   S    
O7    Zn1   S    
C48   H30   S    
C42   C43   S    
C36   H15   S    
O3    Zn1   S    
C50   H36   S    
C47   H32   S    
C32   H20   S    
C4    H2    S    
C28   C29   A    
C23   O5    A    
C12   O4    A    
O8    Zn2   S    
C10   C13   A    
C5    C8    A    
C31   C38   A    
C13   C17   A    
C32   C33   A    
C28   C30   A    
C2    C3    S    
C37   C39   A    
C41   N2    A    
C2    C34   S    
C6    C23   S    
C47   H33   S    
C42   H1    S    
C27   H18   S    
C48   H29   S    
C34   O7    A    
C27   C28   A    
C14   C15   A    
C7    H8    S    
C13   C14   A    
N2    Zn1   S    
O5    Zn1   S    
