data_mof_unit_4642.cif
_audit_creation_date              2013-03-05T15:51:50-0500
_audit_creation_method            fapswitch 2.2
_symmetry_space_group_name_H-M    P1
_symmetry_Int_Tables_number       1
_space_group_crystal_system       triclinic
_cell_length_a                    11.003562
_cell_length_b                    10.984959
_cell_length_c                    18.831998
_cell_angle_alpha                 90.496697
_cell_angle_beta                  89.976361
_cell_angle_gamma                 60.533064
_cell_volume                      1981.72789848

loop_
_atom_site_label
_atom_site_type_symbol
_atom_site_description
_atom_site_fract_x
_atom_site_fract_y
_atom_site_fract_z
_atom_type_partial_charge
O1    O     O_R   0.507380 0.255700 0.581440 -0.516974
O2    O     O_R   0.280320 0.527350 0.578930 -0.477282
C1    C     C_R   0.239446 0.645463 0.610240 0.551020
O3    O     O_R   0.260510 0.739590 0.584590 -0.523466
O4    O     O_R   0.532300 0.695080 0.573820 -0.512743
C2    C     C_R   0.651990 0.620062 0.601967 0.531085
O5    O     O_R   0.744840 0.503500 0.576370 -0.514316
O6    O     O_R   0.699120 0.276560 0.571960 -0.502466
C3    C     C_R   0.629745 0.226104 0.601657 0.533600
O7    O     O_R   0.498940 0.256500 0.419860 -0.550160
O8    O     O_R   0.272500 0.528080 0.429150 -0.512531
C4    C     C_R   0.229871 0.644958 0.399084 0.580425
O9    O     O_R   0.252060 0.740380 0.423010 -0.497855
O10   O     O_R   0.524480 0.695810 0.424040 -0.524499
C5    C     C_R   0.641624 0.622526 0.392166 0.547870
O11   O     O_R   0.736390 0.504290 0.414790 -0.413738
O12   O     O_R   0.691300 0.277290 0.422170 -0.399827
C6    C     C_R   0.615203 0.233096 0.393871 0.570755
Cr1   Cr    Cr6+3 0.392960 0.397920 0.502240 1.067042
Cr2   Cr    Cr6+3 0.398340 0.708480 0.501250 1.038880
Cr3   Cr    Cr6+3 0.708670 0.393570 0.496460 1.144346
O13   O     O_3   0.499990 0.499990 0.499980 -0.296853
C7    C     C_3   0.557272 0.794623 0.786968 -0.210958
H1    H     H_    0.556828 0.894150 0.795994 0.114183
H2    H     H_    0.467503 0.800309 0.816989 0.174077
C8    C     C_3   0.539604 0.778491 0.707230 -0.237508
H3    H     H_    0.444590 0.770151 0.699150 0.153198
H4    H     H_    0.525765 0.872531 0.678484 0.127160
H5    H     H_    0.827707 0.763396 0.781781 0.119382
H6    H     H_    0.787255 0.754063 0.663048 0.129298
C9    C     C_3   0.818798 0.668544 0.769948 -0.281871
C10   C     C_3   0.695084 0.533641 0.799889 0.237551
C11   C     C_3   0.697012 0.671077 0.813476 0.066011
H7    H     H_    0.793452 0.443183 0.819168 0.133957
C12   C     C_3   0.667807 0.645154 0.677654 0.003758
C13   C     C_3   0.798805 0.658929 0.689731 -0.265500
C14   C     C_3   0.681948 0.516877 0.719637 -0.164215
H8    H     H_    0.591048 0.501126 0.708836 0.164917
H9    H     H_    0.777708 0.421762 0.701395 0.115391
H10   H     H_    0.917926 0.575396 0.785445 0.136726
H11   H     H_    0.892777 0.567170 0.666791 0.199285
C15   C     C_R   0.685782 0.143848 0.820796 0.090640
C16   C     C_R   0.775963 0.176634 0.784265 0.033941
C17   C     C_R   0.769646 0.187562 0.710376 0.008044
C18   C     C_R   0.585829 0.129291 0.707584 -0.186266
C19   C     C_R   0.585039 0.129062 0.780681 -0.089374
C20   C     C_3   0.930379 0.103902 0.785196 -0.288191
C21   C     C_3   0.925265 0.112082 0.704838 -0.280654
C22   C     C_R   0.675432 0.162656 0.671073 0.005525
H12   H     H_    0.507306 0.114812 0.680058 0.153625
H13   H     H_    0.505902 0.112311 0.805344 0.178223
H14   H     H_    0.972452 0.997091 0.805960 0.154402
H15   H     H_    0.971091 0.168350 0.810487 0.144536
H16   H     H_    0.965781 0.179261 0.683403 0.173666
H17   H     H_    0.966021 0.009027 0.677714 0.150164
C23   C     C_R   0.175587 0.671440 0.834081 0.098478
C24   C     C_R   0.153944 0.576265 0.793880 -0.024819
C25   C     C_R   0.166289 0.570677 0.720297 -0.009736
C26   C     C_R   0.201991 0.769539 0.724403 -0.181161
C27   C     C_R   0.202393 0.766878 0.798131 -0.133955
C28   C     C_3   0.229834 0.421150 0.799443 0.261653
C29   C     C_3   0.245258 0.415014 0.719291 0.267855
C30   C     C_R   0.192428 0.665952 0.684130 -0.013488
H18   H     H_    0.216442 0.849676 0.699274 0.142140
H19   H     H_    0.214369 0.846226 0.826810 0.134356
H20   H     H_    0.163819 0.378736 0.820345 0.139187
H21   H     H_    0.353468 0.372538 0.699545 0.172830
C31   C     C_R   0.663026 0.663019 0.168724 -0.002603
C32   C     C_R   0.769848 0.554725 0.207593 -0.002551
C33   C     C_R   0.764854 0.551617 0.280164 0.172904
C34   C     C_R   0.538215 0.753530 0.279866 -0.176322
C35   C     C_R   0.542128 0.757571 0.205234 -0.167390
C36   C     C_3   0.922330 0.508909 0.209726 -0.207642
C37   C     C_3   0.915205 0.505003 0.289492 0.266212
C38   C     C_R   0.653061 0.653005 0.318197 -0.018734
H22   H     H_    0.448398 0.829649 0.307981 0.118755
H23   H     H_    0.455417 0.836840 0.176238 0.115818
H24   H     H_    0.940573 0.594083 0.191476 0.127339
H25   H     H_    0.987612 0.404694 0.184290 0.192960
H26   H     H_    0.934892 0.582512 0.318108 0.107905
C39   C     C_R   0.635744 0.169230 0.172845 -0.022449
C40   C     C_R   0.580078 0.106487 0.216678 0.042593
C41   C     C_R   0.584870 0.114163 0.289460 -0.014959
C42   C     C_R   0.708643 0.243436 0.276785 0.412666
C43   C     C_R   0.696863 0.241556 0.203285 -0.066525
C44   C     C_3   0.433530 0.132410 0.218322 -0.257920
C45   C     C_3   0.441607 0.133038 0.298271 -0.258301
C46   C     C_R   0.645745 0.186178 0.320900 0.068691
H27   H     H_    0.741695 0.289654 0.170286 0.173896
H28   H     H_    0.423462 0.044650 0.196382 0.150921
H29   H     H_    0.358426 0.235439 0.195977 0.136800
H30   H     H_    0.365259 0.234054 0.322284 0.175067
H31   H     H_    0.443829 0.041014 0.323268 0.150952
C47   C     C_R   0.173458 0.666298 0.177211 0.032714
C48   C     C_R   0.203350 0.759832 0.215102 -0.024700
C49   C     C_R   0.212953 0.752549 0.286903 -0.020208
C50   C     C_R   0.205164 0.538870 0.286158 -0.168354
C51   C     C_R   0.193790 0.545295 0.211962 -0.182966
C52   C     C_3   0.150222 0.916530 0.220522 0.116883
C53   C     C_3   0.159648 0.904412 0.301075 0.121221
C54   C     C_R   0.203042 0.650370 0.324417 0.060504
H32   H     H_    0.206626 0.452537 0.313596 0.158696
H33   H     H_    0.184660 0.464635 0.183260 0.122617
H34   H     H_    0.223737 0.947771 0.197715 0.068421
H35   H     H_    0.235599 0.930601 0.324623 0.088375
O14   O     O_R   0.089400 0.825690 0.930570 -0.542208
O15   O     O_R   0.818460 0.054440 0.929850 -0.516561
C55   C     C_R   0.703349 0.097403 0.894741 0.565437
O16   O     O_R   0.606060 0.077150 0.915510 -0.510123
O17   O     O_R   0.646550 0.806680 0.917570 -0.515893
C56   C     C_R   0.722421 0.686868 0.889024 0.583856
O18   O     O_R   0.837170 0.593410 0.915250 -0.531203
O19   O     O_R   0.065200 0.635530 0.931570 -0.500859
C57   C     C_R   0.117733 0.706551 0.905699 0.561002
O20   O     O_R   0.068260 0.828890 0.091840 -0.457603
O21   O     O_R   0.798870 0.057410 0.079340 -0.420140
C58   C     C_R   0.671372 0.112426 0.101887 0.580683
O22   O     O_R   0.584930 0.080350 0.076780 -0.521361
O23   O     O_R   0.626960 0.809650 0.067060 -0.496132
C59   C     C_R   0.697148 0.689562 0.097643 0.562150
O24   O     O_R   0.816040 0.596610 0.076510 -0.516652
O25   O     O_R   0.045610 0.638500 0.081060 -0.521028
C60   C     C_R   0.097729 0.708578 0.110968 0.573404
Cr4   Cr    Cr6+3 0.937650 0.938540 0.007610 1.089770
Cr5   Cr    Cr6+3 0.625330 0.937370 0.994520 1.040634
Cr6   Cr    Cr6+3 0.937940 0.625230 0.001190 1.035737
O26   O     O_3   0.833640 0.833710 0.001100 -0.280378
F1    F     F_    0.354827 0.374639 0.834798 -0.633628
F2    F     F_    0.170583 0.359521 0.686499 -0.673735
F3    F     F_    0.988520 0.370386 0.315440 -0.551192
F4    F     F_    0.778308 0.304721 0.304514 -0.547024
N1    N     N_R   0.008899 0.003151 0.196051 0.138442
O27   O     O_R   0.983225 0.105497 0.153450 -0.352464
O28   O     O_R   0.916054 0.964477 0.206790 -0.320872
N2    N     N_R   0.025732 0.974762 0.339539 0.137019
O29   O     O_R   0.996075 0.086208 0.376840 -0.229011
O30   O     O_R   0.949398 0.915371 0.347937 -0.339078
F5    F     F_    0.584613 0.534280 0.835763 -0.621042

loop_
_geom_bond_atom_site_label_1
_geom_bond_atom_site_label_2
_geom_bond_distance
_ccdc_geom_bond_type
C17   C22   1.404836 A    
C25   C29   1.488935 S    
C21   H17   1.110815 S    
C5    C38   1.455244 S    
Cr6   O26   1.994020 S    
C36   C37   1.506262 S    
C41   C45   1.494384 S    
C48   C49   1.356309 A    
C50   C51   1.402185 A    
N2    O29   1.300198 A    
O4    Cr2   1.963119 S    
C18   C19   1.376616 A    
C2    C12   1.475958 S    
C21   H16   1.111292 S    
O8    Cr1   1.966439 S    
C53   H35   1.101130 S    
C14   H8    1.114261 S    
C29   H21   1.106245 S    
O14   C57   1.271682 A    
Cr3   O13   2.000304 S    
C12   C14   1.561601 S    
C44   H29   1.108730 S    
C34   H22   1.065412 S    
C48   C52   1.523816 S    
C47   C51   1.402769 A    
C51   H33   1.080115 S    
C39   C58   1.439836 S    
C55   O16   1.258563 A    
C15   C19   1.414797 A    
C7    C8    1.534152 S    
O17   C56   1.274565 A    
C9    H10   1.108735 S    
C28   H20   1.111572 S    
C56   O18   1.275206 A    
N1    O27   1.300278 A    
C7    C11   1.553919 S    
C33   C37   1.482717 S    
O15   C55   1.297008 A    
C9    C11   1.559022 S    
C32   C36   1.496563 S    
C11   C56   1.475183 S    
O22   Cr5   2.081967 S    
O18   Cr6   2.084216 S    
C50   H32   1.077106 S    
C7    H1    1.102606 S    
C53   N2    1.470492 S    
C20   H15   1.111353 S    
C4    C54   1.432618 S    
C47   C60   1.447915 S    
C41   C46   1.392339 A    
C26   C27   1.388962 A    
C37   H26   1.111703 S    
C49   C54   1.380206 A    
C29   F2    1.383774 S    
C13   H11   1.112879 S    
C32   C33   1.369130 A    
O15   Cr4   1.968889 S    
C39   C40   1.398727 A    
C36   H25   1.112270 S    
O1    Cr1   2.087391 S    
O20   C60   1.252317 A    
C5    O11   1.278004 A    
O10   Cr2   1.965917 S    
Cr1   O13   1.986434 S    
O1    C3    1.278863 A    
C42   C43   1.391187 A    
C44   H28   1.100252 S    
C43   H27   1.081933 S    
C44   C45   1.508414 S    
C31   C32   1.404516 A    
O19   Cr6   1.962028 S    
O5    Cr3   2.079206 S    
C36   H24   1.106405 S    
C19   H13   1.080118 S    
O12   Cr3   1.958268 S    
C23   C27   1.400288 A    
C12   C13   1.538403 S    
C10   H7    1.113195 S    
O25   Cr6   1.963371 S    
C16   C17   1.396508 A    
C10   F5    1.387409 S    
C35   H23   1.076115 S    
C20   C21   1.516174 S    
C18   C22   1.392309 A    
O7    Cr1   2.086725 S    
C31   C35   1.395960 A    
C50   C54   1.405841 A    
O12   C6    1.271472 A    
O6    C3    1.274357 A    
C3    C22   1.455671 S    
C47   C48   1.411748 A    
C10   C14   1.536348 S    
C2    O5    1.271824 A    
Cr4   O26   1.986265 S    
O23   Cr5   1.960453 S    
O16   Cr5   2.082328 S    
C52   N1    1.445124 S    
Cr2   O13   1.993903 S    
C27   H19   1.083378 S    
C37   F3    1.384007 S    
C8    H3    1.103961 S    
C23   C24   1.397969 A    
C1    O3    1.265115 A    
C59   O24   1.261254 A    
O19   C57   1.276799 A    
C25   C30   1.396547 A    
N2    O30   1.302679 A    
O20   Cr4   2.089085 S    
O21   Cr4   1.966633 S    
O9    Cr2   2.083400 S    
O2    Cr1   1.967905 S    
C9    C13   1.536866 S    
C26   C30   1.408554 A    
C42   C46   1.414800 A    
O6    Cr3   1.961933 S    
O23   C59   1.295975 A    
O11   Cr3   2.082022 S    
C24   C28   1.488273 S    
C20   H14   1.103432 S    
C1    C30   1.460824 S    
C49   C53   1.492535 S    
C42   F4    1.347394 S    
C8    H4    1.112827 S    
C52   C53   1.523069 S    
H6    C13   1.113215 S    
C10   C11   1.539490 S    
O2    C1    1.282867 A    
O24   Cr6   2.081108 S    
C14   H9    1.109190 S    
C40   C44   1.493454 S    
C58   O22   1.256841 A    
C31   C59   1.460106 S    
C34   C38   1.406793 A    
C24   C25   1.390173 A    
O4    C2    1.278652 A    
C16   C20   1.479979 S    
C18   H12   1.083835 S    
O7    C6    1.271216 A    
N1    O28   1.301319 A    
C45   H31   1.108160 S    
O21   C58   1.294076 A    
C52   H34   1.109947 S    
C28   F1    1.382492 S    
C7    H2    1.112407 S    
C28   C29   1.516074 S    
C6    C46   1.443559 S    
O17   Cr5   1.961976 S    
O3    Cr2   2.087808 S    
C26   H18   1.081225 S    
C8    C12   1.548539 S    
C34   C35   1.407877 A    
C4    O9    1.266915 A    
H5    C9    1.114183 S    
C40   C41   1.375116 A    
C15   C16   1.393915 A    
O14   Cr4   2.088089 S    
C33   C38   1.379910 A    
Cr5   O26   2.000183 S    
C23   C57   1.456626 S    
O10   C5    1.280613 A    
O25   C60   1.290667 A    
C45   H30   1.102466 S    
C15   C55   1.467074 S    
C39   C43   1.389334 A    
C17   C21   1.494006 S    
O8    C4    1.268589 A    
