data_mof_unit_2695.cif
_audit_creation_date              2013-03-05T15:44:58-0500
_audit_creation_method            fapswitch 2.2
_symmetry_space_group_name_H-M    P1
_symmetry_Int_Tables_number       1
_space_group_crystal_system       triclinic
_cell_length_a                    10.925728
_cell_length_b                    10.946697
_cell_length_c                    18.820811
_cell_angle_alpha                 90.411423
_cell_angle_beta                  89.707154
_cell_angle_gamma                 119.829838
_cell_volume                      1952.68722574

loop_
_atom_site_label
_atom_site_type_symbol
_atom_site_description
_atom_site_fract_x
_atom_site_fract_y
_atom_site_fract_z
_atom_type_partial_charge
O1    O     O_R   0.766500 0.250040 0.579790 -0.515352
O2    O     O_R   0.798570 0.516780 0.574780 -0.507020
C1    C     C_R   0.864206 0.638434 0.603018 0.542335
O3    O     O_R   0.984000 0.732950 0.581090 -0.534822
O4    O     O_R   0.218600 0.700890 0.574760 -0.516563
C2    C     C_R   0.270123 0.632776 0.603795 0.540273
O5    O     O_R   0.249390 0.515350 0.579940 -0.531292
O6    O     O_R   0.982790 0.280900 0.573700 -0.514098
C3    C     C_R   0.861094 0.222745 0.602205 0.536383
O7    O     O_R   0.766600 0.251130 0.419260 -0.531654
O8    O     O_R   0.798660 0.517790 0.425980 -0.516068
C4    C     C_R   0.870393 0.637426 0.395309 0.541863
O9    O     O_R   0.984100 0.734040 0.420570 -0.459133
O10   O     O_R   0.218690 0.701900 0.425960 -0.458861
C5    C     C_R   0.267901 0.631123 0.395208 0.568466
O11   O     O_R   0.249490 0.516440 0.419420 -0.506256
O12   O     O_R   0.982880 0.281910 0.424890 -0.473469
C6    C     C_R   0.860473 0.225491 0.397180 0.544456
Cr1   Cr    Cr6+3 0.791660 0.390250 0.499930 1.008870
Cr2   Cr    Cr6+3 0.098520 0.708290 0.500540 1.053048
Cr3   Cr    Cr6+3 0.109770 0.401430 0.499480 1.012393
O13   O     O_3   0.999980 0.499990 0.499980 -0.246940
C7    C     C_R   0.270705 0.742424 0.718672 -0.129249
H1    H     H_    0.206808 0.783285 0.696793 0.136623
C8    C     C_R   0.294852 0.753765 0.791429 -0.135702
H2    H     H_    0.255611 0.808246 0.824526 0.115755
C9    C     C_R   0.365278 0.689714 0.820950 0.038220
C10   C     C_R   0.418808 0.622449 0.777381 -0.114117
H3    H     H_    0.476065 0.574937 0.799506 0.138694
C11   C     C_R   0.399238 0.615325 0.705014 -0.125113
H4    H     H_    0.438398 0.559767 0.672667 0.154884
C12   C     C_R   0.322230 0.672162 0.675461 0.023547
C13   C     C_R   0.844215 0.170833 0.823406 0.005738
C14   C     C_R   0.091039 0.228848 0.824671 -0.146434
C15   C     C_R   0.213108 0.254987 0.788666 -0.091342
C16   C     C_R   0.212280 0.232551 0.715550 0.283528
C17   C     C_R   0.084072 0.185787 0.678374 -0.076978
C18   C     C_R   0.963985 0.176439 0.712341 -0.027880
C19   C     C_R   0.965321 0.188752 0.787464 -0.025091
H5    H     H_    0.310128 0.294086 0.818228 0.108141
H6    H     H_    0.098261 0.249216 0.881302 0.138319
C20   C     C_R   0.720226 0.126517 0.711001 -0.027789
C21   C     C_R   0.731697 0.166084 0.782801 0.048718
C22   C     C_R   0.588305 0.069897 0.677126 -0.103235
C23   C     C_R   0.477276 0.075442 0.710006 -0.132365
C24   C     C_R   0.497491 0.142134 0.775433 -0.095218
C25   C     C_R   0.626088 0.192180 0.812252 0.311572
C26   C     C_R   0.843201 0.155862 0.673304 -0.031178
H7    H     H_    0.076226 0.154307 0.623458 0.112234
H8    H     H_    0.377278 0.034152 0.682979 0.141624
H9    H     H_    0.572133 0.024220 0.624368 0.131655
H10   H     H_    0.412424 0.154246 0.796712 0.117898
C27   C     C_R   0.717629 0.542893 0.710780 -0.130036
H11   H     H_    0.651791 0.441882 0.685382 0.170051
C28   C     C_R   0.707876 0.554149 0.783818 -0.128652
H12   H     H_    0.628565 0.465634 0.813023 0.162766
C29   C     C_R   0.801233 0.679674 0.818319 0.030645
C30   C     C_R   0.893667 0.798496 0.778454 -0.136180
H13   H     H_    0.961528 0.899863 0.803114 0.147451
C31   C     C_R   0.900599 0.788863 0.705947 -0.145096
H14   H     H_    0.977474 0.880668 0.677099 0.128099
C32   C     C_R   0.819195 0.658976 0.672281 0.017583
C33   C     C_R   0.228533 0.539771 0.272477 0.277065
C34   C     C_R   0.239501 0.562806 0.199645 0.269106
C35   C     C_R   0.340655 0.695084 0.174465 -0.022863
C36   C     C_R   0.413852 0.808809 0.221599 -0.176149
H15   H     H_    0.492632 0.911417 0.202491 0.150297
C37   C     C_R   0.393510 0.788453 0.294325 -0.153192
H16   H     H_    0.450348 0.876422 0.330413 0.151374
C38   C     C_R   0.301782 0.654062 0.320058 0.008733
C39   C     C_R   0.810902 0.252125 0.275590 -0.075736
H17   H     H_    0.801355 0.342200 0.291726 0.137658
C40   C     C_R   0.790892 0.212303 0.205439 -0.117067
H18   H     H_    0.763485 0.270923 0.168901 0.125264
C41   C     C_R   0.805113 0.097900 0.183029 0.030911
C42   C     C_R   0.839882 0.023707 0.231814 -0.110775
H19   H     H_    0.847720 0.933254 0.214871 0.143760
C43   C     C_R   0.858618 0.063298 0.303318 -0.124474
H20   H     H_    0.882189 0.004689 0.341692 0.140104
C44   C     C_R   0.843019 0.177146 0.324752 0.065030
C45   C     C_R   0.959330 0.751163 0.277798 0.207253
C46   C     C_R   0.949173 0.739082 0.205220 -0.129561
H21   H     H_    0.039007 0.814498 0.174379 0.170750
C47   C     C_R   0.819982 0.650223 0.173107 -0.040499
C48   C     C_R   0.705963 0.552669 0.214117 -0.165571
H22   H     H_    0.604621 0.482834 0.190082 0.148076
C49   C     C_R   0.720712 0.550634 0.287524 -0.195300
H23   H     H_    0.633471 0.472563 0.318665 0.136560
C50   C     C_R   0.846200 0.651601 0.320380 -0.006211
O14   O     O_R   0.895110 0.806860 0.920430 -0.528073
O15   O     O_R   0.872260 0.046970 0.925000 -0.513513
C51   C     C_R   0.808978 0.107686 0.895844 0.559795
O16   O     O_R   0.691430 0.085060 0.918550 -0.476899
O17   O     O_R   0.451490 0.822460 0.925250 -0.509460
C52   C     C_R   0.399182 0.701930 0.895547 0.542745
O18   O     O_R   0.413330 0.603360 0.920440 -0.531769
O19   O     O_R   0.676110 0.626250 0.926750 -0.509177
C53   C     C_R   0.792851 0.698785 0.894047 0.563118
O20   O     O_R   0.895350 0.809870 0.080950 -0.527671
O21   O     O_R   0.872490 0.049760 0.073800 -0.479272
C54   C     C_R   0.770883 0.048875 0.110355 0.541980
O22   O     O_R   0.691680 0.088070 0.079070 -0.536683
O23   O     O_R   0.451720 0.825250 0.074050 -0.528342
C55   C     C_R   0.396024 0.706127 0.103557 0.553697
O24   O     O_R   0.413580 0.606370 0.080960 -0.474793
O25   O     O_R   0.676340 0.629040 0.075550 -0.503380
C56   C     C_R   0.798722 0.691802 0.103251 0.535548
Cr4   Cr    Cr6+3 0.874790 0.925890 0.000070 1.016431
Cr5   Cr    Cr6+3 0.574120 0.948670 0.999300 0.999011
Cr6   Cr    Cr6+3 0.551420 0.625320 0.000920 1.008019
O26   O     O_3   0.666780 0.833290 0.000090 -0.270810
O27   O     O_3   0.141291 0.405462 0.297431 -0.538776
C57   C     C_3   0.214604 0.329644 0.293760 -0.024609
H24   H     H_    0.327679 0.393549 0.309632 0.081409
H25   H     H_    0.206437 0.285410 0.239561 0.187009
H26   H     H_    0.164759 0.241131 0.331671 0.189072
O28   O     O_3   0.162006 0.450744 0.153971 -0.540801
C58   C     C_3   0.062468 0.474363 0.118197 -0.089115
H27   H     H_    0.114243 0.562266 0.079729 0.110456
H28   H     H_    0.996404 0.495308 0.156144 0.110105
H29   H     H_    0.991268 0.378281 0.087363 0.163589
N1    N     N_R   0.080414 0.873403 0.305878 0.083394
O29   O     O_R   0.102228 0.996920 0.287732 -0.419282
O30   O     O_R   0.187300 0.863479 0.327889 -0.328196
O31   O     O_3   0.340691 0.261450 0.685026 -0.606887
C59   C     C_3   0.336322 0.241511 0.610792 -0.145640
H30   H     H_    0.304575 0.310523 0.583040 0.151340
H31   H     H_    0.266711 0.128808 0.596536 0.101352
H32   H     H_    0.444154 0.271587 0.592167 0.142826
O32   O     O_3   0.660148 0.279554 0.872063 -0.565741
C60   C     C_3   0.542658 0.245125 0.916518 -0.082994
H33   H     H_    0.472343 0.129313 0.922197 0.118615
H34   H     H_    0.482495 0.295240 0.897221 0.080927
H35   H     H_    0.582129 0.288387 0.970337 0.148254

loop_
_geom_bond_atom_site_label_1
_geom_bond_atom_site_label_2
_geom_bond_distance
_ccdc_geom_bond_type
C2    C12   1.443823 S    
C49   H23   1.083278 S    
C54   O22   1.287565 A    
C40   H18   1.083475 S    
C9    C52   1.442075 S    
C52   O18   1.257612 A    
O24   Cr6   2.061765 S    
C60   H35   1.109333 S    
O19   C53   1.275776 A    
O4    Cr2   1.950684 S    
C27   H11   1.083142 S    
O20   Cr4   2.072610 S    
O8    Cr1   1.952628 S    
C13   C19   1.407624 A    
C31   C32   1.396030 A    
C10   H3    1.079222 S    
C42   C43   1.395357 A    
O2    C1    1.270358 A    
Cr5   O26   1.973038 S    
O4    C2    1.264125 A    
C43   C44   1.395827 A    
C36   C37   1.387286 A    
C30   C31   1.372558 A    
C5    O11   1.257063 A    
C24   H10   1.076948 S    
C47   C56   1.451408 S    
O12   C6    1.273898 A    
C14   C15   1.390572 A    
C33   O27   1.379097 S    
Cr6   O26   1.979233 S    
C55   O24   1.269257 A    
C58   H27   1.111031 S    
C16   O31   1.396902 S    
C37   H16   1.083636 S    
C7    H1    1.083160 S    
C18   C26   1.429632 A    
C57   H26   1.107022 S    
C45   C50   1.421313 A    
C48   C49   1.393377 A    
C36   H15   1.082884 S    
Cr3   O13   1.972377 S    
C40   C41   1.398475 A    
C14   H6    1.082541 S    
C20   C22   1.408214 A    
O27   C57   1.412509 S    
C45   C46   1.371150 A    
C27   C28   1.387552 A    
O21   Cr4   1.942009 S    
O1    Cr1   2.073537 S    
C25   O32   1.398282 S    
C14   C19   1.405475 A    
C13   C21   1.429496 A    
O10   Cr2   1.941671 S    
C4    C50   1.459595 S    
Cr1   O13   1.975698 S    
O1    C3    1.284083 A    
C42   H19   1.081186 S    
C13   C51   1.492698 S    
O15   C51   1.298921 A    
C39   C40   1.371463 A    
C43   H20   1.082815 S    
O6    C3    1.271414 A    
C59   H32   1.109437 S    
C30   H13   1.083540 S    
C48   H22   1.083085 S    
O18   Cr6   2.070193 S    
O12   Cr3   1.947709 S    
C34   O28   1.385513 S    
C31   H14   1.083336 S    
C58   H29   1.109065 S    
C41   C42   1.402914 A    
C17   C18   1.413999 A    
C17   H7    1.077383 S    
C27   C32   1.404746 A    
C33   C38   1.415209 A    
O7    Cr1   2.062906 S    
C28   H12   1.076724 S    
O6    Cr3   1.949987 S    
C20   C26   1.405688 A    
C47   C48   1.402345 A    
C51   O16   1.254127 A    
C22   H9    1.083481 S    
C6    C44   1.437529 S    
Cr2   O13   1.978896 S    
C35   C36   1.406151 A    
C46   C47   1.392178 A    
C28   C29   1.396334 A    
O31   C59   1.409907 S    
C20   C21   1.403118 A    
N1    O30   1.295763 A    
C1    O3    1.267782 A    
O23   C55   1.263586 A    
C22   C23   1.386808 A    
C57   H24   1.116175 S    
O25   Cr6   1.949571 S    
C1    C32   1.446026 S    
C5    C38   1.451834 S    
C24   C25   1.411789 A    
C16   C17   1.416073 A    
C59   H31   1.111924 S    
O9    Cr2   2.069659 S    
O2    Cr1   1.943640 S    
O15   Cr4   1.953837 S    
C60   H34   1.108592 S    
C39   C44   1.397739 A    
O8    C4    1.283627 A    
O11   Cr3   2.068220 S    
C2    O5    1.268184 A    
C8    C9    1.392493 A    
O20   C56   1.267667 A    
O17   Cr5   1.948366 S    
Cr4   O26   1.975005 S    
C45   N1    1.433831 S    
O23   Cr5   1.950271 S    
C34   C35   1.398280 A    
C10   C11   1.375401 A    
C15   H5    1.080573 S    
C8    H2    1.083432 S    
O14   Cr4   2.061568 S    
C39   H17   1.083071 S    
O5    Cr3   2.068641 S    
O28   C58   1.411587 S    
C7    C12   1.409604 A    
C11   C12   1.391001 A    
O19   Cr6   1.942075 S    
C11   H4    1.083727 S    
C29   C30   1.405026 A    
C18   C19   1.418777 A    
C23   H8    1.080658 S    
O7    C6    1.258460 A    
C59   H30   1.109975 S    
C29   C53   1.448106 S    
O21   C54   1.299004 A    
O32   C60   1.414962 S    
C7    C8    1.388816 A    
O17   C52   1.273766 A    
C58   H28   1.113850 S    
C33   C34   1.389289 A    
O3    Cr2   2.060938 S    
C23   C24   1.388350 A    
C4    O9    1.256834 A    
C3    C26   1.494614 S    
C37   C38   1.393448 A    
C46   H21   1.084783 S    
O25   C56   1.272694 A    
C9    C10   1.404104 A    
C41   C54   1.446961 S    
C49   C50   1.405359 A    
O10   C5    1.276377 A    
O22   Cr5   2.066218 S    
C15   C16   1.395387 A    
C35   C55   1.443224 S    
N1    O29   1.298780 A    
C21   C25   1.428044 A    
O14   C53   1.255665 A    
C60   H33   1.114012 S    
O16   Cr5   2.071355 S    
C57   H25   1.110786 S    
