data_mof_unit_1113.cif
_audit_creation_date              2012-12-10T17:17:24-0500
_audit_creation_method            fapswitch 2.2
_symmetry_space_group_name_H-M    P1
_symmetry_Int_Tables_number       1
_space_group_crystal_system       triclinic
_cell_length_a                    10.254717
_cell_length_b                    10.72861
_cell_length_c                    12.381384
_cell_angle_alpha                 92.104159
_cell_angle_beta                  110.127834
_cell_angle_gamma                 96.808944
_cell_volume                      1265.57543724

loop_
_atom_site_label
_atom_site_type_symbol
_atom_type_description
_atom_site_fract_x
_atom_site_fract_y
_atom_site_fract_z
_atom_type_partial_charge
C1    C     C_R   0.053120 0.733546 0.493650 0.868106
C2    C     C_R   0.208652 0.526033 0.838361 -0.178801
C3    C     C_2   0.088916 0.869758 0.496892 -0.200105
C4    C     C_R   0.134609 0.512644 0.713824 0.892093
C5    C     C_2   0.016394 0.939693 0.541937 -0.268045
C6    C     C_2   0.927962 0.136418 0.528858 -0.348893
C7    C     C_2   0.038376 0.074380 0.553344 -0.093983
C8    C     C_2   0.436427 0.500506 0.525848 -0.037473
C9    C     C_2   0.573366 0.468684 0.519483 0.275080
C10   C     C_R   0.950298 0.267985 0.511432 0.909259
C11   C     C_R   0.863908 0.483373 0.285867 0.866021
C12   C     C_R   0.410018 0.487073 0.999461 -0.008600
C13   C     C_R   0.697490 0.301285 0.992416 -0.049072
C14   C     C_R   0.780169 0.449519 0.163908 -0.159964
C15   C     C_R   0.184962 0.623249 0.906381 0.141496
C16   C     C_R   0.256871 0.635837 0.026199 0.113223
C17   C     C_R   0.368833 0.566301 0.073984 -0.111110
C18   C     C_3   0.042754 0.365404 0.100139 -0.696636
C19   C     C_2   0.194094 0.924229 0.446337 0.922944
C20   C     C_3   0.559073 0.268365 0.410158 -0.649256
C21   C     C_2   0.447885 0.580519 0.628940 1.018012
C22   C     C_3   0.748104 0.744434 0.661181 -0.694161
C23   C     C_R   0.314260 0.451367 0.887513 0.042598
C24   C     C_2   0.726796 0.204071 0.918352 0.907447
C25   C     C_3   0.161240 0.814355 0.809987 -0.783950
C26   C     C_2   0.422453 0.560282 0.200900 0.904663
C27   C     C_3   0.273992 0.844257 0.119767 -0.625707
C28   C     C_R   0.542729 0.443209 0.029944 0.134000
C29   C     C_R   0.564356 0.344098 0.961098 0.047526
C30   C     C_R   0.451301 0.289513 0.863720 -0.153943
C31   C     C_R   0.329159 0.343956 0.826118 -0.122880
C32   C     C_R   0.656721 0.502003 0.122721 -0.226287
C33   C     C_R   0.804222 0.351000 0.096983 0.120586
H1    H     H_    0.933550 0.897143 0.570154 0.191919
H2    H     H_    0.074673 0.462555 0.142869 0.238153
H3    H     H_    0.006337 0.369789 0.004989 0.236111
H4    H     H_    0.259147 0.065341 0.365162 0.331205
H5    H     H_    0.671776 0.316119 0.587086 0.278692
H6    H     H_    0.622167 0.314354 0.362055 0.282904
H7    H     H_    0.446404 0.258788 0.357032 0.233845
H8    H     H_    0.585862 0.171662 0.425064 0.210872
H9    H     H_    0.419119 0.744944 0.695224 0.321077
H10   H     H_    0.684369 0.723805 0.484175 0.262556
H11   H     H_    0.725713 0.843162 0.661751 0.224762
H12   H     H_    0.822811 0.089018 0.514044 0.157282
H13   H     H_    0.861279 0.744522 0.678511 0.260538
H14   H     H_    0.721992 0.698856 0.731438 0.253591
H15   H     H_    0.803423 0.041083 0.907996 0.337260
H16   H     H_    0.035026 0.741509 0.899110 0.227677
H17   H     H_    0.087019 0.882771 0.775996 0.230294
H18   H     H_    0.193894 0.778436 0.739484 0.240480
H19   H     H_    0.255214 0.864384 0.879702 0.242335
H20   H     H_    0.457259 0.647976 0.356738 0.350056
H21   H     H_    0.106541 0.699093 0.085236 0.210604
H22   H     H_    0.209510 0.899956 0.053039 0.204558
H23   H     H_    0.311860 0.390038 0.385533 0.198124
H24   H     H_    0.383227 0.855668 0.119817 0.247195
H25   H     H_    0.276517 0.881949 0.205232 0.265499
H26   H     H_    0.457467 0.207664 0.813031 0.164323
H27   H     H_    0.649183 0.587169 0.168335 0.162331
H28   H     H_    0.247162 0.302144 0.747497 0.134188
H29   H     H_    0.144122 0.122388 0.571727 0.206019
H30   H     H_    0.966094 0.274850 0.217448 0.260961
H31   H     H_    0.135538 0.314470 0.126254 0.240554
N1    N     N_2   0.313640 0.446500 0.454900 -0.229264
N2    N     N_2   0.686360 0.553430 0.545150 -0.062591
N3    N     N_2   0.932913 0.299513 0.133629 -0.263472
N4    N     N_2   0.587687 0.338234 0.519990 -0.298849
N5    N     N_2   0.666334 0.677907 0.550408 -0.260584
N6    N     N_2   0.094070 0.711552 0.853325 -0.291330
N7    N     N_2   0.212579 0.713055 0.099578 -0.274942
O1    O     O_R   0.936910 0.692950 0.509080 -0.624415
O2    O     O_R   0.182330 0.039721 0.397372 -0.803479
O3    O     O_2   0.504597 0.545577 0.724744 -0.654028
O4    O     O_R   0.402532 0.698459 0.617860 -0.742102
O5    O     O_2   0.700890 0.216766 0.815615 -0.652308
O6    O     O_R   0.787266 0.099748 0.966822 -0.782631
O7    O     O_2   0.449169 0.460326 0.241123 -0.683812
O8    O     O_R   0.438398 0.667488 0.274140 -0.769995
O9    O     O_R   0.138320 0.658600 0.480130 -0.526475
O10   O     O_R   0.002900 0.525670 0.675280 -0.580264
O11   O     O_R   0.204310 0.491320 0.646330 -0.611525
O12   O     O_R   0.861680 0.341400 0.519870 -0.625396
O13   O     O_R   0.063090 0.307050 0.490920 -0.597058
O14   O     O_R   0.795690 0.508680 0.353670 -0.590642
O15   O     O_R   0.997100 0.474330 0.324720 -0.612725
O16   O     O_2   0.288403 0.865719 0.443738 -0.570123
Zn1   Zn    Zn3+2 0.865520 0.522940 0.519330 0.958561
Zn2   Zn    Zn3+2 0.134480 0.477060 0.480670 0.989297

loop_
_geom_bond_atom_site_label_1
_geom_bond_atom_site_label_2
_ccdc_geom_bond_type
C8    C9    S    
C6    H12   S    
C31   H28   S    
C14   C33   A    
C20   H8    S    
N1    Zn2   S    
C12   C23   A    
H9    O4    S    
C26   O7    D    
O11   Zn2   S    
C12   C28   A    
C17   C26   S    
C13   C29   A    
C28   C29   A    
H20   O8    S    
C19   O16   D    
N2    Zn1   S    
C30   C31   A    
C20   H7    S    
C11   C14   S    
C27   H22   S    
N2    N5    S    
C11   O15   A    
H23   N1    S    
C10   O12   A    
O9    Zn2   S    
C25   H17   S    
C9    N2    D    
C22   H11   S    
H21   N7    S    
C16   C17   A    
C12   C17   A    
C3    C19   S    
C18   H2    S    
C22   N5    S    
C22   H14   S    
C8    N1    D    
H10   N5    S    
C30   H26   S    
C16   N7    S    
O1    Zn1   S    
H30   N3    S    
C1    O1    A    
C4    O10   A    
C19   O2    S    
C27   H24   S    
C5    C7    S    
C20   H6    S    
C24   O5    D    
C18   N3    S    
C21   O3    D    
C27   H25   S    
C13   C24   S    
C1    C3    S    
C23   C31   A    
H15   O6    S    
C2    C4    S    
C25   H18   S    
C7    H29   S    
C13   C33   A    
C29   C30   A    
C28   C32   A    
C5    H1    S    
C8    C21   S    
C2    C15   A    
C22   H13   S    
H5    N4    S    
H16   N6    S    
O13   Zn2   S    
C32   H27   S    
C27   N7    S    
C33   N3    S    
O14   Zn1   S    
C15   N6    S    
H4    O2    S    
C20   N4    S    
C14   C32   A    
C3    C5    D    
O15   Zn2   S    
C6    C10   S    
C6    C7    D    
C21   O4    S    
C26   O8    S    
C9    N4    S    
C18   H31   S    
C11   O14   A    
C10   O13   A    
O12   Zn1   S    
C25   H19   S    
O10   Zn1   S    
C24   O6    S    
C4    O11   A    
C2    C23   A    
C1    O9    A    
C25   N6    S    
C18   H3    S    
C15   C16   A    
