data_mof_unit_493.cif
_audit_creation_date              2012-12-11T18:11:29-0500
_audit_creation_method            fapswitch 2.2
_symmetry_space_group_name_H-M    P1
_symmetry_Int_Tables_number       1
_space_group_crystal_system       triclinic
_cell_length_a                    8.17006
_cell_length_b                    12.863391
_cell_length_c                    18.710335
_cell_angle_alpha                 99.830179
_cell_angle_beta                  91.008542
_cell_angle_gamma                 98.397933
_cell_volume                      1914.88645006

loop_
_atom_site_label
_atom_site_type_symbol
_atom_type_description
_atom_site_fract_x
_atom_site_fract_y
_atom_site_fract_z
_atom_type_partial_charge
Ba1   Ba    Ba6+2 0.852780 0.548340 0.465070 1.654309
Ba2   Ba    Ba6+2 0.337060 0.451750 0.534940 1.668755
C1    C     C_3   0.587373 0.893291 0.246844 -0.419022
C2    C     C_R   0.899861 0.392066 0.095152 -0.069218
C3    C     C_R   0.760474 0.420403 0.955128 -0.091129
C4    C     C_3   0.133553 0.759182 0.264354 0.388125
C5    C     C_R   0.926711 0.459882 0.978264 0.024042
C6    C     C_R   0.702057 0.422043 0.885200 -0.092259
C7    C     C_R   0.806538 0.462751 0.834673 -0.040460
C8    C     C_R   0.970286 0.510990 0.857638 0.008327
C9    C     C_R   0.030177 0.510766 0.930021 0.029977
C10   C     C_R   0.752893 0.455258 0.761540 -0.016074
C11   C     C_R   0.862560 0.493180 0.711935 -0.291557
C12   C     C_3   0.639289 0.820058 0.295983 0.344943
C13   C     C_R   0.020693 0.547761 0.733941 0.049596
C14   C     C_R   0.074047 0.559274 0.808256 -0.028427
C15   C     C_R   0.152312 0.504045 0.072322 0.030841
C16   C     C_3   0.118549 0.786893 0.188917 -0.339654
C17   C     C_R   0.211931 0.503394 0.144722 0.007936
C18   C     C_R   0.110871 0.450443 0.192920 0.001931
C19   C     C_R   0.960016 0.389906 0.164962 0.056466
C20   C     C_R   0.227481 0.617485 0.835028 -0.016428
C21   C     C_R   0.286140 0.617845 0.905409 -0.086225
C22   C     C_R   0.193030 0.561013 0.953383 0.013010
C23   C     C_3   0.425092 0.235239 0.303937 0.314524
C24   C     C_R   0.255365 0.555986 0.024360 0.025286
C25   C     C_R   0.419932 0.598671 0.048562 -0.097319
C26   C     C_R   0.373817 0.554307 0.168420 -0.030952
C27   C     C_R   0.477203 0.597961 0.118704 -0.097675
C28   C     C_3   0.230227 0.783619 0.617414 0.275207
C29   C     C_R   0.427940 0.560075 0.241170 -0.012713
C30   C     C_R   0.319537 0.518515 0.290143 -0.298565
C31   C     C_R   0.165032 0.458908 0.267018 0.069994
C32   C     C_R   0.754871 0.180555 0.531801 -0.283406
C33   C     C_R   0.427154 0.806332 0.469820 -0.350477
C34   C     C_3   0.357965 0.151822 0.236435 0.190522
C35   C     C_R   0.398774 0.977389 0.439183 0.299400
C36   C     C_R   0.335534 0.871349 0.438766 -0.004414
C37   C     C_R   0.576267 0.848064 0.508887 0.067200
C38   C     C_R   0.637743 0.959867 0.516122 -0.095121
C39   C     C_R   0.548211 0.026281 0.480411 -0.098807
C40   C     C_3   0.228203 0.903117 0.630624 -0.296041
C41   C     C_R   0.611233 0.137932 0.489254 0.080340
C42   C     C_R   0.848563 0.115860 0.561586 -0.042774
C43   C     C_R   0.788252 0.006661 0.555872 -0.070042
C44   C     C_3   0.955086 0.215497 0.380078 0.324870
C45   C     C_3   0.019908 0.147821 0.728483 0.697825
C46   C     C_3   0.893031 0.096439 0.359424 -0.337417
C47   C     C_3   0.729308 0.710192 0.683288 0.305765
C48   C     C_3   0.746179 0.748335 0.765049 -0.366542
C49   C     C_3   0.532694 0.327755 0.278997 -0.331177
C50   C     C_3   0.025334 0.259760 0.771973 -0.248099
C51   C     C_3   0.561090 0.189313 0.707315 0.385053
C52   C     C_3   0.570102 0.097403 0.748004 -0.350062
C53   C     C_R   0.990348 0.452745 0.048564 0.008656
Cl1   Cl    Cl    0.214477 0.198405 0.181105 -0.730275
Cl2   Cl    Cl    0.061992 0.060775 0.788702 -0.705263
Cl3   Cl    Cl    0.278436 0.036175 0.383391 -0.740978
H1    H     H_    0.728762 0.867360 0.338914 0.079312
H2    H     H_    0.848377 0.687915 0.663767 0.010302
H3    H     H_    0.630408 0.639843 0.671642 0.057542
H4    H     H_    0.523427 0.955233 0.278515 0.122353
H5    H     H_    0.848178 0.816704 0.778337 0.178275
H6    H     H_    0.773826 0.683303 0.793094 0.046542
H7    H     H_    0.628698 0.773900 0.785196 0.124480
H8    H     H_    0.527954 0.788513 0.323254 -0.053105
H9    H     H_    0.501479 0.846344 0.202405 0.117616
H10   H     H_    0.319705 0.263375 0.334143 0.065458
H11   H     H_    0.461859 0.128509 0.202776 0.069223
H12   H     H_    0.314541 0.941901 0.676748 0.138041
H13   H     H_    0.292293 0.078372 0.252072 0.139286
H14   H     H_    0.697894 0.932729 0.222809 0.144221
H15   H     H_    0.187723 0.867692 0.188142 0.133740
H16   H     H_    0.894412 0.116160 0.704143 -0.095423
H17   H     H_    0.998909 0.314731 0.735256 0.027431
H18   H     H_    0.930911 0.259394 0.813897 0.074877
H19   H     H_    0.149622 0.289154 0.798961 0.162261
H20   H     H_    0.689328 0.221065 0.694654 -0.117397
H21   H     H_    0.486848 0.158933 0.655658 0.071291
H22   H     H_    0.659688 0.123618 0.795206 0.133423
H23   H     H_    0.266330 0.937244 0.581985 0.058366
H24   H     H_    0.610639 0.029260 0.711452 0.081033
H25   H     H_    0.059862 0.679454 0.264329 0.061243
H26   H     H_    0.447031 0.071090 0.768491 0.182881
H27   H     H_    0.821718 0.483736 0.655568 0.066996
H28   H     H_    0.573513 0.390087 0.871472 0.119357
H29   H     H_    0.885861 0.340054 0.196695 0.099694
H30   H     H_    0.305765 0.663047 0.801875 0.096658
H31   H     H_    0.604272 0.632913 0.133102 0.110070
H32   H     H_    0.361151 0.525906 0.346235 0.074440
H33   H     H_    0.670535 0.389197 0.990531 0.085658
H34   H     H_    0.101507 0.919539 0.643586 0.155944
H35   H     H_    0.782618 0.342747 0.078544 0.074732
H36   H     H_    0.405491 0.665019 0.920692 0.065540
H37   H     H_    0.265769 0.756265 0.276650 -0.085263
H38   H     H_    0.509753 0.632499 0.014239 0.074161
H39   H     H_    0.862413 0.959303 0.581227 0.100858
H40   H     H_    0.802157 0.264724 0.536788 0.052783
H41   H     H_    0.376949 0.723016 0.466887 0.078046
H42   H     H_    0.170808 0.728212 0.148740 0.059385
H43   H     H_    0.986475 0.785597 0.173259 0.150510
H44   H     H_    0.356107 0.767642 0.604603 -0.001383
H45   H     H_    0.857483 0.255972 0.407788 -0.015376
H46   H     H_    0.142732 0.747630 0.570795 0.071304
H47   H     H_    0.564011 0.394179 0.325496 0.129003
H48   H     H_    0.646754 0.300387 0.256713 0.133062
H49   H     H_    0.469585 0.356090 0.234938 0.096727
H50   H     H_    0.064868 0.227456 0.417482 0.094472
H51   H     H_    0.767324 0.083477 0.333530 0.106484
H52   H     H_    0.889338 0.058071 0.408182 0.100945
H53   H     H_    0.975329 0.057739 0.320128 0.200364
O1    O     O_2   0.873090 0.425890 0.325140 -0.478110
O2    O     O_2   0.177853 0.122568 0.539959 -0.439987
O3    O     O_3   0.141751 0.147524 0.676476 -0.584388
O4    O     O_3   0.122420 0.434370 0.414380 -0.508615
O5    O     O_3   0.578370 0.633800 0.536380 -0.492777
O6    O     O_2   0.341510 0.231850 0.465510 -0.417348
O7    O     O_3   0.526140 0.186845 0.345987 -0.635101
O8    O     O_2   0.409295 0.456334 0.755358 -0.482995
O9    O     O_3   0.483190 0.266304 0.750675 -0.573143
O10   O     O_3   0.659500 0.627100 0.368810 -0.472904
O11   O     O_2   0.766799 0.543322 0.243062 -0.502073
O12   O     O_3   0.689541 0.793654 0.650576 -0.631962
O13   O     O_3   0.996677 0.255429 0.316839 -0.596447
O14   O     O_3   0.717377 0.741078 0.254311 -0.590249
O15   O     O_2   0.848200 0.768190 0.534530 -0.479204
O16   O     O_3   0.081160 0.685950 0.404810 -0.502731
O17   O     O_2   0.995352 0.873702 0.449839 -0.456085
O18   O     O_3   0.072834 0.836987 0.314549 -0.542056
O19   O     O_2   0.316610 0.574140 0.674900 -0.468142
O20   O     O_3   0.067290 0.565720 0.585630 -0.503797
O21   O     O_3   0.530210 0.372990 0.631200 -0.477275
O22   O     O_3   0.186405 0.745016 0.680996 -0.625063
O23   O     O_3   0.611340 0.366290 0.463630 -0.486699
O24   O     O_3   0.108550 0.314140 0.595200 -0.472053
P1    P     P_3+3 0.041040 0.394770 0.336330 0.992642
P2    P     P_3+3 0.672880 0.754030 0.556100 0.976011
P3    P     P_3+3 0.121929 0.818643 0.402628 1.036997
P4    P     P_3+3 0.148670 0.605320 0.663680 0.979450
P5    P     P_3+3 0.063465 0.175227 0.594960 0.958067
P6    P     P_3+3 0.642108 0.615942 0.275368 0.947599
P7    P     P_3+3 0.524505 0.231709 0.440683 1.004798
P8    P     P_3+3 0.544230 0.390428 0.725453 0.970869

loop_
_geom_bond_atom_site_label_1
_geom_bond_atom_site_label_2
_ccdc_geom_bond_type
C45   O3    S    
C46   H52   S    
C37   P2    S    
O15   P2    D    
C25   C27   A    
C48   H6    S    
C17   C18   A    
C5    C53   A    
C50   H17   S    
C23   O7    S    
C19   H29   S    
C51   O9    S    
C51   C52   S    
C42   C43   A    
C5    C9    A    
C12   H1    S    
C40   H23   S    
C24   C25   A    
Ba2   O23   S    
C47   H2    S    
Ba2   P4    S    
C26   C27   A    
C51   H21   S    
C22   C24   A    
Ba1   O1    S    
C45   Cl2   S    
O4    P1    S    
C13   C14   A    
C47   O12   S    
C9    C22   A    
C40   H12   S    
O8    P8    D    
Ba1   Ba2   S    
O17   P3    D    
C32   H40   S    
Ba2   O5    S    
C30   H32   S    
O18   P3    S    
O14   P6    S    
C6    C7    A    
C44   H50   S    
Ba2   O21   S    
C21   C22   A    
O16   P3    S    
C20   H30   S    
Ba1   P1    S    
C7    C8    A    
C15   C53   A    
C52   H22   S    
C35   Cl3   S    
C34   H13   S    
O21   P8    S    
C46   H51   S    
C42   P5    S    
C48   H5    S    
C39   C41   A    
C44   O13   S    
C25   H38   S    
O24   P5    S    
O9    P8    S    
C16   H42   S    
O1    P1    D    
C4    O18   S    
C33   H41   S    
O19   P4    D    
C27   H31   S    
C48   H7    S    
Ba2   O6    S    
C13   P4    S    
C12   H8    S    
C38   C43   A    
C4    C16   S    
C44   C46   S    
C47   H3    S    
O13   P1    S    
O10   P6    S    
C33   C36   A    
C32   C42   A    
Ba1   O15   S    
C37   C38   A    
C3    C5    A    
C15   C17   A    
O7    P7    S    
C16   H43   S    
C29   P6    S    
C33   C37   A    
C23   C49   S    
C35   C36   A    
C34   Cl1   S    
O23   P7    S    
Ba2   O4    S    
C29   C30   A    
C49   H47   S    
C28   O22   S    
C28   H44   S    
Ba2   O20   S    
C36   P3    S    
O2    P5    D    
C4    H37   S    
C10   C11   A    
C17   C26   A    
C12   O14   S    
C3    H33   S    
C1    C12   S    
C18   C31   A    
C38   C39   A    
Ba1   O5    S    
O22   P4    S    
C16   H15   S    
O3    P5    S    
C11   C13   A    
C2    C53   A    
C15   C24   A    
C28   H46   S    
C50   H19   S    
C52   H24   S    
Ba1   P2    S    
C34   H11   S    
O5    P2    S    
C1    H4    S    
C14   C20   A    
C4    H25   S    
C40   H34   S    
C26   C29   A    
C1    H9    S    
C32   C41   A    
Ba1   O16   S    
C45   H16   S    
C50   H18   S    
C3    C6    A    
C21   H36   S    
C23   H10   S    
C45   C50   S    
C44   H45   S    
O12   P2    S    
Ba2   O24   S    
C10   P8    S    
C30   C31   A    
O6    P7    D    
C8    C14   A    
C2    C19   A    
C31   P1    S    
C49   H48   S    
Ba1   O20   S    
Ba2   O19   S    
C1    H14   S    
C6    H28   S    
C35   C39   A    
C52   H26   S    
C7    C10   A    
Ba1   O10   S    
O20   P4    S    
C8    C9    A    
C23   C34   S    
C51   H20   S    
C2    H35   S    
C46   H53   S    
C18   C19   A    
C49   H49   S    
C47   C48   S    
C11   H27   S    
C20   C21   A    
C28   C40   S    
C41   P7    S    
C43   H39   S    
Ba1   O4    S    
O11   P6    D    
Ba1   O23   S    
