data_mof_unit_4562.cif
_audit_creation_date              2012-12-11T15:50:35-0500
_audit_creation_method            fapswitch 2.2
_symmetry_space_group_name_H-M    P1
_symmetry_Int_Tables_number       1
_space_group_crystal_system       monoclinic
_cell_length_a                    6.927122
_cell_length_b                    14.530928
_cell_length_c                    16.011036
_cell_angle_alpha                 90.0
_cell_angle_beta                  89.999934
_cell_angle_gamma                 90.0
_cell_volume                      1611.63103276

loop_
_atom_site_label
_atom_site_type_symbol
_atom_type_description
_atom_site_fract_x
_atom_site_fract_y
_atom_site_fract_z
_atom_type_partial_charge
O1    O     O_R   0.638140 0.833910 0.163320 -0.552961
O2    O     O_R   0.361860 0.166090 0.836680 -0.552962
O3    O     O_R   0.361860 0.166090 0.663320 -0.552960
O4    O     O_R   0.638140 0.833910 0.336680 -0.552960
O5    O     O_R   0.138140 0.666090 0.336680 -0.552962
O6    O     O_R   0.861860 0.333910 0.663320 -0.552961
O7    O     O_R   0.861860 0.333910 0.836680 -0.552963
O8    O     O_R   0.138140 0.666090 0.163320 -0.552962
O9    O     O_R   0.308390 0.844930 0.336080 -0.524684
O10   O     O_R   0.691610 0.155070 0.663920 -0.524682
O11   O     O_R   0.691610 0.155070 0.836080 -0.524692
O12   O     O_R   0.308390 0.844930 0.163920 -0.524692
O13   O     O_R   0.808390 0.655070 0.163920 -0.524692
O14   O     O_R   0.191610 0.344930 0.836080 -0.524692
O15   O     O_R   0.191610 0.344930 0.663920 -0.524691
O16   O     O_R   0.808390 0.655070 0.336080 -0.524694
C1    C     C_R   0.477471 0.867581 0.364604 0.763395
C2    C     C_R   0.522529 0.132418 0.635396 0.763400
C3    C     C_R   0.522529 0.132418 0.864604 0.763390
C4    C     C_R   0.477471 0.867582 0.135396 0.763392
C5    C     C_R   0.977471 0.632418 0.135396 0.763391
C6    C     C_R   0.022529 0.367582 0.864604 0.763390
C7    C     C_R   0.022529 0.367582 0.635396 0.763396
C8    C     C_R   0.977471 0.632418 0.364604 0.763390
O17   O     O_3   0.471620 0.691320 0.250000 -0.374958
O18   O     O_3   0.528380 0.308680 0.750000 -0.374956
O19   O     O_3   0.971620 0.808680 0.250000 -0.374950
O20   O     O_3   0.028380 0.191320 0.750000 -0.374950
V1    V     V_3+5 0.196770 0.760880 0.250000 1.432454
V2    V     V_3+5 0.803230 0.239120 0.750000 1.432465
V3    V     V_3+5 0.696770 0.739120 0.250000 1.432444
V4    V     V_3+5 0.303230 0.260880 0.750000 1.432456
C9    C     C_R   0.863623 0.487194 0.435422 0.477093
C10   C     C_R   0.136376 0.512807 0.564578 0.477092
C11   C     C_R   0.136378 0.512806 0.935423 0.477092
C12   C     C_R   0.863622 0.487194 0.064577 0.477092
C13   C     C_R   0.363622 0.012806 0.064578 0.477091
C14   C     C_R   0.636378 0.987194 0.935423 0.477093
C15   C     C_R   0.636376 0.987193 0.564579 0.477098
C16   C     C_R   0.363623 0.012806 0.435422 0.477100
C17   C     C_R   0.877644 0.423680 0.501697 -0.335129
C18   C     C_R   0.122354 0.576321 0.498304 -0.335139
C19   C     C_R   0.122356 0.576320 0.001697 -0.335133
C20   C     C_R   0.877644 0.423680 0.998303 -0.335132
C21   C     C_R   0.377644 0.076320 0.998303 -0.335132
C22   C     C_R   0.622356 0.923680 0.001697 -0.335133
C23   C     C_R   0.622352 0.923678 0.498305 -0.335152
C24   C     C_R   0.377648 0.076321 0.501696 -0.335142
H1    H     H_    0.786968 0.362943 0.501255 0.144374
H2    H     H_    0.213024 0.637060 0.498746 0.144368
H3    H     H_    0.213029 0.637058 0.001255 0.144372
H4    H     H_    0.786970 0.362942 0.998745 0.144372
H5    H     H_    0.286970 0.137058 0.998745 0.144372
H6    H     H_    0.713029 0.862942 0.001255 0.144372
H7    H     H_    0.713020 0.862939 0.498747 0.144364
H8    H     H_    0.286978 0.137061 0.501253 0.144372
C25   C     C_R   0.011724 0.436131 0.566704 -0.193323
C26   C     C_R   0.988276 0.563869 0.433296 -0.193326
C27   C     C_R   0.988276 0.563869 0.066704 -0.193323
C28   C     C_R   0.011724 0.436131 0.933296 -0.193323
C29   C     C_R   0.511724 0.063869 0.933296 -0.193322
C30   C     C_R   0.488276 0.936131 0.066704 -0.193323
C31   C     C_R   0.488275 0.936131 0.433297 -0.193315
C32   C     C_R   0.511725 0.063869 0.566703 -0.193312
O21   O     O_3   0.746932 0.468537 0.367218 -0.537219
C33   C     C_3   0.551576 0.477985 0.390342 -0.146075
H9    H     H_    0.461499 0.472788 0.333266 0.162681
H10   H     H_    0.522526 0.546601 0.418537 0.109937
H11   H     H_    0.505894 0.421780 0.433005 0.103178
O22   O     O_3   0.253057 0.531465 0.632786 -0.537221
C34   C     C_3   0.448417 0.522040 0.609664 -0.146087
H12   H     H_    0.477502 0.453430 0.581465 0.109941
H13   H     H_    0.538483 0.527243 0.666744 0.162685
H14   H     H_    0.494080 0.578252 0.567006 0.103178
O23   O     O_3   0.253067 0.531463 0.867217 -0.537221
C35   C     C_3   0.448422 0.522026 0.890340 -0.146075
H15   H     H_    0.538494 0.527222 0.833261 0.162681
H16   H     H_    0.477486 0.453412 0.918540 0.109936
H17   H     H_    0.494096 0.578236 0.932999 0.103180
O24   O     O_3   0.746934 0.468537 0.132783 -0.537221
C36   C     C_3   0.551578 0.477975 0.109661 -0.146072
H18   H     H_    0.522515 0.546589 0.081462 0.109936
H19   H     H_    0.461507 0.472777 0.166740 0.162686
H20   H     H_    0.505903 0.421766 0.067000 0.103178
O25   O     O_3   0.246934 0.031463 0.132783 -0.537221
C37   C     C_3   0.051578 0.022025 0.109661 -0.146068
H21   H     H_    0.961506 0.027218 0.166740 0.162684
H22   H     H_    0.022517 0.953413 0.081458 0.109932
H23   H     H_    0.005902 0.078236 0.067004 0.103181
O26   O     O_3   0.753066 0.968537 0.867217 -0.537221
C38   C     C_3   0.948422 0.977973 0.890340 -0.146078
H24   H     H_    0.977487 0.046585 0.918542 0.109935
H25   H     H_    0.038494 0.972779 0.833261 0.162681
H26   H     H_    0.994096 0.921762 0.932997 0.103182
O27   O     O_3   0.753058 0.968538 0.632787 -0.537222
C39   C     C_3   0.948418 0.977933 0.609662 -0.146089
H27   H     H_    0.038478 0.972772 0.666747 0.162690
H28   H     H_    0.977525 0.046520 0.581420 0.109899
H29   H     H_    0.994066 0.921686 0.567041 0.103215
O28   O     O_3   0.246930 0.031460 0.367217 -0.537220
C40   C     C_3   0.051575 0.022043 0.390345 -0.146093
H30   H     H_    0.022492 0.953446 0.418570 0.109915
H31   H     H_    0.961506 0.027220 0.333266 0.162692
H32   H     H_    0.005916 0.078273 0.432983 0.103201

loop_
_geom_bond_atom_site_label_1
_geom_bond_atom_site_label_2
_ccdc_geom_bond_type
O17   V3    S    
C33   H10   S    
O18   V4    S    
C9    C26   A    
O12   V1    S    
O19   V1    S    
O27   C39   S    
C10   C18   A    
C35   H17   S    
C24   H8    S    
C12   C27   A    
C2    C32   S    
C18   C26   A    
C36   H18   S    
C9    O21   S    
O15   V4    S    
O25   C37   S    
O16   V3    S    
C15   C32   A    
O11   C3    A    
C40   H30   S    
C16   C31   A    
C22   C30   A    
O8    V1    S    
C13   O25   S    
C35   H16   S    
C5    C27   S    
C23   C31   A    
C3    C29   S    
C37   H22   S    
C24   C32   A    
C33   H11   S    
C39   H29   S    
O1    V3    S    
O3    C2    A    
O2    V4    S    
C16   C24   A    
O11   V2    S    
C39   H28   S    
C10   C25   A    
O22   C34   S    
C11   C19   A    
C10   O22   S    
O9    V1    S    
C14   C29   A    
C20   H4    S    
O15   C7    A    
C33   H9    S    
C23   H7    S    
C21   H5    S    
O16   C8    A    
O7    V2    S    
C22   H6    S    
C17   H1    S    
C36   H19   S    
C13   C30   A    
O5    V1    S    
O17   V1    S    
O19   V3    S    
O20   V4    S    
C35   H15   S    
C12   O24   S    
C38   H24   S    
C34   H13   S    
C37   H21   S    
C11   C28   A    
O23   C35   S    
C38   H25   S    
O10   V2    S    
C11   O23   S    
C39   H27   S    
O12   C4    A    
O8    C5    A    
O13   C5    A    
C20   C28   A    
C15   O27   S    
C18   H2    S    
O4    C1    A    
O9    C1    A    
O6    V2    S    
O18   V2    S    
C40   H32   S    
C12   C20   A    
C13   C21   A    
C36   H20   S    
C15   C23   A    
C40   H31   S    
C7    C25   S    
O1    C4    A    
O2    C3    A    
O13   V3    S    
O14   V4    S    
O24   C36   S    
C37   H23   S    
C16   O28   S    
C34   H14   S    
C19   C27   A    
O7    C6    A    
C14   O26   S    
C9    C17   A    
O14   C6    A    
O20   V2    S    
C17   C25   A    
C34   H12   S    
C1    C31   S    
C38   H26   S    
C6    C28   S    
C19   H3    S    
O26   C38   S    
O5    C8    A    
O10   C2    A    
O6    C7    A    
C21   C29   A    
O28   C40   S    
C4    C30   S    
O3    V4    S    
C14   C22   A    
O4    V3    S    
C8    C26   S    
O21   C33   S    
