data_mof_unit_1695.cif
_audit_creation_date              2012-10-26T18:25:52-0400
_audit_creation_method            fapswitch 2.2
_symmetry_space_group_name_H-M    P1
_symmetry_Int_Tables_number       1
_space_group_crystal_system       triclinic
_cell_length_a                    11.648414
_cell_length_b                    8.710835
_cell_length_c                    7.620751
_cell_angle_alpha                 103.760713
_cell_angle_beta                  95.552438
_cell_angle_gamma                 94.766958
_cell_volume                      743.022276731

loop_
_atom_site_label
_atom_site_type_symbol
_atom_type_description
_atom_site_fract_x
_atom_site_fract_y
_atom_site_fract_z
_atom_type_partial_charge
C1    C     C_R   0.496554 0.199901 0.452691 0.536062
C2    C     C_2   0.505271 0.969041 0.572431 -0.107672
C3    C     C_R   0.503446 0.800099 0.547309 0.536059
C4    C     C_R   0.284526 0.499567 0.499757 0.549522
C5    C     C_R   0.715474 0.500433 0.500243 0.549520
C6    C     C_1   0.162654 0.499625 0.499526 0.053513
C7    C     C_1   0.837346 0.500375 0.500474 0.053508
C8    C     C_1   0.059960 0.499831 0.499768 0.009660
C9    C     C_1   0.940040 0.500169 0.500232 0.009659
C10   C     C_2   0.494729 0.030959 0.427569 -0.107672
Cu1   Cu    Cu3+1 0.512570 0.517380 0.684380 1.208168
Cu2   Cu    Cu3+1 0.487430 0.482620 0.315620 1.208173
H1    H     H_    0.484631 0.957309 0.288993 0.167726
H2    H     H_    0.515369 0.042690 0.711007 0.167726
H3    H     H_    0.201648 0.211125 0.027125 0.352498
H4    H     H_    0.798360 0.788837 0.972838 0.352498
N1    N     N_2   0.468500 0.456430 0.038520 0.037376
N2    N     N_2   0.531500 0.543570 0.961480 0.037375
O1    O     O_R   0.508170 0.286130 0.619770 -0.488265
O2    O     O_2   0.327661 0.257461 0.754952 -0.289849
O3    O     O_3   0.285334 0.241340 0.070145 -0.495758
O4    O     O_2   0.672340 0.742539 0.245048 -0.289835
O5    O     O_2   0.752244 0.515250 0.056876 -0.288041
O6    O     O_3   0.714666 0.758660 0.929856 -0.495756
O7    O     O_R   0.491830 0.713870 0.380230 -0.488267
O8    O     O_R   0.486940 0.256780 0.308360 -0.475808
O9    O     O_R   0.513060 0.743220 0.691640 -0.475809
O10   O     O_R   0.347810 0.514690 0.655710 -0.448314
O11   O     O_R   0.652190 0.485310 0.344290 -0.448311
O12   O     O_R   0.326590 0.485340 0.344300 -0.461797
O13   O     O_R   0.673410 0.514660 0.655700 -0.461808
O14   O     O_2   0.247755 0.484749 0.943123 -0.288031
S1    S     S_3+6 0.331278 0.361997 0.942655 0.140974
S2    S     S_3+6 0.668722 0.638003 0.057345 0.140976

loop_
_geom_bond_atom_site_label_1
_geom_bond_atom_site_label_2
_ccdc_geom_bond_type
Cu2   N1    S    
Cu1   Cu2   S    
Cu1   N2    S    
Cu2   O11   S    
C5    C7    S    
Cu1   O9    S    
Cu2   O7    S    
O5    S2    D    
O14   S1    D    
C3    O9    A    
N1    N2    D    
Cu1   O13   S    
H4    O6    S    
N2    S2    S    
Cu1   O1    S    
N1    S1    S    
Cu1   O10   S    
C2    H2    S    
O2    S1    D    
C4    O10   A    
C2    C3    S    
C5    O11   A    
C1    O8    A    
O4    S2    D    
C4    O12   A    
C1    O1    A    
O3    S1    S    
C2    C10   D    
H3    O3    S    
C3    O7    A    
C4    C6    S    
C7    C9    T    
C6    C8    T    
Cu2   O12   S    
O6    S2    S    
C1    C10   S    
Cu2   O8    S    
C8    C9    S    
C5    O13   A    
C10   H1    S    
