data_mof_unit_4043.cif
_audit_creation_date              2013-03-05T15:40:46-0500
_audit_creation_method            fapswitch 2.2
_symmetry_space_group_name_H-M    P1
_symmetry_Int_Tables_number       1
_space_group_crystal_system       triclinic
_cell_length_a                    16.77273
_cell_length_b                    16.772722
_cell_length_c                    16.77273
_cell_angle_alpha                 68.605579
_cell_angle_beta                  68.605459
_cell_angle_gamma                 68.605544
_cell_volume                      3941.84940248

loop_
_atom_site_label
_atom_site_type_symbol
_atom_site_description
_atom_site_fract_x
_atom_site_fract_y
_atom_site_fract_z
_atom_type_partial_charge
O1    O     O_R   0.124540 0.978640 0.385460 -0.543109
O2    O     O_R   0.875460 0.021360 0.614540 -0.504978
O3    O     O_R   0.978640 0.385460 0.124540 -0.543111
O4    O     O_R   0.021360 0.614540 0.875460 -0.504978
O5    O     O_R   0.385460 0.124540 0.978640 -0.543109
O6    O     O_R   0.614540 0.875460 0.021360 -0.504977
O7    O     O_R   0.614540 0.021360 0.875460 -0.543110
O8    O     O_R   0.385460 0.978640 0.124540 -0.504978
O9    O     O_R   0.875460 0.614540 0.021360 -0.543112
O10   O     O_R   0.124540 0.385460 0.978640 -0.504978
O11   O     O_R   0.021360 0.875460 0.614540 -0.543110
O12   O     O_R   0.978640 0.124540 0.385460 -0.504977
Cu1   Cu    Cu3+1 0.995180 0.995180 0.424630 1.040339
Cu2   Cu    Cu3+1 0.004820 0.004820 0.575370 1.040338
Cu3   Cu    Cu3+1 0.995180 0.424630 0.995180 1.040339
Cu4   Cu    Cu3+1 0.004820 0.575370 0.004820 1.040340
Cu5   Cu    Cu3+1 0.424630 0.995180 0.995180 1.040338
Cu6   Cu    Cu3+1 0.575370 0.004820 0.004820 1.040337
C1    C     C_R   0.027870 0.828261 0.564407 0.870076
C2    C     C_R   0.972345 0.171608 0.435227 0.875294
C3    C     C_R   0.828261 0.564407 0.027870 0.870078
C4    C     C_R   0.171608 0.435227 0.972345 0.875292
C5    C     C_R   0.564407 0.027870 0.828261 0.870078
C6    C     C_R   0.435227 0.972345 0.171608 0.875292
C7    C     C_R   0.435593 0.171738 0.972130 0.870077
C8    C     C_R   0.564773 0.828392 0.027655 0.875294
C9    C     C_R   0.972130 0.435593 0.171738 0.870078
C10   C     C_R   0.027655 0.564773 0.828392 0.875293
C11   C     C_R   0.171739 0.972130 0.435593 0.870077
C12   C     C_R   0.828392 0.027655 0.564773 0.875293
O13   O     O_R   0.013780 0.867370 0.487190 -0.595175
O14   O     O_R   0.986220 0.132630 0.512810 -0.576873
O15   O     O_R   0.867370 0.487190 0.013780 -0.595174
O16   O     O_R   0.132630 0.512810 0.986220 -0.576872
O17   O     O_R   0.487190 0.013780 0.867370 -0.595175
O18   O     O_R   0.512810 0.986220 0.132630 -0.576873
O19   O     O_R   0.512810 0.132630 0.986220 -0.595175
O20   O     O_R   0.487190 0.867370 0.013780 -0.576873
O21   O     O_R   0.986220 0.512810 0.132630 -0.595174
O22   O     O_R   0.013780 0.487190 0.867370 -0.576873
O23   O     O_R   0.132630 0.986220 0.512810 -0.595175
O24   O     O_R   0.867370 0.013780 0.487190 -0.576872
C13   C     C_R   0.451087 0.069233 0.700831 0.370581
C14   C     C_R   0.547380 0.925040 0.297293 0.384106
C15   C     C_R   0.069234 0.700831 0.451087 0.370580
C16   C     C_R   0.925038 0.297294 0.547380 0.384088
C17   C     C_R   0.700831 0.451087 0.069235 0.370582
C18   C     C_R   0.297294 0.547380 0.925038 0.384088
C19   C     C_R   0.299169 0.930766 0.548913 0.370580
C20   C     C_R   0.702707 0.074961 0.452620 0.384103
C21   C     C_R   0.548913 0.299169 0.930766 0.370580
C22   C     C_R   0.452620 0.702706 0.074962 0.384088
C23   C     C_R   0.930764 0.548913 0.299169 0.370582
C24   C     C_R   0.074962 0.452620 0.702706 0.384088
C25   C     C_R   0.547061 0.022963 0.539277 -0.138099
C26   C     C_R   0.460723 0.977035 0.452939 -0.138099
C27   C     C_R   0.022964 0.539277 0.547060 -0.138103
C28   C     C_R   0.977035 0.452940 0.460723 -0.138103
C29   C     C_R   0.539277 0.547060 0.022964 -0.138103
C30   C     C_R   0.452940 0.460723 0.977035 -0.138103
C31   C     C_R   0.589925 0.015372 0.451060 -0.009058
C32   C     C_R   0.420955 0.983824 0.540117 -0.035289
C33   C     C_R   0.015373 0.451060 0.589924 -0.009054
C34   C     C_R   0.983824 0.540117 0.420954 -0.035287
C35   C     C_R   0.451060 0.589925 0.015373 -0.009054
C36   C     C_R   0.540117 0.420954 0.983824 -0.035290
C37   C     C_R   0.548941 0.984627 0.410075 -0.009059
C38   C     C_R   0.459883 0.016174 0.579046 -0.035289
C39   C     C_R   0.410075 0.548940 0.984627 -0.009054
C40   C     C_R   0.579046 0.459883 0.016175 -0.035288
C41   C     C_R   0.984626 0.410075 0.548940 -0.009054
C42   C     C_R   0.016175 0.579046 0.459883 -0.035291
C43   C     C_R   0.408875 0.055260 0.649525 0.436505
C44   C     C_R   0.596219 0.947886 0.336228 0.418083
C45   C     C_R   0.055260 0.649525 0.408874 0.436504
C46   C     C_R   0.947885 0.336229 0.596219 0.418088
C47   C     C_R   0.649525 0.408875 0.055260 0.436503
C48   C     C_R   0.336229 0.596219 0.947886 0.418088
C49   C     C_R   0.350475 0.944739 0.591125 0.436505
C50   C     C_R   0.663772 0.052114 0.403781 0.418083
C51   C     C_R   0.591125 0.350475 0.944739 0.436504
C52   C     C_R   0.403781 0.663771 0.052114 0.418088
C53   C     C_R   0.944738 0.591125 0.350475 0.436500
C54   C     C_R   0.052114 0.403781 0.663771 0.418087
C55   C     C_R   0.546118 0.049309 0.675009 -0.087068
C56   C     C_R   0.453209 0.950843 0.323172 -0.104540
C57   C     C_R   0.049310 0.675009 0.546118 -0.087068
C58   C     C_R   0.950842 0.323172 0.453209 -0.104533
C59   C     C_R   0.675009 0.546118 0.049310 -0.087067
C60   C     C_R   0.323173 0.453209 0.950842 -0.104531
C61   C     C_R   0.324991 0.950690 0.453881 -0.087068
C62   C     C_R   0.676828 0.049156 0.546791 -0.104536
C63   C     C_R   0.453882 0.324991 0.950690 -0.087069
C64   C     C_R   0.546791 0.676827 0.049158 -0.104533
C65   C     C_R   0.950690 0.453882 0.324991 -0.087066
C66   C     C_R   0.049158 0.546791 0.676827 -0.104531
C67   C     C_R   0.598637 0.043115 0.729426 -0.174464
C68   C     C_R   0.400297 0.957022 0.270290 -0.188537
C69   C     C_R   0.043115 0.729426 0.598637 -0.174464
C70   C     C_R   0.957022 0.270290 0.400297 -0.188542
C71   C     C_R   0.729425 0.598637 0.043116 -0.174465
C72   C     C_R   0.270290 0.400297 0.957022 -0.188543
C73   C     C_R   0.270574 0.956884 0.401363 -0.174464
C74   C     C_R   0.729710 0.042977 0.599703 -0.188539
C75   C     C_R   0.401363 0.270574 0.956884 -0.174464
C76   C     C_R   0.599702 0.729710 0.042978 -0.188541
C77   C     C_R   0.956884 0.401363 0.270574 -0.174464
C78   C     C_R   0.042978 0.599702 0.729710 -0.188543
C79   C     C_R   0.689923 0.039920 0.690480 0.239377
C80   C     C_R   0.309520 0.960079 0.310077 0.239378
C81   C     C_R   0.039920 0.690480 0.689923 0.239378
C82   C     C_R   0.960079 0.310077 0.309520 0.239381
C83   C     C_R   0.690480 0.689923 0.039920 0.239381
C84   C     C_R   0.310077 0.309520 0.960079 0.239377
C85   C     C_R   0.590412 0.039476 0.587601 -0.075507
C86   C     C_R   0.412399 0.960523 0.409589 -0.075507
C87   C     C_R   0.039478 0.587601 0.590411 -0.075505
C88   C     C_R   0.960522 0.409589 0.412399 -0.075505
C89   C     C_R   0.587601 0.590411 0.039478 -0.075505
C90   C     C_R   0.409589 0.412399 0.960522 -0.075505
O25   O     O_3   0.401178 0.118291 0.762846 -0.580556
C91   C     C_3   0.326743 0.086596 0.821899 -0.049922
H1    H     H_    0.335020 0.015388 0.829296 0.117349
H2    H     H_    0.265536 0.129238 0.801344 0.173776
H3    H     H_    0.316436 0.091710 0.888943 0.206419
O26   O     O_3   0.590849 0.866305 0.244805 -0.554656
C92   C     C_3   0.584649 0.780212 0.297959 -0.287971
H4    H     H_    0.514637 0.776141 0.322874 0.143188
H5    H     H_    0.614379 0.758849 0.354406 0.151584
H6    H     H_    0.622358 0.732651 0.256797 0.219243
O27   O     O_3   0.118291 0.762846 0.401178 -0.580555
C93   C     C_3   0.086596 0.821900 0.326742 -0.049921
H7    H     H_    0.015388 0.829297 0.335021 0.117347
H8    H     H_    0.129238 0.801344 0.265535 0.173776
H9    H     H_    0.091710 0.888943 0.316436 0.206419
O28   O     O_3   0.866305 0.244805 0.590850 -0.554660
C94   C     C_3   0.780212 0.297954 0.584640 -0.287984
H10   H     H_    0.776146 0.322852 0.514627 0.143198
H11   H     H_    0.758846 0.354412 0.614356 0.151568
H12   H     H_    0.732651 0.256793 0.622357 0.219246
O29   O     O_3   0.762845 0.401179 0.118293 -0.580557
C95   C     C_3   0.821897 0.326741 0.086601 -0.049924
H13   H     H_    0.829294 0.335016 0.015394 0.117351
H14   H     H_    0.801341 0.265535 0.129247 0.173783
H15   H     H_    0.888941 0.316435 0.091714 0.206419
O30   O     O_3   0.244805 0.590850 0.866305 -0.554660
C96   C     C_3   0.297954 0.584641 0.780212 -0.287991
H16   H     H_    0.322856 0.514628 0.776146 0.143197
H17   H     H_    0.354410 0.614360 0.758846 0.151571
H18   H     H_    0.256793 0.622356 0.732652 0.219245
O31   O     O_3   0.237154 0.881709 0.598822 -0.580556
C97   C     C_3   0.178101 0.913404 0.673257 -0.049923
H19   H     H_    0.170704 0.984611 0.664979 0.117349
H20   H     H_    0.198656 0.870761 0.734464 0.173777
H21   H     H_    0.111057 0.908290 0.683564 0.206419
O32   O     O_3   0.755195 0.133695 0.409152 -0.554659
C98   C     C_3   0.702042 0.219788 0.415357 -0.287987
H22   H     H_    0.677134 0.223856 0.485370 0.143194
H23   H     H_    0.645590 0.241152 0.385632 0.151580
H24   H     H_    0.743204 0.267349 0.377645 0.219243
O33   O     O_3   0.598822 0.237154 0.881708 -0.580555
C99   C     C_3   0.673258 0.178100 0.913404 -0.049921
H25   H     H_    0.664979 0.170704 0.984611 0.117345
H26   H     H_    0.734465 0.198656 0.870761 0.173776
H27   H     H_    0.683564 0.111057 0.908290 0.206419
O34   O     O_3   0.409150 0.755195 0.133695 -0.554660
C100  C     C_3   0.415359 0.702046 0.219787 -0.287983
H28   H     H_    0.485372 0.677145 0.223854 0.143198
H29   H     H_    0.385641 0.645589 0.241154 0.151570
H30   H     H_    0.377644 0.743208 0.267348 0.219246
O35   O     O_3   0.881705 0.598820 0.237156 -0.580560
C101  C     C_3   0.913395 0.673260 0.178104 -0.049926
H31   H     H_    0.984601 0.664988 0.170708 0.117354
H32   H     H_    0.870746 0.734465 0.198661 0.173793
H33   H     H_    0.908283 0.683565 0.111060 0.206419
O36   O     O_3   0.133695 0.409150 0.755195 -0.554661
C102  C     C_3   0.219787 0.415359 0.702045 -0.287989
H34   H     H_    0.223854 0.485372 0.677144 0.143197
H35   H     H_    0.241154 0.385640 0.645589 0.151572
H36   H     H_    0.267348 0.377644 0.743207 0.219245
O37   O     O_3   0.317467 0.085922 0.663753 -0.575329
C103  C     C_3   0.296857 0.170928 0.604869 -0.342171
H37   H     H_    0.328853 0.169700 0.534193 0.154280
H38   H     H_    0.315849 0.219876 0.619849 0.182847
H39   H     H_    0.224071 0.193454 0.613717 0.228776
O38   O     O_3   0.688630 0.917408 0.319026 -0.600018
C104  C     C_3   0.732540 0.921325 0.228518 -0.173055
H40   H     H_    0.741774 0.858482 0.214491 0.222803
H41   H     H_    0.800754 0.925770 0.215061 0.135285
H42   H     H_    0.698856 0.980063 0.182558 0.158778
O39   O     O_3   0.085922 0.663753 0.317466 -0.575328
C105  C     C_3   0.170927 0.604869 0.296856 -0.342170
H43   H     H_    0.169699 0.534194 0.328852 0.154279
H44   H     H_    0.219876 0.619850 0.315847 0.182847
H45   H     H_    0.193453 0.613718 0.224070 0.228777
O40   O     O_3   0.917414 0.319027 0.688630 -0.600019
C106  C     C_3   0.921302 0.228525 0.732542 -0.173018
H46   H     H_    0.980016 0.182551 0.698854 0.158803
H47   H     H_    0.858440 0.214530 0.741788 0.222786
H48   H     H_    0.925767 0.215055 0.800752 0.135278
O41   O     O_3   0.663753 0.317467 0.085923 -0.575330
C107  C     C_3   0.604867 0.296856 0.170927 -0.342165
H49   H     H_    0.534193 0.328852 0.169698 0.154278
H50   H     H_    0.619846 0.315848 0.219876 0.182847
H51   H     H_    0.613716 0.224070 0.193453 0.228777
O42   O     O_3   0.319027 0.688630 0.917414 -0.600020
C108  C     C_3   0.228525 0.732543 0.921302 -0.173017
H52   H     H_    0.182551 0.698854 0.980015 0.158804
H53   H     H_    0.214531 0.741788 0.858440 0.222786
H54   H     H_    0.215056 0.800752 0.925766 0.135279
O43   O     O_3   0.336248 0.914076 0.682533 -0.575328
C109  C     C_3   0.395132 0.829070 0.703143 -0.342172
H55   H     H_    0.465807 0.830299 0.671146 0.154279
H56   H     H_    0.380151 0.780122 0.684151 0.182846
H57   H     H_    0.386284 0.806544 0.775929 0.228777
O44   O     O_3   0.680971 0.082591 0.311370 -0.600025
C110  C     C_3   0.771475 0.078692 0.267457 -0.173067
H58   H     H_    0.817443 0.019962 0.301138 0.158793
H59   H     H_    0.785487 0.141543 0.258224 0.222807
H60   H     H_    0.784935 0.074247 0.199242 0.135280
O45   O     O_3   0.682534 0.336247 0.914077 -0.575328
C111  C     C_3   0.703144 0.395131 0.829071 -0.342168
H61   H     H_    0.671148 0.465806 0.830299 0.154278
H62   H     H_    0.684153 0.380150 0.780123 0.182847
H63   H     H_    0.775930 0.386283 0.806545 0.228777
O46   O     O_3   0.311370 0.680973 0.082586 -0.600019
C112  C     C_3   0.267457 0.771475 0.078698 -0.173018
H64   H     H_    0.301146 0.817448 0.019984 0.158803
H65   H     H_    0.258212 0.785470 0.141560 0.222786
H66   H     H_    0.199248 0.784944 0.074234 0.135278
O47   O     O_3   0.914076 0.682533 0.336247 -0.575329
C113  C     C_3   0.829071 0.703143 0.395133 -0.342155
H67   H     H_    0.830302 0.671149 0.465808 0.154275
H68   H     H_    0.780123 0.684149 0.380156 0.182843
H69   H     H_    0.806544 0.775930 0.386283 0.228780
O48   O     O_3   0.082586 0.311370 0.680973 -0.600019
C114  C     C_3   0.078698 0.267457 0.771474 -0.173019
H70   H     H_    0.141560 0.258213 0.785469 0.222786
H71   H     H_    0.074234 0.199247 0.784944 0.135278
H72   H     H_    0.019985 0.301146 0.817448 0.158804
N1    N     N_R   0.743393 0.032773 0.744049 0.142815
O49   O     O_R   0.784009 0.954837 0.785923 -0.285469
O50   O     O_R   0.757732 0.103714 0.744525 -0.389665
N2    N     N_R   0.255951 0.967226 0.256607 0.142815
O51   O     O_R   0.214077 0.045163 0.215991 -0.285469
O52   O     O_R   0.255475 0.896286 0.242268 -0.389665
N3    N     N_R   0.032773 0.744049 0.743393 0.142815
O53   O     O_R   0.103714 0.744526 0.757732 -0.389665
O54   O     O_R   0.954836 0.785923 0.784009 -0.285468
N4    N     N_R   0.967226 0.256607 0.255951 0.142814
O55   O     O_R   0.896285 0.242267 0.255476 -0.389670
O56   O     O_R   0.045162 0.215991 0.214077 -0.285469
N5    N     N_R   0.744049 0.743393 0.032774 0.142812
O57   O     O_R   0.785923 0.784009 0.954837 -0.285469
O58   O     O_R   0.744523 0.757734 0.103714 -0.389671
N6    N     N_R   0.256607 0.255951 0.967226 0.142815
O59   O     O_R   0.242268 0.255475 0.896286 -0.389665
O60   O     O_R   0.215991 0.214077 0.045163 -0.285469

loop_
_geom_bond_atom_site_label_1
_geom_bond_atom_site_label_2
_geom_bond_distance
_ccdc_geom_bond_type
C13   C43   1.417559 A    
O35   C101  1.421362 S    
C98   H22   1.112619 S    
C68   C80   1.411716 A    
C23   C65   1.432896 A    
C71   C83   1.417696 A    
O41   C107  1.410648 S    
C96   H16   1.112617 S    
C1    O13   1.286050 A    
C8    C76   1.496957 S    
C16   C46   1.430462 A    
O33   C99   1.421363 S    
C11   O23   1.286047 A    
C100  H29   1.113560 S    
C36   C40   1.405383 A    
O37   C103  1.410647 S    
N2    O51   1.302194 A    
C110  H60   1.107761 S    
C49   O43   1.385416 S    
C94   H11   1.113559 S    
C14   O26   1.384751 S    
O26   C92   1.411920 S    
C107  H50   1.112800 S    
C73   C80   1.417696 A    
C6    C68   1.496955 S    
C30   C39   1.420207 A    
O32   C98   1.411920 S    
C15   C57   1.432898 A    
O9    Cu4   1.967259 S    
C99   H25   1.115615 S    
O10   Cu3   1.967259 S    
C74   C79   1.411716 A    
O11   Cu2   1.967260 S    
O7    C5    1.304331 A    
C28   C41   1.420207 A    
C3    O15   1.286047 A    
C10   O22   1.290024 A    
C31   C50   1.423554 A    
C24   O36   1.384755 S    
Cu3   Cu4   2.657116 S    
C28   C88   1.415289 A    
C67   C79   1.417694 A    
O48   C114  1.413536 S    
C11   C73   1.498866 S    
C56   C86   1.400907 A    
N1    O49   1.302195 A    
C77   C82   1.417694 A    
C18   C48   1.430465 A    
C106  H47   1.107051 S    
C112  H64   1.114259 S    
C31   C37   1.439821 A    
C103  H37   1.113222 S    
C60   C72   1.423098 A    
C104  H42   1.114279 S    
C46   O40   1.396527 S    
C7    O19   1.286048 A    
C5    C67   1.498865 S    
C23   O35   1.395116 S    
C64   C76   1.423098 A    
C59   C89   1.421565 A    
C9    O21   1.286049 A    
C93   H7    1.115615 S    
C102  H35   1.113560 S    
C107  H51   1.107876 S    
N6    O60   1.302196 A    
C108  H54   1.107754 S    
O31   C97   1.421364 S    
C109  H57   1.107876 S    
C22   C64   1.417282 A    
N5    O57   1.302196 A    
C63   C90   1.421566 A    
C9    C77   1.498868 S    
C15   C45   1.417561 A    
C13   O25   1.395116 S    
C57   C69   1.438899 A    
C101  H33   1.104299 S    
C22   O34   1.384755 S    
C102  H36   1.108236 S    
C66   C78   1.423099 A    
O2    Cu2   1.967258 S    
C30   C36   1.396571 A    
C98   H23   1.113562 S    
C18   C60   1.417283 A    
C114  H70   1.107048 S    
C40   C47   1.406231 A    
C17   C59   1.432898 A    
C95   H15   1.104299 S    
C39   C48   1.423554 A    
C106  H46   1.114259 S    
C92   H5    1.113562 S    
C19   C61   1.432899 A    
C42   C45   1.406229 A    
C14   C56   1.417281 A    
C24   C54   1.430465 A    
Cu1   O24   1.975777 S    
O4    C10   1.298781 A    
C101  H32   1.107692 S    
C25   C38   1.396571 A    
C100  H30   1.108234 S    
C16   C58   1.417284 A    
N3    O54   1.302196 A    
C65   C88   1.421565 A    
C28   C34   1.396570 A    
C4    O16   1.290024 A    
O6    Cu6   1.967259 S    
C96   H17   1.113560 S    
C83   N5    1.434178 S    
C107  H49   1.113221 S    
C19   O31   1.395116 S    
C76   C83   1.411717 A    
C7    C75   1.498864 S    
C108  H52   1.114260 S    
C13   C55   1.432899 A    
C105  H45   1.107875 S    
C66   C87   1.400908 A    
C55   C85   1.421568 A    
C96   H18   1.108234 S    
O44   C110  1.413542 S    
C50   O44   1.396526 S    
C61   C86   1.421567 A    
C20   O32   1.384753 S    
C100  H28   1.112618 S    
N5    O58   1.300312 A    
C1    C69   1.498865 S    
O42   C108  1.413535 S    
C8    O20   1.290024 A    
C29   C40   1.396570 A    
C111  H63   1.107876 S    
N4    O55   1.300312 A    
C16   O28   1.384755 S    
C113  H69   1.107875 S    
O10   C4    1.298783 A    
O39   C105  1.410649 S    
C18   O30   1.384755 S    
N1    O50   1.300310 A    
C103  H39   1.107875 S    
C60   C90   1.400908 A    
O4    Cu4   1.967262 S    
C106  H48   1.107752 S    
C45   O39   1.385416 S    
C82   N4    1.434179 S    
C48   O42   1.396526 S    
C34   C53   1.406233 A    
O45   C111  1.410647 S    
C72   C84   1.411717 A    
C75   C84   1.417696 A    
C99   H27   1.104298 S    
C43   O37   1.385417 S    
C64   C89   1.400907 A    
C32   C49   1.406230 A    
O43   C109  1.410647 S    
C2    C70   1.496958 S    
C97   H21   1.104298 S    
C79   N1    1.434182 S    
O7    Cu6   1.967261 S    
C69   C81   1.417697 A    
N6    O59   1.300310 A    
O12   C2    1.298782 A    
O1    C11   1.304334 A    
Cu5   Cu6   2.657119 S    
C26   C86   1.415290 A    
C37   C44   1.423554 A    
C6    O18   1.290024 A    
C97   H19   1.115615 S    
O5    Cu5   1.967258 S    
C22   C52   1.430464 A    
O25   C91   1.421363 S    
C58   C70   1.423096 A    
C58   C88   1.400908 A    
C65   C77   1.438898 A    
C21   C63   1.432899 A    
Cu2   O23   1.975778 S    
O5    C7    1.304333 A    
C81   N3    1.434179 S    
C20   C62   1.417281 A    
O36   C102  1.411919 S    
C112  H65   1.107049 S    
C97   H20   1.107686 S    
C70   C82   1.411718 A    
C98   H24   1.108236 S    
C5    O17   1.286047 A    
C114  H71   1.107754 S    
O34   C100  1.411919 S    
C26   C32   1.396570 A    
C54   O48   1.396528 S    
O1    Cu1   1.967258 S    
C17   C47   1.417560 A    
C91   H2    1.107687 S    
C92   H4    1.112622 S    
C41   C46   1.423553 A    
C19   C49   1.417559 A    
O3    Cu3   1.967261 S    
C101  H31   1.115615 S    
C52   O46   1.396527 S    
C27   C87   1.415289 A    
O30   C96   1.411920 S    
C2    O14   1.290024 A    
C21   C51   1.417560 A    
C111  H62   1.112802 S    
C29   C89   1.415290 A    
C59   C71   1.438900 A    
C113  H68   1.112802 S    
C24   C66   1.417283 A    
C102  H34   1.112619 S    
Cu1   O13   1.975778 S    
C12   O24   1.290024 A    
C109  H56   1.112802 S    
C27   C33   1.420207 A    
C61   C73   1.438899 A    
O40   C106  1.413536 S    
O38   C104  1.413547 S    
C20   C50   1.430462 A    
C14   C44   1.430457 A    
N3    O53   1.300311 A    
C15   O27   1.395117 S    
C110  H59   1.107065 S    
C26   C37   1.420210 A    
C84   N6    1.434181 S    
C94   H10   1.112617 S    
C17   O29   1.395117 S    
O8    Cu5   1.967260 S    
C4    C72   1.496959 S    
C78   C81   1.411717 A    
C32   C38   1.405382 A    
C33   C54   1.423552 A    
O2    C12   1.298782 A    
Cu4   O16   1.975778 S    
C105  H43   1.113220 S    
C91   H3    1.104299 S    
C47   O41   1.385417 S    
C21   O33   1.395117 S    
C38   C43   1.406230 A    
C92   H6    1.108235 S    
C3    C71   1.498866 S    
C104  H40   1.107068 S    
C63   C75   1.438899 A    
C99   H26   1.107687 S    
O29   C95   1.421362 S    
C29   C35   1.420207 A    
C36   C51   1.406230 A    
C25   C85   1.415287 A    
O9    C3    1.304332 A    
C35   C52   1.423553 A    
O6    C8    1.298782 A    
Cu6   O18   1.975775 S    
C51   O45   1.385416 S    
C10   C78   1.496960 S    
C93   H9    1.104297 S    
C35   C39   1.439824 A    
C94   H12   1.108234 S    
C25   C31   1.420210 A    
C110  H58   1.114278 S    
O3    C9    1.304331 A    
C113  H67   1.113219 S    
O8    C6    1.298782 A    
N2    O52   1.300311 A    
C30   C90   1.415288 A    
C95   H14   1.107689 S    
Cu5   O20   1.975779 S    
C34   C42   1.405384 A    
C57   C87   1.421567 A    
O11   C1    1.304332 A    
C111  H61   1.113221 S    
C56   C68   1.423096 A    
C62   C85   1.400907 A    
C103  H38   1.112801 S    
Cu3   O22   1.975778 S    
C104  H41   1.107759 S    
C55   C67   1.438900 A    
C62   C74   1.423096 A    
Cu4   O21   1.975777 S    
C23   C53   1.417564 A    
C80   N2    1.434179 S    
C112  H66   1.107753 S    
Cu2   O14   1.975777 S    
O12   Cu1   1.967260 S    
C93   H8    1.107687 S    
O46   C112  1.413536 S    
C114  H72   1.114259 S    
C12   C74   1.496955 S    
O47   C113  1.410648 S    
C108  H53   1.107049 S    
C27   C42   1.396570 A    
C95   H13   1.115616 S    
Cu6   O19   1.975779 S    
C53   O47   1.385417 S    
Cu5   O17   1.975777 S    
C91   H1    1.115615 S    
Cu1   Cu2   2.657115 S    
N4    O56   1.302196 A    
C33   C41   1.439824 A    
Cu3   O15   1.975779 S    
O28   C94   1.411919 S    
O27   C93   1.421364 S    
C109  H55   1.113220 S    
C44   O38   1.396523 S    
C105  H44   1.112802 S    
