data_mof_unit_1602.cif
_audit_creation_date              2013-03-05T16:10:38-0500
_audit_creation_method            fapswitch 2.2
_symmetry_space_group_name_H-M    P1
_symmetry_Int_Tables_number       1
_space_group_crystal_system       triclinic
_cell_length_a                    20.629062
_cell_length_b                    7.184644
_cell_length_c                    20.579633
_cell_angle_alpha                 89.998787
_cell_angle_beta                  101.59708
_cell_angle_gamma                 90.001532
_cell_volume                      2987.89069948

loop_
_atom_site_label
_atom_site_type_symbol
_atom_site_description
_atom_site_fract_x
_atom_site_fract_y
_atom_site_fract_z
_atom_type_partial_charge
O1    O     O_R   0.807340 0.614490 0.194100 -0.582257
O2    O     O_R   0.192660 0.385510 0.805900 -0.582456
O3    O     O_R   0.692660 0.114490 0.305900 -0.582407
O4    O     O_R   0.307340 0.885510 0.694100 -0.582442
O5    O     O_R   0.672910 0.282300 0.178070 -0.596855
O6    O     O_R   0.327090 0.717700 0.821930 -0.596548
O7    O     O_R   0.827090 0.782300 0.321930 -0.596515
O8    O     O_R   0.172910 0.217700 0.678070 -0.596499
C1    C     C_R   0.650096 0.453284 0.159992 0.922046
C2    C     C_R   0.349909 0.546719 0.840005 0.922084
C3    C     C_R   0.849908 0.953287 0.340007 0.922071
C4    C     C_R   0.150092 0.046713 0.659993 0.922011
O9    O     O_R   0.805620 0.284620 0.186180 -0.589367
O10   O     O_R   0.194380 0.715380 0.813820 -0.589283
O11   O     O_R   0.694380 0.784620 0.313820 -0.589299
O12   O     O_R   0.305620 0.215380 0.686180 -0.589285
O13   O     O_R   0.826310 0.116750 0.314070 -0.576062
O14   O     O_R   0.173690 0.883250 0.685930 -0.576086
O15   O     O_R   0.673690 0.616750 0.185930 -0.576064
O16   O     O_R   0.326310 0.383250 0.814070 -0.576058
C5    C     C_R   0.824982 0.453184 0.171555 0.956448
C6    C     C_R   0.175017 0.546815 0.828445 0.956218
C7    C     C_R   0.675015 0.953179 0.328443 0.956207
C8    C     C_R   0.324984 0.046820 0.671557 0.956243
O17   O     O_3   0.756630 0.448770 0.291950 -0.280558
O18   O     O_3   0.243370 0.551230 0.708050 -0.280574
O19   O     O_3   0.743370 0.948770 0.208050 -0.280691
O20   O     O_3   0.256630 0.051230 0.791950 -0.280570
V1    V     V_3+5 0.748770 0.172970 0.242220 1.163311
V2    V     V_3+5 0.251230 0.827030 0.757780 1.163528
V3    V     V_3+5 0.751230 0.672970 0.257780 1.163537
V4    V     V_3+5 0.248770 0.327030 0.742220 1.163550
H1    H     H_    0.550983 0.286051 0.464724 0.118933
H2    H     H_    0.449014 0.713947 0.535272 0.118934
H3    H     H_    0.948998 0.786034 0.035244 0.118937
H4    H     H_    0.051021 0.213940 0.964775 0.118933
C9    C     C_R   0.484088 0.174315 0.522834 -0.148690
C10   C     C_R   0.515909 0.825684 0.477163 -0.148675
C11   C     C_R   0.015906 0.674295 0.977152 -0.148659
C12   C     C_R   0.984115 0.325680 0.022869 -0.148690
H5    H     H_    0.472300 0.310229 0.540111 0.121143
H6    H     H_    0.527697 0.689769 0.459886 0.121148
H7    H     H_    0.027681 0.810202 0.959857 0.121148
H8    H     H_    0.972338 0.189773 0.040163 0.121152
C13   C     C_R   0.454774 0.013891 0.543278 0.178828
C14   C     C_R   0.545223 0.986107 0.456719 0.178829
C15   C     C_R   0.045234 0.513873 0.956730 0.178840
C16   C     C_R   0.954787 0.486102 0.043291 0.178825
C17   C     C_R   0.471021 0.839488 0.520108 -0.159066
C18   C     C_R   0.528976 0.160510 0.479888 -0.159053
C19   C     C_R   0.029002 0.339479 0.979922 -0.159049
C20   C     C_R   0.971018 0.660496 0.020098 -0.159222
C21   C     C_1   0.408613 0.027731 0.588202 -0.019031
C22   C     C_1   0.591384 0.972267 0.411795 -0.019016
C23   C     C_1   0.091394 0.527708 0.911805 -0.018993
C24   C     C_1   0.908624 0.472269 0.088213 -0.019317
C25   C     C_1   0.629680 0.962373 0.374020 -0.282955
C26   C     C_1   0.370319 0.037626 0.625978 -0.282989
C27   C     C_1   0.870324 0.462381 0.125984 -0.282834
C28   C     C_1   0.129686 0.537608 0.874026 -0.282978
C29   C     C_R   0.909785 0.958503 0.394474 -0.228115
C30   C     C_R   0.090214 0.041501 0.605526 -0.228096
C31   C     C_R   0.590220 0.458502 0.105526 -0.227838
C32   C     C_R   0.409781 0.541564 0.894478 -0.228178
C33   C     C_R   0.978342 0.156853 0.565450 0.351303
C34   C     C_R   0.021665 0.843193 0.434543 0.351260
C35   C     C_R   0.521521 0.657733 0.934686 0.351809
C36   C     C_R   0.478353 0.343165 0.065439 0.351455
C37   C     C_R   0.037544 0.155856 0.612143 -0.259375
C38   C     C_R   0.962460 0.844168 0.387854 -0.259358
C39   C     C_R   0.462361 0.656360 0.887946 -0.259149
C40   C     C_R   0.537548 0.344158 0.112138 -0.259474
C41   C     C_R   0.084445 0.926216 0.548710 -0.046138
C42   C     C_R   0.915553 0.073792 0.451289 -0.046158
C43   C     C_R   0.415580 0.426203 0.951276 -0.046067
C44   C     C_R   0.584457 0.573869 0.048734 -0.046403
C45   C     C_R   0.027113 0.941554 0.495736 -0.040394
C46   C     C_R   0.972889 0.058471 0.504261 -0.040411
C47   C     C_R   0.472897 0.441644 0.004267 -0.040027
C48   C     C_R   0.527080 0.558825 0.995790 -0.040274
H9    H     H_    0.959285 0.763455 0.342780 0.173374
H10   H     H_    0.040721 0.236585 0.657214 0.173350
H11   H     H_    0.540723 0.263402 0.157203 0.173294
H12   H     H_    0.459134 0.737415 0.842938 0.173230
C49   C     C_R   0.863203 0.215156 0.452479 0.131526
C50   C     C_R   0.878028 0.405679 0.449921 -0.087962
C51   C     C_R   0.829601 0.539106 0.453756 -0.001788
C52   C     C_R   0.765744 0.483808 0.458270 -0.056118
C53   C     C_R   0.750282 0.294699 0.459586 -0.065531
C54   C     C_R   0.798714 0.160450 0.456641 -0.048536
H13   H     H_    0.927392 0.450430 0.446532 0.118278
H14   H     H_    0.841634 0.685442 0.453768 0.100570
H15   H     H_    0.728320 0.587548 0.460975 0.100840
H16   H     H_    0.700887 0.252311 0.463468 0.107884
H17   H     H_    0.786349 0.014322 0.458562 0.069206
C55   C     C_R   0.136789 0.784831 0.547520 0.131552
C56   C     C_R   0.201286 0.839510 0.543376 -0.048420
C57   C     C_R   0.249710 0.705244 0.540427 -0.065510
C58   C     C_R   0.234233 0.516143 0.541721 -0.056069
C59   C     C_R   0.170369 0.460871 0.546216 -0.001883
C60   C     C_R   0.121948 0.594315 0.550054 -0.088125
H18   H     H_    0.213661 0.985632 0.541469 0.069173
H19   H     H_    0.299111 0.747611 0.536558 0.107885
H20   H     H_    0.271652 0.412390 0.539013 0.100856
H21   H     H_    0.158323 0.314543 0.546188 0.100617
H22   H     H_    0.072578 0.549584 0.553429 0.118325
C61   C     C_R   0.636959 0.714706 0.047508 0.130880
C62   C     C_R   0.622502 0.905338 0.050575 -0.085981
C63   C     C_R   0.671075 0.038299 0.046704 -0.000303
C64   C     C_R   0.734725 0.982374 0.041667 -0.056831
C65   C     C_R   0.749831 0.793116 0.039876 -0.065657
C66   C     C_R   0.701251 0.659348 0.042865 -0.050854
H23   H     H_    0.573301 0.950560 0.054373 0.118213
H24   H     H_    0.659310 0.184764 0.047065 0.099797
H25   H     H_    0.772262 0.085749 0.038925 0.100814
H26   H     H_    0.799061 0.750243 0.035583 0.108202
H27   H     H_    0.713338 0.513111 0.040592 0.070350
C67   C     C_R   0.363254 0.284741 0.952455 0.131485
C68   C     C_R   0.298746 0.339346 0.956587 -0.048321
C69   C     C_R   0.250336 0.205029 0.959535 -0.065433
C70   C     C_R   0.265840 0.015946 0.958261 -0.055922
C71   C     C_R   0.329716 0.960747 0.953783 -0.002090
C72   C     C_R   0.378121 0.094242 0.949937 -0.088165
H28   H     H_    0.286351 0.485454 0.958485 0.069103
H29   H     H_    0.200926 0.247344 0.963389 0.107840
H30   H     H_    0.228435 0.912151 0.960973 0.100831
H31   H     H_    0.341782 0.814433 0.953835 0.100676
H32   H     H_    0.427499 0.049568 0.946576 0.118971
N1    N     N_R   0.922922 0.244805 0.584964 0.227703
O21   O     O_R   0.874561 0.142142 0.596589 -0.374219
O22   O     O_R   0.928416 0.414908 0.607134 -0.398810
N2    N     N_R   0.077095 0.755329 0.415017 0.227727
O23   O     O_R   0.071604 0.585301 0.392775 -0.398700
O24   O     O_R   0.125464 0.858054 0.403448 -0.374187
N3    N     N_R   0.576758 0.747142 0.915347 0.227431
O25   O     O_R   0.625013 0.645494 0.902887 -0.373710
O26   O     O_R   0.571071 0.918088 0.894017 -0.399725
N4    N     N_R   0.422928 0.255217 0.084952 0.227681
O27   O     O_R   0.428437 0.085180 0.107188 -0.398744
O28   O     O_R   0.374544 0.357875 0.096521 -0.374250

loop_
_geom_bond_atom_site_label_1
_geom_bond_atom_site_label_2
_geom_bond_distance
_ccdc_geom_bond_type
C29   C38   1.390570 A    
O17   V3    1.752153 S    
C51   C52   1.396761 A    
O1    C5    1.326184 A    
C21   C26   1.216723 T    
O19   V1    1.752176 S    
O13   V1    1.989285 S    
C61   C66   1.406160 A    
O3    C7    1.326180 A    
C65   C66   1.398765 A    
C16   C24   1.457869 S    
O15   V3    1.989281 S    
C56   C57   1.398776 A    
N3    O25   1.301046 A    
C10   C17   1.406225 A    
C45   C46   1.437568 A    
O7    C3    1.341163 A    
C59   H21   1.080248 S    
O9    V1    1.972968 S    
C5    C27   1.453091 S    
C16   C20   1.405009 A    
C50   H13   1.083412 S    
C6    C28   1.453094 S    
C66   H27   1.083034 S    
O4    C8    1.326180 A    
C31   C44   1.418179 A    
C57   H19   1.081739 S    
O1    V3    1.960537 S    
C62   C63   1.398216 A    
O2    V4    1.960540 S    
C32   C39   1.390481 A    
C71   H31   1.080232 S    
O3    V1    1.960511 S    
C38   H9    1.084716 S    
C12   C16   1.404767 A    
C67   C68   1.406243 A    
C37   H10   1.084718 S    
C64   C65   1.397154 A    
C36   N4    1.432602 S    
C1    O15   1.340414 A    
C2    O16   1.340439 A    
N2    O23   1.301465 A    
O2    C6    1.326179 A    
C61   C62   1.405847 A    
C30   C41   1.418258 A    
C65   H26   1.081724 S    
O14   V2    1.989289 S    
O5    V1    1.994555 S    
C56   H18   1.082992 S    
C36   C40   1.393897 A    
C36   C47   1.428676 A    
O11   C7    1.328583 A    
C11   C20   1.406222 A    
C13   C21   1.457878 S    
O12   C8    1.328584 A    
C68   H28   1.082997 S    
C23   C28   1.216722 T    
C43   C67   1.486340 S    
O10   V2    1.972968 S    
C34   N2    1.432585 S    
C49   C54   1.406217 A    
O7    V3    1.994544 S    
O8    V4    1.994543 S    
C54   H17   1.083006 S    
C55   C60   1.405854 A    
N4    O27   1.301471 A    
C50   C51   1.398205 A    
C15   C19   1.405012 A    
H1    C18   1.083499 S    
C49   C50   1.405867 A    
C11   C15   1.404768 A    
C30   C37   1.390571 A    
C62   H23   1.083395 S    
C39   H12   1.084744 S    
C35   N3    1.432394 S    
O5    C1    1.341132 A    
C4    C30   1.492284 S    
C33   N1    1.432569 S    
C58   C59   1.396762 A    
C13   C17   1.405014 A    
O8    C4    1.341164 A    
C55   C56   1.406218 A    
C14   C22   1.457875 S    
O9    C5    1.328576 A    
C52   C53   1.397115 A    
C70   C71   1.396763 A    
H4    C19   1.083499 S    
N4    O28   1.300961 A    
C63   H24   1.080293 S    
C7    C25   1.453097 S    
N2    O24   1.300956 A    
O6    V2    1.994553 S    
C44   C61   1.486098 S    
C9    C13   1.404764 A    
C69   C70   1.397094 A    
C15   C23   1.457872 S    
N1    O21   1.300957 A    
O16   V4    1.989280 S    
C60   H22   1.083414 S    
N3    O26   1.301601 A    
C34   C45   1.428653 A    
C52   H15   1.082568 S    
C3    O13   1.340410 A    
H2    C17   1.083498 S    
C33   C46   1.428653 A    
C1    C31   1.492248 S    
C2    C32   1.492265 S    
C35   C48   1.428774 A    
C44   C48   1.442677 A    
C3    C29   1.492285 S    
C53   H16   1.081734 S    
C11   H7    1.083452 S    
C68   C69   1.398770 A    
O11   V3    1.973015 S    
O18   V4    1.752154 S    
C29   C42   1.418256 A    
O12   V4    1.973012 S    
C12   C19   1.406225 A    
C14   C18   1.405014 A    
C24   C27   1.216721 T    
O10   C6    1.328583 A    
O20   V2    1.752175 S    
C53   C54   1.398782 A    
C70   H30   1.082560 S    
C63   C64   1.396786 A    
C9    C18   1.406227 A    
C72   H32   1.083406 S    
C34   C38   1.393961 A    
C33   C37   1.393956 A    
C59   C60   1.398200 A    
C69   H29   1.081748 S    
C32   C43   1.418206 A    
C58   H20   1.082563 S    
C35   C39   1.393833 A    
C67   C72   1.405845 A    
C42   C49   1.486306 S    
C9    H5    1.083454 S    
C10   C14   1.404767 A    
C40   H11   1.084724 S    
O6    C2    1.341132 A    
C47   C48   1.437694 A    
C10   H6    1.083454 S    
C12   H8    1.083452 S    
C31   C40   1.390491 A    
C8    C26   1.453099 S    
C57   C58   1.397103 A    
C42   C46   1.442602 A    
C4    O14   1.340412 A    
H3    C20   1.083501 S    
C41   C45   1.442597 A    
C41   C55   1.486305 S    
C71   C72   1.398208 A    
C51   H14   1.080266 S    
C43   C47   1.442634 A    
C64   H25   1.082565 S    
O4    V2    1.960510 S    
N1    O22   1.301479 A    
C22   C25   1.216725 T    
