data_mof_unit_2728.cif
_audit_creation_date              2012-12-10T18:09:09-0500
_audit_creation_method            fapswitch 2.2
_symmetry_space_group_name_H-M    P1
_symmetry_Int_Tables_number       1
_space_group_crystal_system       triclinic
_cell_length_a                    12.720197
_cell_length_b                    13.148563
_cell_length_c                    13.524727
_cell_angle_alpha                 90.471404
_cell_angle_beta                  94.851177
_cell_angle_gamma                 96.218611
_cell_volume                      2240.33078704

loop_
_atom_site_label
_atom_site_type_symbol
_atom_type_description
_atom_site_fract_x
_atom_site_fract_y
_atom_site_fract_z
_atom_type_partial_charge
C1    C     C_R   0.558305 0.690608 0.512075 0.837695
C2    C     C_R   0.467805 0.037328 0.524218 0.068208
C3    C     C_R   0.380837 0.006499 0.580594 0.165313
C4    C     C_R   0.517997 0.497745 0.318022 0.883751
C5    C     C_R   0.372014 0.909897 0.622615 -0.265760
C6    C     C_R   0.444932 0.842170 0.604635 -0.214588
C7    C     C_R   0.473106 0.133017 0.480768 -0.269125
C8    C     C_R   0.319210 0.173252 0.560261 -0.206582
C9    C     C_R   0.594495 0.799117 0.514399 -0.126729
C10   C     C_R   0.900762 0.353031 0.650063 0.000851
C11   C     C_R   0.207351 0.632422 0.385653 0.198313
C12   C     C_1   0.533427 0.505887 0.216449 -0.186899
C13   C     C_R   0.108582 0.669957 0.378464 -0.288684
C14   C     C_R   0.032858 0.636236 0.440611 0.346973
C15   C     C_R   0.045828 0.548675 0.497369 -0.047923
C16   C     C_R   0.441129 0.309587 0.492096 0.840809
C17   C     C_R   0.148049 0.512882 0.506153 0.116377
C18   C     C_R   0.961447 0.494176 0.544148 -0.028158
C19   C     C_R   0.985835 0.420796 0.617504 0.059680
C20   C     C_R   0.095448 0.411545 0.646304 0.058337
C21   C     C_R   0.169534 0.442946 0.579376 -0.200816
C22   C     C_R   0.853649 0.505576 0.513930 -0.033925
C23   C     C_R   0.305501 0.074106 0.596069 -0.185786
C24   C     C_R   0.795397 0.362656 0.608453 0.183752
C25   C     C_R   0.484427 0.508660 0.681877 0.853016
C26   C     C_1   0.482434 0.535468 0.782598 -0.213559
C27   C     C_2   0.486075 0.578242 0.971824 0.130472
C28   C     C_2   0.555123 0.528345 0.027599 -0.214204
C29   C     C_1   0.545875 0.515773 0.130702 -0.002632
C30   C     C_1   0.483215 0.558692 0.867939 -0.028304
C31   C     C_3   0.713172 0.269742 0.615700 -0.333490
C32   C     C_3   0.644723 0.275000 0.704581 -0.283558
C33   C     C_3   0.617053 0.170262 0.749720 -0.930012
C34   C     C_R   0.405559 0.202866 0.505230 -0.030860
C35   C     C_3   0.135345 0.374729 0.748113 -0.447750
C36   C     C_3   0.250495 0.409608 0.785615 -0.344672
C37   C     C_3   0.272567 0.376027 0.892814 -0.884844
C38   C     C_3   0.920078 0.261083 0.716652 -0.422356
C39   C     C_3   0.962823 0.174299 0.659342 -0.343220
C40   C     C_3   0.987941 0.086724 0.727614 -0.871042
C41   C     C_3   0.288570 0.689211 0.323516 -0.390698
C42   C     C_3   0.306622 0.805160 0.346532 -0.358818
C43   C     C_3   0.401837 0.856283 0.297050 -0.870221
C44   C     C_3   0.399114 0.630987 0.015126 -0.378967
C45   C     C_R   0.687875 0.831696 0.470393 -0.147566
C46   C     C_3   0.346355 0.702798 0.941902 -0.347802
C47   C     C_3   0.261868 0.755853 0.989483 -0.884793
C48   C     C_R   0.714505 0.934544 0.453126 -0.126534
C49   C     C_R   0.644100 0.004410 0.472353 -0.220738
C50   C     C_R   0.547289 0.972192 0.513610 0.088996
C51   C     C_R   0.529135 0.870564 0.545277 0.094790
Cl1   Cl    Cl    0.943097 0.724964 0.464452 -0.706459
H1    H     H_    0.612868 0.486832 0.993921 0.149160
H2    H     H_    0.737719 0.776928 0.445365 0.214065
H3    H     H_    0.668365 0.082978 0.455577 0.122093
H4    H     H_    0.787423 0.959562 0.420253 0.163938
H5    H     H_    0.575847 0.115905 0.692620 0.283149
H6    H     H_    0.689455 0.138670 0.782099 0.258843
H7    H     H_    0.563631 0.177746 0.809584 0.254782
H8    H     H_    0.687238 0.326836 0.763796 0.209963
H9    H     H_    0.568767 0.304684 0.681725 0.249194
H10   H     H_    0.672124 0.248368 0.543329 0.195380
H11   H     H_    0.750338 0.197926 0.619897 0.170870
H12   H     H_    0.434966 0.767424 0.637699 0.171032
H13   H     H_    0.228608 0.419314 0.943477 0.258731
H14   H     H_    0.248139 0.292832 0.899643 0.258393
H15   H     H_    0.358506 0.389742 0.916212 0.261945
H16   H     H_    0.305132 0.373364 0.739869 0.213256
H17   H     H_    0.265134 0.494195 0.781917 0.244299
H18   H     H_    0.086815 0.406017 0.803331 0.218989
H19   H     H_    0.129173 0.290317 0.748235 0.222427
H20   H     H_    0.049404 0.114305 0.787895 0.250545
H21   H     H_    0.915109 0.053661 0.760732 0.268428
H22   H     H_    0.018408 0.025789 0.684296 0.261858
H23   H     H_    0.831183 0.556179 0.455816 0.191765
H24   H     H_    0.903818 0.143319 0.598503 0.218469
H25   H     H_    0.035198 0.202819 0.623296 0.221373
H26   H     H_    0.966896 0.282637 0.786836 0.187530
H27   H     H_    0.848289 0.229555 0.750896 0.209175
H28   H     H_    0.475490 0.823436 0.324253 0.265037
H29   H     H_    0.389182 0.845357 0.215333 0.252656
H30   H     H_    0.412098 0.939584 0.314623 0.261104
H31   H     H_    0.236214 0.843094 0.319286 0.221845
H32   H     H_    0.320201 0.818334 0.427818 0.261254
H33   H     H_    0.365771 0.662558 0.333773 0.273544
H34   H     H_    0.093408 0.733237 0.330588 0.183569
H35   H     H_    0.260941 0.676793 0.243667 0.173849
H36   H     H_    0.199880 0.698327 0.015013 0.262518
H37   H     H_    0.298265 0.804302 0.053575 0.258387
H38   H     H_    0.223777 0.805429 0.934242 0.255553
H39   H     H_    0.407427 0.761802 0.917039 0.227413
H40   H     H_    0.307717 0.658521 0.875819 0.228367
H41   H     H_    0.337858 0.571479 0.038752 0.200291
H42   H     H_    0.433686 0.676730 0.081931 0.205341
H43   H     H_    0.245513 0.415751 0.588124 0.206853
H44   H     H_    0.266277 0.227835 0.580100 0.139820
H45   H     H_    0.307571 0.885915 0.667694 0.160860
H46   H     H_    0.239392 0.052040 0.639777 0.142380
H47   H     H_    0.532757 0.157693 0.431341 0.135698
N1    N     N_R   0.773270 0.445590 0.549770 -0.131133
N2    N     N_R   0.227520 0.553880 0.450750 -0.131401
O1    O     O_R   0.631100 0.627590 0.523760 -0.587622
O2    O     O_R   0.455900 0.662370 0.491970 -0.620936
O3    O     O_R   0.600200 0.480080 0.377830 -0.601069
O4    O     O_R   0.425000 0.514870 0.346040 -0.632249
O5    O     O_R   0.544100 0.337630 0.508030 -0.630707
O6    O     O_R   0.368900 0.372410 0.476240 -0.624854
O7    O     O_R   0.575000 0.485130 0.653960 -0.603428
O8    O     O_R   0.399800 0.519920 0.622170 -0.636367
Zn1   Zn    Zn3+2 0.616980 0.476780 0.521230 0.947572
Zn2   Zn    Zn3+2 0.383020 0.523220 0.478770 0.916949

loop_
_geom_bond_atom_site_label_1
_geom_bond_atom_site_label_2
_ccdc_geom_bond_type
C15   C18   A    
N1    Zn1   S    
C33   H6    S    
C12   C29   T    
C41   C42   S    
C3    C23   A    
C35   C36   S    
C8    H44   S    
C48   H4    S    
C9    C45   A    
C7    H47   S    
C39   H25   S    
C36   C37   S    
C32   H9    S    
O8    Zn2   S    
C38   C39   S    
C46   H40   S    
C38   H27   S    
C4    O3    A    
C8    C23   A    
C40   H21   S    
O2    Zn2   S    
C18   C19   A    
C6    H12   S    
C17   N2    A    
C44   H41   S    
C2    C50   A    
C16   O6    A    
C16   C34   S    
C20   C35   S    
C27   C44   S    
C14   Cl1   S    
C2    C7    A    
C35   H18   S    
O7    Zn1   S    
C9    C51   A    
C13   H34   S    
C6    C51   A    
C4    C12   S    
C1    O2    A    
C16   O5    A    
O4    Zn2   S    
C35   H19   S    
C33   H7    S    
C24   N1    A    
C13   C14   A    
C27   C30   S    
C47   H37   S    
C31   H10   S    
C22   H23   S    
C44   C46   S    
C41   H35   S    
C22   N1    A    
C31   H11   S    
C42   H32   S    
C39   C40   S    
C46   H39   S    
C21   H43   S    
C10   C24   A    
C43   H28   S    
C49   H3    S    
C17   C21   A    
C37   H13   S    
C31   C32   S    
C10   C19   A    
C37   H14   S    
C50   C51   A    
C1    C9    S    
C11   N2    A    
C8    C34   A    
C39   H24   S    
C48   C49   A    
C5    H45   S    
C45   H2    S    
C26   C30   T    
C43   H29   S    
C47   H38   S    
O1    Zn1   S    
C42   C43   S    
C32   H8    S    
C36   H17   S    
O5    Zn1   S    
C45   C48   A    
C15   C17   A    
C46   C47   S    
C28   C29   S    
C33   H5    S    
C40   H20   S    
C18   C22   A    
O6    Zn2   S    
C42   H31   S    
C3    C5    A    
C28   H1    S    
C36   H16   S    
C25   O8    A    
N2    Zn2   S    
C41   H33   S    
C4    O4    A    
C38   H26   S    
C10   C38   S    
C32   C33   S    
C19   C20   A    
C2    C3    A    
C25   C26   S    
C24   C31   S    
C47   H36   S    
O3    Zn1   S    
C11   C13   A    
C5    C6    A    
C37   H15   S    
C7    C34   A    
C40   H22   S    
C11   C41   S    
C44   H42   S    
C23   H46   S    
C20   C21   A    
C49   C50   A    
C27   C28   D    
C43   H30   S    
C14   C15   A    
C1    O1    A    
C25   O7    A    
