data_mof_unit_1036.cif
_audit_creation_date              2012-12-11T14:43:29-0500
_audit_creation_method            fapswitch 2.2
_symmetry_space_group_name_H-M    P1
_symmetry_Int_Tables_number       1
_space_group_crystal_system       triclinic
_cell_length_a                    20.796397
_cell_length_b                    7.098904
_cell_length_c                    16.389787
_cell_angle_alpha                 91.476684
_cell_angle_beta                  92.428784
_cell_angle_gamma                 90.507926
_cell_volume                      2416.55429848

loop_
_atom_site_label
_atom_site_type_symbol
_atom_type_description
_atom_site_fract_x
_atom_site_fract_y
_atom_site_fract_z
_atom_type_partial_charge
O1    O     O_R   0.564840 0.505290 0.579830 -0.540343
O2    O     O_R   0.435160 0.005290 0.420170 -0.534521
O3    O     O_R   0.556720 0.179930 0.409350 -0.538053
O4    O     O_R   0.443280 0.679930 0.590650 -0.539537
C1    C     C_R   0.570109 0.343300 0.380693 0.703455
C2    C     C_R   0.430028 0.846498 0.619546 0.696726
O5    O     O_R   0.572280 0.175810 0.578530 -0.538945
O6    O     O_R   0.427720 0.675810 0.421470 -0.543700
O7    O     O_R   0.450830 0.001920 0.590540 -0.535313
O8    O     O_R   0.549170 0.501920 0.409460 -0.536060
C3    C     C_R   0.588692 0.347336 0.606604 0.709888
C4    C     C_R   0.410791 0.840876 0.393702 0.708441
O9    O     O_3   0.460130 0.338030 0.503750 -0.372323
O10   O     O_3   0.539870 0.838030 0.496250 -0.371904
V1    V     V_3+5 0.507400 0.064560 0.499310 1.404692
V2    V     V_3+5 0.492600 0.564560 0.500690 1.392096
C5    C     C_R   0.147300 0.926139 0.163062 -0.058483
C6    C     C_R   0.855560 0.394678 0.833864 -0.058718
C7    C     C_R   0.359383 0.836753 0.327067 -0.127332
C8    C     C_R   0.639348 0.371740 0.673346 -0.124395
C9    C     C_R   0.310221 0.696249 0.199234 0.074478
C10   C     C_R   0.684024 0.550138 0.794472 0.062575
C11   C     C_R   0.360248 0.702734 0.261252 0.171558
C12   C     C_R   0.632447 0.508288 0.737237 0.169017
C13   C     C_R   0.308274 0.963048 0.330180 -0.282777
C14   C     C_R   0.696680 0.270829 0.670362 -0.292760
C15   C     C_R   0.256130 0.950810 0.272723 0.131483
C16   C     C_R   0.748547 0.311817 0.726083 0.131922
C17   C     C_R   0.255227 0.814235 0.207596 0.065335
C18   C     C_R   0.743766 0.456135 0.787222 0.069457
C19   C     C_R   0.199277 0.802459 0.153968 -0.229777
C20   C     C_R   0.798869 0.499956 0.839000 -0.233166
C21   C     C_R   0.151111 0.063718 0.225918 -0.164835
C22   C     C_R   0.858129 0.249565 0.774318 -0.161415
C23   C     C_R   0.204388 0.074661 0.280487 -0.160959
C24   C     C_R   0.805781 0.210561 0.720405 -0.175212
H1    H     H_    0.194418 0.700831 0.104234 0.113653
H2    H     H_    0.798537 0.611858 0.884781 0.119020
H3    H     H_    0.112206 0.162360 0.233391 0.117781
H4    H     H_    0.901098 0.165494 0.769444 0.118638
H5    H     H_    0.205079 0.180898 0.329223 0.113767
H6    H     H_    0.809864 0.098923 0.674606 0.114058
H7    H     H_    0.307781 0.066745 0.379926 0.132265
H8    H     H_    0.701856 0.164738 0.622341 0.131298
C25   C     C_R   0.380754 0.955830 0.833639 -0.136208
C26   C     C_R   0.620455 0.299562 0.163567 -0.130180
H9    H     H_    0.470147 0.935347 0.773824 0.114546
H10   H     H_    0.531209 0.281756 0.223816 0.122751
H11   H     H_    0.405040 0.998060 0.891052 0.156121
H12   H     H_    0.596742 0.268932 0.104550 0.156671
C27   C     C_R   0.389761 0.863771 0.691372 -0.034619
C28   C     C_R   0.610525 0.346441 0.309049 -0.036392
C29   C     C_R   0.077566 0.847355 0.733470 -0.165451
C30   C     C_R   0.920950 0.453781 0.267896 -0.165888
C31   C     C_R   0.112623 0.812915 0.664436 -0.123806
C32   C     C_R   0.885621 0.461236 0.337959 -0.123246
C33   C     C_R   0.179594 0.825764 0.668646 -0.144257
C34   C     C_R   0.819126 0.433504 0.333170 -0.144068
C35   C     C_R   0.213644 0.875915 0.742798 0.074172
C36   C     C_R   0.785815 0.396362 0.257213 0.074508
C37   C     C_R   0.177005 0.916180 0.812935 0.040101
C38   C     C_R   0.822694 0.386748 0.185553 0.040350
C39   C     C_R   0.282601 0.886566 0.749647 0.020537
C40   C     C_R   0.717353 0.368722 0.250122 0.021771
C41   C     C_R   0.313118 0.942185 0.826174 0.138128
C42   C     C_R   0.687581 0.329031 0.171533 0.138673
C43   C     C_R   0.275744 0.986090 0.893761 0.170852
C44   C     C_R   0.725091 0.318162 0.102035 0.168237
C45   C     C_R   0.208911 0.970619 0.886844 -0.260748
C46   C     C_R   0.791436 0.348450 0.109409 -0.253857
C47   C     C_R   0.322495 0.846216 0.682913 -0.201672
C48   C     C_R   0.677219 0.377663 0.318385 -0.200754
C49   C     C_R   0.418380 0.918713 0.766870 -0.194022
C50   C     C_R   0.582585 0.307365 0.231587 -0.203964
C51   C     C_R   0.108797 0.899400 0.807927 -0.066185
C52   C     C_R   0.890460 0.416459 0.191526 -0.065380
H13   H     H_    0.302979 0.805830 0.623027 0.094051
H14   H     H_    0.696115 0.405948 0.379729 0.092951
H15   H     H_    0.025632 0.831846 0.728991 0.100810
H16   H     H_    0.972508 0.477953 0.273209 0.101054
H17   H     H_    0.203111 0.795308 0.612630 0.104692
H18   H     H_    0.795381 0.442093 0.390219 0.104901
H19   H     H_    0.087669 0.773370 0.607145 0.116064
H20   H     H_    0.909988 0.489914 0.396719 0.116107
H21   H     H_    0.182131 0.003846 0.940529 0.122520
H22   H     H_    0.818401 0.339688 0.054331 0.117173
O11   O     O_R   0.950790 0.256670 0.090520 -0.532786
O12   O     O_R   0.049210 0.756670 0.909480 -0.532773
O13   O     O_R   0.927720 0.590370 0.921470 -0.538752
O14   O     O_R   0.072280 0.090370 0.078530 -0.541322
C53   C     C_R   0.909882 0.418498 0.895375 0.683311
C54   C     C_R   0.091038 0.923980 0.103602 0.683854
O15   O     O_R   0.943270 0.586180 0.090640 -0.536788
O16   O     O_R   0.056730 0.086180 0.909360 -0.538952
O17   O     O_R   0.064850 0.759970 0.079840 -0.534491
O18   O     O_R   0.935150 0.259970 0.920160 -0.538320
C55   C     C_R   0.930630 0.419272 0.119321 0.682780
C56   C     C_R   0.069024 0.916082 0.880367 0.679554
O19   O     O_3   0.039850 0.428050 0.996240 -0.370243
O20   O     O_3   0.960150 0.928050 0.003760 -0.369065
V3    V     V_3+5 0.992610 0.701540 0.000700 1.417799
V4    V     V_3+5 0.007390 0.201540 0.999300 1.411950
C57   C     C_3   0.319370 0.566028 0.124816 -0.328074
C58   C     C_3   0.374184 0.638409 0.072948 -0.291167
C59   C     C_3   0.372357 0.546771 0.987582 -0.759640
H23   H     H_    0.380587 0.393027 0.991743 0.241108
H24   H     H_    0.325353 0.571999 0.955124 0.235123
H25   H     H_    0.411044 0.608446 0.951634 0.225216
H26   H     H_    0.371188 0.793320 0.067156 0.206654
H27   H     H_    0.421668 0.608295 0.102961 0.220802
H28   H     H_    0.330855 0.421849 0.145616 0.194449
H29   H     H_    0.275645 0.547687 0.085132 0.156193
C60   C     C_3   0.672667 0.696857 0.861622 -0.322827
C61   C     C_3   0.681385 0.898567 0.831024 -0.276920
C62   C     C_3   0.628918 0.029357 0.860873 -0.741081
H30   H     H_    0.582072 0.991232 0.829560 0.227771
H31   H     H_    0.624169 0.018220 0.927772 0.240076
H32   H     H_    0.640967 0.177229 0.846975 0.228389
H33   H     H_    0.729244 0.954582 0.853225 0.184040
H34   H     H_    0.680013 0.900702 0.763125 0.206139
H35   H     H_    0.623487 0.675374 0.884132 0.213502
H36   H     H_    0.703652 0.677431 0.917216 0.128433
N1    N     N_3   0.412558 0.572718 0.255245 -0.696268
H37   H     H_    0.409869 0.474246 0.301268 0.247485
H38   H     H_    0.456323 0.646450 0.261336 0.222806
N2    N     N_3   0.572434 0.604192 0.746471 -0.682868
H39   H     H_    0.534468 0.506387 0.742272 0.223662
H40   H     H_    0.566527 0.703591 0.700951 0.246258
N3    N     N_3   0.305276 0.050012 0.970197 -0.701284
H41   H     H_    0.288365 0.964272 0.015692 0.234832
H42   H     H_    0.288494 0.185700 0.982574 0.233201
N4    N     N_3   0.696040 0.273284 0.023037 -0.699416
H43   H     H_    0.718433 0.152776 0.000257 0.239620
H44   H     H_    0.706026 0.383481 0.984363 0.229915

loop_
_geom_bond_atom_site_label_1
_geom_bond_atom_site_label_2
_ccdc_geom_bond_type
C42   C44   A    
C39   C41   A    
N2    H39   S    
O18   V4    S    
C15   C17   A    
C24   H6    S    
O1    C3    A    
C47   H13   S    
C40   C48   A    
O2    C4    A    
C13   H7    S    
C2    O7    A    
O12   V3    S    
C14   H8    S    
N1    H37   S    
C43   N3    S    
C37   C51   A    
O5    C3    A    
C59   H24   S    
C21   H3    S    
C5    C21   A    
C22   H4    S    
C6    C53   S    
C36   C38   A    
C29   H15   S    
N3    H41   S    
C28   C50   A    
C34   H18   S    
C58   H26   S    
N1    H38   S    
C41   C43   A    
O16   C56   A    
C34   C36   A    
C62   H30   S    
C38   C46   A    
C25   C49   A    
C44   N4    S    
O14   V4    S    
C48   H14   S    
C53   O18   A    
C10   C60   S    
C60   H36   S    
C8    C12   A    
N4    H43   S    
C62   H31   S    
C1    C28   S    
C20   H2    S    
C2    C27   S    
O13   C53   A    
C61   H33   S    
O5    V1    S    
O6    V2    S    
C12   N2    S    
C38   C52   A    
C29   C51   A    
C5    C54   S    
C27   C47   A    
C7    C13   A    
C58   C59   S    
C32   H20   S    
C30   H16   S    
C29   C31   A    
C59   H25   S    
C30   C32   A    
C3    C8    S    
C35   C37   A    
C18   C20   A    
H10   C50   S    
H9    C49   S    
O4    C2    A    
C61   C62   S    
O15   V3    S    
C11   N1    S    
C15   C23   A    
C52   C55   S    
C9    C17   A    
C54   O17   A    
C19   H1    S    
C57   H29   S    
C43   C45   A    
C40   C42   A    
O4    V2    S    
C7    C11   A    
C28   C48   A    
O11   V4    S    
O14   C54   A    
C25   H11   S    
O6    C4    A    
C62   H32   S    
O20   V4    S    
O1    V2    S    
O2    V1    S    
C6    C22   A    
C16   C24   A    
C30   C52   A    
N4    H44   S    
O19   V3    S    
C39   C47   A    
C31   C33   A    
C25   C41   A    
C5    C19   A    
C10   C12   A    
C6    C20   A    
C31   H19   S    
C46   H22   S    
O15   C55   A    
C26   C50   A    
C45   H21   S    
C60   C61   S    
C37   C45   A    
N2    H40   S    
C10   C18   A    
O13   V3    S    
C35   C39   A    
C27   C49   A    
O3    C1    A    
C26   C42   A    
C57   H28   S    
C13   C15   A    
C59   H23   S    
C26   H12   S    
C14   C16   A    
C36   C40   A    
C9    C11   A    
O7    V1    S    
C1    O8    A    
C17   C19   A    
O8    V2    S    
C58   H27   S    
C8    C14   A    
C4    C7    S    
C16   C18   A    
O20   V3    S    
C21   C23   A    
C32   C34   A    
C22   C24   A    
C51   C56   S    
C23   H5    S    
C33   H17   S    
O12   C56   A    
C33   C35   A    
C9    C57   S    
O19   V4    S    
C60   H35   S    
O16   V4    S    
C44   C46   A    
O9    V2    S    
C57   C58   S    
O10   V1    S    
O3    V1    S    
N3    H42   S    
C61   H34   S    
O17   V3    S    
O11   C55   A    
