data_mof_unit_2995.cif
_audit_creation_date              2012-12-11T17:34:06-0500
_audit_creation_method            fapswitch 2.2
_symmetry_space_group_name_H-M    P1
_symmetry_Int_Tables_number       1
_space_group_crystal_system       triclinic
_cell_length_a                    8.4383
_cell_length_b                    16.5892
_cell_length_c                    18.9302
_cell_angle_alpha                 100.879229
_cell_angle_beta                  90.946924
_cell_angle_gamma                 94.093175
_cell_volume                      2594.45528722

loop_
_atom_site_label
_atom_site_type_symbol
_atom_type_description
_atom_site_fract_x
_atom_site_fract_y
_atom_site_fract_z
_atom_type_partial_charge
Ba1   Ba    Ba6+2 0.845660 0.536000 0.465120 1.916572
Ba2   Ba    Ba6+2 0.344160 0.464070 0.534880 1.915839
C1    C     C_3   0.472465 0.753405 0.211119 -0.450010
C2    C     C_R   0.921054 0.405516 0.087326 -0.082421
C3    C     C_R   0.779233 0.357991 0.057237 -0.082237
C4    C     C_3   0.073954 0.698104 0.269878 0.339838
C5    C     C_R   0.719462 0.366341 0.989464 -0.100437
C6    C     C_R   0.801234 0.415644 0.947760 0.020716
C7    C     C_R   0.946875 0.457902 0.973826 0.065099
C8    C     C_R   0.740071 0.420617 0.879293 -0.098443
C9    C     C_R   0.825729 0.463920 0.833115 -0.092364
C10   C     C_R   0.975012 0.506115 0.858119 0.061229
C11   C     C_R   0.033024 0.503813 0.929337 0.054934
C12   C     C_3   0.563905 0.733191 0.275129 0.333515
C13   C     C_R   0.767280 0.465542 0.762527 -0.064031
C14   C     C_R   0.861926 0.504908 0.717078 0.319487
C15   C     C_R   0.015064 0.540847 0.737470 -0.062272
C16   C     C_3   0.047533 0.718712 0.195790 -0.292517
C17   C     C_R   0.067293 0.549262 0.812017 -0.100194
C18   C     C_R   0.153321 0.495833 0.070153 0.001421
C19   C     C_R   0.212944 0.494299 0.141003 -0.040176
C20   C     C_R   0.117065 0.456303 0.189057 -0.065303
C21   C     C_R   0.975271 0.409226 0.159743 0.562352
C22   C     C_R   0.205478 0.598608 0.843616 0.017895
C23   C     C_3   0.453979 0.197454 0.325022 0.324217
C24   C     C_R   0.266197 0.591761 0.912176 0.024091
C25   C     C_R   0.180217 0.544580 0.955219 0.033731
C26   C     C_R   0.241470 0.539572 0.024858 0.030693
C27   C     C_R   0.412035 0.633448 0.939492 -0.081758
C28   C     C_3   0.193171 0.728511 0.629733 0.759918
C29   C     C_R   0.475220 0.624990 0.005090 -0.084907
C30   C     C_R   0.394285 0.576089 0.047795 0.008772
C31   C     C_R   0.370999 0.527974 0.162238 -0.066716
C32   C     C_R   0.465977 0.559945 0.110935 -0.067102
C33   C     C_R   0.431172 0.524060 0.232420 -0.058037
C34   C     C_3   0.545725 0.126010 0.288884 0.532554
C35   C     C_R   0.338378 0.481972 0.276530 -0.270550
C36   C     C_R   0.174875 0.460317 0.262221 -0.032747
C37   C     C_R   0.394800 0.727497 0.462891 -0.302757
C38   C     C_R   0.533655 0.756976 0.504342 -0.043158
C39   C     C_R   0.585552 0.841055 0.511812 -0.038375
C40   C     C_3   0.161089 0.819618 0.656852 -0.294834
C41   C     C_R   0.497023 0.894818 0.479033 0.274130
C42   C     C_R   0.350208 0.864451 0.444561 -0.152175
C43   C     C_R   0.296330 0.781744 0.438646 -0.083448
C44   C     C_R   0.623932 0.143226 0.484846 -0.191790
C45   C     C_3   0.113690 0.250849 0.739177 0.156496
C46   C     C_R   0.667987 0.227916 0.493495 0.057762
C47   C     C_R   0.720804 0.090450 0.514542 0.263131
C48   C     C_R   0.803636 0.260212 0.536087 -0.350632
C49   C     C_R   0.908579 0.208633 0.560019 -0.221097
C50   C     C_R   0.867459 0.123529 0.548321 0.616492
C51   C     C_3   0.024673 0.270718 0.364211 0.806025
C52   C     C_3   0.015760 0.179210 0.329301 -0.230149
C53   C     C_3   0.708296 0.680748 0.690335 0.253769
C54   C     C_3   0.730855 0.725621 0.770799 0.280275
C55   C     C_2   0.654516 0.810153 0.314194 0.545049
C56   C     C_3   0.185415 0.209256 0.798113 0.568747
C57   C     C_2   0.246014 0.854505 0.727680 0.530776
C58   C     C_2   0.210603 0.872963 0.604563 0.597956
C59   C     C_2   0.025038 0.123741 0.382717 0.411231
C60   C     C_2   0.901382 0.753420 0.789551 0.505982
C61   C     C_2   0.629303 0.797772 0.791410 0.661874
C62   C     C_2   0.131107 0.343367 0.761510 0.617285
C63   C     C_2   0.941530 0.221228 0.734504 0.279518
C64   C     C_2   0.689332 0.298145 0.093616 0.592775
C65   C     C_2   0.272094 0.669559 0.814904 0.461507
C66   C     C_2   0.639716 0.552581 0.112165 0.535564
C67   C     C_3   0.568864 0.257096 0.684955 0.682327
C68   C     C_2   0.425694 0.440703 0.325229 0.440110
C69   C     C_2   0.349440 0.639913 0.443321 0.695827
C70   C     C_2   0.834782 0.348468 0.560195 0.734683
C71   C     C_3   0.552321 0.171920 0.704583 -0.123530
C72   C     C_R   0.006346 0.453736 0.044148 -0.015662
F1    F     F_    0.887274 0.287072 0.399283 -0.739125
F2    F     F_    0.691486 0.668739 0.813777 -0.764215
F3    F     F_    0.622831 0.146306 0.229993 -0.669884
F4    F     F_    0.338756 0.239871 0.819107 -0.671184
F5    F     F_    0.476446 0.254213 0.623776 -0.692181
F6    F     F_    0.801308 0.510700 0.651637 -0.742740
F7    F     F_    0.892134 0.363949 0.200531 -0.705583
F8    F     F_    0.969882 0.072583 0.569490 -0.603989
F9    F     F_    0.101790 0.699382 0.568144 -0.675743
H1    H     H_    0.031005 0.822395 0.664914 0.148956
H2    H     H_    0.379242 0.176914 0.367038 -0.164579
H3    H     H_    0.372486 0.213314 0.284045 0.028311
H4    H     H_    0.634233 0.111073 0.327487 0.019766
H5    H     H_    0.462198 0.070919 0.270540 -0.033353
H6    H     H_    0.390248 0.700516 0.186381 0.116263
H7    H     H_    0.125527 0.773567 0.189812 0.104929
H8    H     H_    0.112943 0.219011 0.847200 0.002254
H9    H     H_    0.185720 0.141760 0.778326 0.093538
H10   H     H_    0.693735 0.271125 0.672297 0.120979
H11   H     H_    0.610008 0.127374 0.663690 0.068362
H12   H     H_    0.128576 0.287216 0.401707 -0.043060
H13   H     H_    0.425922 0.149257 0.704811 0.175665
H14   H     H_    0.994597 0.642927 0.273638 0.087771
H15   H     H_    0.607489 0.173318 0.758470 0.130716
H16   H     H_    0.609776 0.331670 0.967848 0.154489
H17   H     H_    0.625787 0.388866 0.862194 0.144332
H18   H     H_    0.481928 0.672284 0.910068 0.161896
H19   H     H_    0.586370 0.659810 0.022232 0.152420
H20   H     H_    0.199436 0.683491 0.275529 -0.118894
H21   H     H_    0.515846 0.118727 0.454527 0.088916
H22   H     H_    0.275640 0.906012 0.424243 0.122751
H23   H     H_    0.903927 0.163303 0.296298 0.197191
H24   H     H_    0.692747 0.864190 0.543539 0.147288
H25   H     H_    0.074746 0.665814 0.153517 0.087328
H26   H     H_    0.922264 0.732393 0.188381 0.181912
H27   H     H_    0.320662 0.722345 0.618674 -0.085201
H28   H     H_    0.655404 0.867299 0.294023 0.016042
H29   H     H_    0.328850 0.819053 0.750490 0.012674
H30   H     H_    0.335509 0.884521 0.595739 -0.087229
H31   H     H_    0.125736 0.130809 0.420013 0.049992
H32   H     H_    0.982482 0.706586 0.788428 -0.055798
H33   H     H_    0.550470 0.799707 0.836303 0.013265
H34   H     H_    0.114697 0.167287 0.291974 0.000874
H35   H     H_    0.079732 0.380751 0.727548 -0.200825
H36   H     H_    0.855825 0.261019 0.761652 -0.159903
H37   H     H_    0.750978 0.259151 0.123065 0.129408
H38   H     H_    0.225075 0.729047 0.830898 -0.007984
H39   H     H_    0.681335 0.496567 0.123546 0.016689
H40   H     H_    0.493208 0.389530 0.302495 0.036055
H41   H     H_    0.356075 0.609726 0.387941 -0.129400
H42   H     H_    0.827433 0.371925 0.616730 -0.182123
H43   H     H_    0.824481 0.662933 0.668159 0.014587
H44   H     H_    0.627689 0.624216 0.687606 0.146413
H45   H     H_    0.555724 0.768551 0.169812 0.150180
H46   H     H_    0.476986 0.712560 0.312785 -0.097447
H47   H     H_    0.400372 0.806599 0.229070 0.075503
N1    N     N_2   0.542508 0.980478 0.483854 -0.225577
N2    N     N_2   0.679059 0.004157 0.509431 -0.139859
O1    O     O_2   0.884010 0.444810 0.325060 -0.351818
O2    O     O_2   0.221734 0.215557 0.537357 -0.396907
O3    O     O_3   0.191848 0.225253 0.673517 -0.523557
O4    O     O_3   0.132090 0.451130 0.414310 -0.418312
O5    O     O_3   0.558660 0.599640 0.536520 -0.432904
O6    O     O_2   0.381010 0.300300 0.465220 -0.467872
O7    O     O_3   0.559689 0.267121 0.349626 -0.586177
O8    O     O_2   0.433555 0.467202 0.756665 -0.401679
O9    O     O_3   0.520257 0.316883 0.742179 -0.559956
O10   O     O_3   0.640770 0.594650 0.368950 -0.458029
O11   O     O_2   0.764521 0.529812 0.247919 -0.485495
O12   O     O_3   0.638955 0.730984 0.648929 -0.666847
O13   O     O_3   0.034917 0.314196 0.308310 -0.594524
O14   O     O_3   0.674042 0.674978 0.249969 -0.580476
O15   O     O_2   0.808690 0.699720 0.534830 -0.381092
O16   O     O_3   0.053760 0.638480 0.405010 -0.470718
O17   O     O_2   0.969956 0.788169 0.459377 -0.340898
O18   O     O_2   0.730155 0.809039 0.369196 -0.536411
O19   O     O_2   0.222698 0.923411 0.759993 -0.483539
O20   O     O_2   0.112419 0.907188 0.575168 -0.457881
O21   O     O_2   0.922814 0.067807 0.382360 -0.553721
O22   O     O_2   0.947769 0.825764 0.809455 -0.537251
O23   O     O_3   0.038076 0.765285 0.322863 -0.569560
O24   O     O_2   0.641019 0.856505 0.760873 -0.549157
O25   O     O_2   0.199931 0.377119 0.817719 -0.539381
O26   O     O_2   0.900577 0.149505 0.708847 -0.526100
O27   O     O_2   0.544284 0.290060 0.089172 -0.561998
O28   O     O_2   0.392203 0.664625 0.780533 -0.563136
O29   O     O_2   0.736118 0.607759 0.103046 -0.604851
O30   O     O_2   0.432828 0.467042 0.389541 -0.518895
O31   O     O_2   0.281176 0.604416 0.485906 -0.479530
O32   O     O_2   0.895874 0.391450 0.521115 -0.465105
O33   O     O_2   0.305690 0.555220 0.674980 -0.427021
O34   O     O_3   0.057610 0.548940 0.585700 -0.314612
O35   O     O_3   0.548930 0.405410 0.631060 -0.405510
O36   O     O_3   0.148969 0.686627 0.684782 -0.701087
O37   O     O_3   0.631040 0.400420 0.463490 -0.339311
O38   O     O_3   0.135930 0.361590 0.595000 -0.469378
P1    P     P_3+3 0.056550 0.421630 0.336220 1.181465
P2    P     P_3+3 0.635450 0.689180 0.556380 1.083467
P3    P     P_3+3 0.089727 0.744489 0.407155 1.109666
P4    P     P_3+3 0.133150 0.578440 0.663790 1.162660
P5    P     P_3+3 0.109418 0.254229 0.595606 1.108944
P6    P     P_3+3 0.623027 0.579911 0.274778 0.988302
P7    P     P_3+3 0.560027 0.295484 0.443633 1.139036
P8    P     P_3+3 0.569592 0.415550 0.724379 1.092990

loop_
_geom_bond_atom_site_label_1
_geom_bond_atom_site_label_2
_ccdc_geom_bond_type
C53   C54   S    
O13   P1    S    
C30   C32   A    
C5    C6    A    
C54   F2    S    
C51   H12   S    
C1    H47   S    
C16   H26   S    
C63   O26   D    
C36   P1    S    
C42   H22   S    
C15   P4    S    
O36   P4    S    
C44   C47   A    
C24   C25   A    
C69   O31   D    
C28   H27   S    
C33   P6    S    
O11   P6    D    
C23   O7    S    
C22   C24   A    
C61   O24   D    
C67   H10   S    
C34   F3    S    
C19   C31   A    
C67   O9    S    
C13   C14   A    
C20   C36   A    
C68   O30   D    
C62   H35   S    
Ba1   Ba2   S    
C58   O20   D    
C28   F9    S    
C48   C70   S    
C46   P7    S    
O5    P2    S    
C7    C11   A    
Ba1   O10   S    
C22   C65   S    
C31   C33   A    
C9    C13   A    
C68   H40   S    
C8    H17   S    
C14   C15   A    
O14   P6    S    
C62   O25   D    
O8    P8    D    
O4    P1    S    
C67   C71   S    
C65   O28   D    
Ba1   O4    S    
C21   F7    S    
C56   H8    S    
Ba2   O34   S    
C2    C72   A    
C4    O23   S    
C37   C43   A    
O23   P3    S    
C46   C48   A    
C64   H37   S    
C35   C68   S    
C39   C41   A    
C58   H30   S    
C51   F1    S    
C71   H11   S    
Ba1   O1    S    
C65   H38   S    
O37   P7    S    
C64   O27   D    
C57   H29   S    
O38   P5    S    
C34   H4    S    
C70   O32   D    
C71   H15   S    
C4    C16   S    
C47   N2    S    
C44   C46   A    
O34   P4    S    
O2    P5    D    
C52   H23   S    
C27   H18   S    
C49   C50   A    
Ba2   O6    S    
C29   H19   S    
C69   H41   S    
C26   C30   A    
C40   H1    S    
C40   C58   S    
C45   C62   S    
C3    C5    A    
C2    C21   A    
C1    H45   S    
C6    C7    A    
O10   P6    S    
C18   C26   A    
O33   P4    D    
C51   C52   S    
C44   H21   S    
Ba1   P1    S    
Ba2   O4    S    
C60   O22   D    
C14   F6    S    
C16   H7    S    
C50   F8    S    
C41   C42   A    
C4    H14   S    
C35   C36   A    
O7    P7    S    
C43   P3    S    
C51   O13   S    
C29   C30   A    
C53   H43   S    
C66   O29   D    
C47   C50   A    
C55   O18   D    
C23   H2    S    
C48   C49   A    
C63   H36   S    
C54   C61   S    
C18   C72   A    
C4    H20   S    
C18   C19   A    
C49   P5    S    
Ba2   O33   S    
C1    C12   S    
C5    H16   S    
Ba2   O38   S    
C61   H33   S    
C6    C8    A    
C38   C39   A    
C53   H44   S    
C54   C60   S    
C67   F5    S    
C7    C72   A    
C66   H39   S    
N1    N2    D    
C38   P2    S    
Ba1   O5    S    
O15   P2    D    
C33   C35   A    
C12   C55   S    
O12   P2    S    
C53   O12   S    
C39   H24   S    
C45   O3    S    
C23   C34   S    
Ba2   O5    S    
C28   C40   S    
C42   C43   A    
C3    C64   S    
C59   O21   D    
C40   C57   S    
C9    C10   A    
C52   C59   S    
C57   O19   D    
C12   O14   S    
Ba1   P2    S    
O16   P3    S    
C70   H42   S    
C1    H6    S    
C41   N1    S    
C17   C22   A    
O1    P1    D    
C28   O36   S    
O9    P8    S    
C34   H5    S    
C32   C66   S    
Ba2   P4    S    
C45   C56   S    
C55   H28   S    
Ba1   O34   S    
C10   C17   A    
Ba1   O37   S    
C23   H3    S    
C15   C17   A    
C31   C32   A    
O17   P3    D    
C16   H25   S    
Ba1   O15   S    
C8    C9    A    
C56   F4    S    
Ba2   O37   S    
C37   C38   A    
C2    C3    A    
O35   P8    S    
C10   C11   A    
C24   C27   A    
C27   C29   A    
C52   H34   S    
C13   P8    S    
C59   H31   S    
C60   H32   S    
C37   C69   S    
C20   C21   A    
C11   C25   A    
Ba1   O16   S    
C71   H13   S    
C19   C20   A    
O6    P7    D    
C56   H9    S    
Ba2   O35   S    
C45   C63   S    
O3    P5    S    
C25   C26   A    
C12   H46   S    
