data_mof_unit_501.cif
_audit_creation_date              2013-03-05T15:47:37-0500
_audit_creation_method            fapswitch 2.2
_symmetry_space_group_name_H-M    P1
_symmetry_Int_Tables_number       1
_space_group_crystal_system       triclinic
_cell_length_a                    10.752206
_cell_length_b                    13.08269
_cell_length_c                    11.780868
_cell_angle_alpha                 100.615649
_cell_angle_beta                  91.336811
_cell_angle_gamma                 92.216712
_cell_volume                      1626.8242813

loop_
_atom_site_label
_atom_site_type_symbol
_atom_site_description
_atom_site_fract_x
_atom_site_fract_y
_atom_site_fract_z
_atom_type_partial_charge
O1    O     O_R   0.506570 0.354460 0.582000 -0.521610
O2    O     O_R   0.490940 0.341410 0.386200 -0.566454
C1    C     C_R   0.500366 0.299196 0.477711 0.876400
O3    O     O_R   0.327470 0.506530 0.597920 -0.517622
O4    O     O_R   0.311840 0.493480 0.402120 -0.573951
C2    C     C_R   0.263099 0.506987 0.503932 0.809833
Cu1   Cu    Cu3+1 0.509250 0.507730 0.615930 1.104680
Cu2   Cu    Cu3+1 0.490750 0.492270 0.384070 1.064333
O5    O     O_R   0.509060 0.658590 0.613800 -0.537937
O6    O     O_R   0.493430 0.645540 0.418000 -0.532938
O7    O     O_R   0.688160 0.506520 0.597880 -0.565460
O8    O     O_R   0.672530 0.493470 0.402080 -0.562191
C3    C     C_R   0.501213 0.700701 0.522067 0.852542
C4    C     C_R   0.737039 0.498391 0.497154 0.785901
H1    H     H_    0.109999 0.343483 0.450198 0.179685
C5    C     C_R   0.124849 0.701096 0.598570 0.283511
C6    C     C_R   0.062730 0.793578 0.598094 -0.036919
H2    H     H_    0.106702 0.868312 0.636051 0.211867
C7    C     C_R   0.940450 0.790673 0.556837 -0.069944
H3    H     H_    0.893308 0.862442 0.557795 0.199565
C8    C     C_R   0.875266 0.695598 0.524418 -0.112974
H4    H     H_    0.777488 0.696202 0.500826 0.142479
C9    C     C_R   0.936344 0.601591 0.520193 0.052582
C10   C     C_R   0.065930 0.604141 0.544650 -0.014829
C11   C     C_R   0.128933 0.509769 0.512364 -0.053506
C12   C     C_R   0.062045 0.415371 0.474182 -0.120805
H5    H     H_    0.882339 0.337978 0.445090 0.178140
C13   C     C_R   0.933332 0.412307 0.468699 -0.112393
C14   C     C_R   0.870771 0.504707 0.491963 -0.045477
C15   C     C_R   0.510321 0.814550 0.534586 -0.274621
C16   C     C_R   0.502901 0.184922 0.463029 -0.312331
C17   C     C_R   0.434956 0.014089 0.356782 0.300004
C18   C     C_R   0.444408 0.121661 0.365476 0.230590
C19   C     C_R   0.563284 0.138951 0.547393 0.310027
C20   C     C_R   0.552908 0.029599 0.540796 -0.177858
C21   C     C_R   0.478647 0.968057 0.449232 -0.153839
C22   C     C_R   0.449999 0.862369 0.452128 0.333199
C23   C     C_R   0.584819 0.874677 0.624256 0.192313
C24   C     C_R   0.609679 0.980424 0.625561 0.286338
N1    N     N_R   0.523180 0.519350 0.790130 -0.244256
N2    N     N_R   0.476820 0.480650 0.209890 -0.242100
C25   C     C_R   0.398014 0.387196 0.026944 0.245561
C26   C     C_R   0.401457 0.405030 0.147607 0.055082
C27   C     C_R   0.549094 0.545541 0.155175 0.484731
C28   C     C_R   0.537050 0.540896 0.032862 -0.179335
C29   C     C_R   0.460720 0.459134 0.966732 -0.150814
C30   C     C_R   0.449621 0.454838 0.844441 0.509943
C31   C     C_R   0.599923 0.593821 0.852517 0.053973
C32   C     C_R   0.601825 0.612050 0.973312 0.265384
H6    H     H_    0.653099 0.644936 0.807776 0.208418
H7    H     H_    0.349512 0.353446 0.192605 0.211784
N3    N     N_R   0.697905 0.034844 0.710928 0.188907
O9    O     O_R   0.673395 0.046652 0.820125 -0.174930
O10   O     O_R   0.810377 0.055796 0.680896 -0.284751
N4    N     N_R   0.392022 0.166297 0.274156 0.148823
O11   O     O_R   0.274182 0.185357 0.273230 -0.326883
O12   O     O_R   0.456946 0.171588 0.183463 -0.269686
N5    N     N_R   0.631311 0.204702 0.641217 0.172262
O13   O     O_R   0.732851 0.255016 0.621262 -0.323943
O14   O     O_R   0.581390 0.227358 0.741853 -0.262434
Br1   Br    Br    0.316231 0.372011 0.756109 -0.307965
Br2   Br    Br    0.324995 0.251673 0.961043 -0.206028
N6    N     N_R   0.657289 0.709635 0.031100 0.171951
O15   O     O_R   0.766903 0.739986 0.002283 -0.241298
O16   O     O_R   0.587759 0.777440 0.091266 -0.225089
Br3   Br    Br    0.682141 0.630457 0.242544 -0.362512
N7    N     N_R   0.231864 0.706177 0.674688 0.116194
O17   O     O_R   0.303817 0.790153 0.693879 -0.314762
O18   O     O_R   0.231229 0.647233 0.752421 -0.274204
N8    N     N_R   0.340394 0.811135 0.391274 0.139277
O19   O     O_R   0.349019 0.736831 0.302029 -0.270394
O20   O     O_R   0.232424 0.850194 0.414348 -0.334609
N9    N     N_R   0.629208 0.830727 0.719700 0.147239
O21   O     O_R   0.747995 0.822787 0.736926 -0.329284
O22   O     O_R   0.554574 0.823797 0.803552 -0.214150
Br4   Br    Br    0.374551 0.935198 0.208810 -0.110430

loop_
_geom_bond_atom_site_label_1
_geom_bond_atom_site_label_2
_geom_bond_distance
_ccdc_geom_bond_type
C18   N4    1.429809 S    
N1    C30   1.384987 A    
N4    O11   1.300956 A    
N6    O16   1.300992 A    
C32   N6    1.432116 S    
N9    O22   1.300921 A    
N9    O21   1.299696 A    
C27   Br3   1.930574 S    
C20   C21   1.428106 A    
Cu1   Cu2   2.703630 S    
C28   C29   1.421247 A    
C27   C28   1.433612 A    
Cu1   O7    1.940671 S    
C17   C21   1.417478 A    
C13   C14   1.392233 A    
C7    C8    1.388971 A    
C23   C24   1.396057 A    
O7    C4    1.297131 A    
C2    C11   1.449705 S    
N5    O14   1.301572 A    
C15   C23   1.407826 A    
N1    C31   1.347586 A    
C19   C20   1.418257 A    
C25   C29   1.436215 A    
O5    C3    1.302782 A    
C7    H3    1.082514 S    
C5    C6    1.405297 A    
Cu1   N1    2.031288 S    
C16   C18   1.406005 A    
N8    O19   1.301520 A    
C25   Br2   1.928582 S    
C31   H6    1.079941 S    
C24   N3    1.434444 S    
C5    C10   1.426871 A    
C22   N8    1.440319 S    
N2    C26   1.347789 A    
O3    Cu1   1.960237 S    
N3    O10   1.301078 A    
N7    O17   1.300471 A    
C3    C15   1.468649 S    
C10   C11   1.425351 A    
O3    C2    1.293098 A    
H1    C12   1.084723 S    
N5    O13   1.301500 A    
C15   C22   1.407699 A    
N7    O18   1.301313 A    
C20   C24   1.422092 A    
C30   Br1   1.925829 S    
C28   C32   1.434242 A    
Cu2   O8    1.960236 S    
C6    H2    1.082923 S    
C16   C19   1.411157 A    
C5    N7    1.434066 S    
Cu2   N2    2.031054 S    
C1    C16   1.474398 S    
C31   C32   1.398448 A    
O8    C4    1.293640 A    
N4    O12   1.300753 A    
N2    C27   1.383490 A    
C25   C26   1.396847 A    
C4    C14   1.440470 S    
C9    C14   1.406733 A    
N3    O9    1.301531 A    
Cu1   O5    1.978509 S    
C29   C30   1.433388 A    
C21   C22   1.411663 A    
O1    Cu1   1.970040 S    
O2    Cu2   1.978509 S    
O6    C3    1.302084 A    
C17   Br4   1.938649 S    
O4    Cu2   1.940671 S    
C12   C13   1.382631 A    
C17   C18   1.391669 A    
C8    C9    1.409887 A    
O2    C1    1.302350 A    
C11   C12   1.398662 A    
C26   H7    1.079289 S    
O4    C2    1.304962 A    
C6    C7    1.387744 A    
C9    C10   1.414081 A    
N6    O15   1.301589 A    
Cu2   O6    1.970040 S    
H5    C13   1.084244 S    
C19   N5    1.435275 S    
N8    O20   1.300832 A    
O1    C1    1.304544 A    
C8    H4    1.081862 S    
C23   N9    1.434262 S    
