data_mof_unit_4207.cif
_audit_creation_date              2012-12-11T14:28:31-0500
_audit_creation_method            fapswitch 2.2
_symmetry_space_group_name_H-M    P1
_symmetry_Int_Tables_number       1
_space_group_crystal_system       triclinic
_cell_length_a                    11.140182
_cell_length_b                    19.62734
_cell_length_c                    18.397002
_cell_angle_alpha                 89.621078
_cell_angle_beta                  90.412812
_cell_angle_gamma                 89.686699
_cell_volume                      4022.29028716

loop_
_atom_site_label
_atom_site_type_symbol
_atom_type_description
_atom_site_fract_x
_atom_site_fract_y
_atom_site_fract_z
_atom_type_partial_charge
C1    C     C_R   0.319961 0.970494 0.648045 0.581429
C2    C     C_R   0.321851 0.968691 0.853577 0.578383
C3    C     C_R   0.322943 0.031831 0.354537 0.577026
C4    C     C_R   0.320372 0.030517 0.147465 0.578114
C5    C     C_R   0.819961 0.470494 0.648045 0.581430
C6    C     C_R   0.821851 0.468691 0.853577 0.578383
C7    C     C_R   0.822943 0.531830 0.354537 0.577026
C8    C     C_R   0.820372 0.530517 0.147465 0.578115
C9    C     C_3   0.070781 0.677686 0.486375 -0.086436
C10   C     C_3   0.139991 0.699628 0.023491 -0.062044
C11   C     C_3   0.119284 0.314123 0.514866 -0.109367
C12   C     C_3   0.138453 0.299579 0.977127 -0.112527
C13   C     C_3   0.570780 0.177686 0.486375 -0.086436
C14   C     C_3   0.639992 0.199628 0.023491 -0.062044
C15   C     C_3   0.619284 0.814122 0.514866 -0.109367
C16   C     C_3   0.638453 0.799579 0.977127 -0.112527
C17   C     C_3   0.048933 0.738020 0.434397 -0.016630
C18   C     C_3   0.077857 0.751840 0.072128 -0.018337
C19   C     C_3   0.025060 0.275508 0.559702 -0.028523
C20   C     C_3   0.081140 0.246873 0.927422 -0.007409
C21   C     C_3   0.548933 0.238020 0.434397 -0.016630
C22   C     C_3   0.577857 0.251840 0.072128 -0.018337
C23   C     C_3   0.525060 0.775508 0.559702 -0.028523
C24   C     C_3   0.581140 0.746873 0.927422 -0.007409
C25   C     C_R   0.339272 0.000596 0.427925 0.051978
C26   C     C_R   0.329314 0.994598 0.077814 0.057866
C27   C     C_R   0.329518 0.010241 0.580052 0.075622
C28   C     C_R   0.335607 0.001480 0.925341 0.070777
C29   C     C_R   0.839272 0.500596 0.427925 0.051978
C30   C     C_R   0.829314 0.494598 0.077814 0.057866
C31   C     C_R   0.829518 0.510241 0.580052 0.075622
C32   C     C_R   0.835607 0.501480 0.925341 0.070777
C33   C     C_R   0.571114 0.997440 0.440595 0.257625
C34   C     C_R   0.548017 0.970221 0.082509 0.274907
C35   C     C_R   0.547310 0.025967 0.588098 0.241267
C36   C     C_R   0.562456 0.996903 0.933133 0.265476
C37   C     C_R   0.071114 0.497440 0.440595 0.257625
C38   C     C_R   0.048017 0.470221 0.082509 0.274907
C39   C     C_R   0.047310 0.525966 0.588098 0.241267
C40   C     C_R   0.062456 0.496903 0.933133 0.265476
C41   C     C_R   0.668497 0.992435 0.488559 -0.089899
C42   C     C_R   0.652927 0.958380 0.045237 -0.068945
C43   C     C_R   0.657925 0.009126 0.560716 -0.103636
C44   C     C_R   0.662365 0.975518 0.972646 -0.083490
C45   C     C_R   0.168497 0.492435 0.488559 -0.089900
C46   C     C_R   0.152927 0.458380 0.045237 -0.068945
C47   C     C_R   0.157925 0.509125 0.560716 -0.103636
C48   C     C_R   0.162365 0.475518 0.972646 -0.083490
C49   C     C_R   0.442186 0.014440 0.546001 -0.022966
C50   C     C_R   0.446379 0.995861 0.965768 0.013365
C51   C     C_R   0.450841 0.005512 0.468982 -0.030907
C52   C     C_R   0.441691 0.989232 0.043127 0.009285
C53   C     C_R   0.942186 0.514439 0.546001 -0.022966
C54   C     C_R   0.946379 0.495861 0.965768 0.013365
C55   C     C_R   0.950841 0.505512 0.468982 -0.030907
C56   C     C_R   0.941691 0.489232 0.043127 0.009285
C57   C     C_R   0.225515 0.014454 0.537625 -0.045869
C58   C     C_R   0.227380 0.010377 0.962942 -0.081877
C59   C     C_R   0.230745 0.992554 0.466061 -0.084243
C60   C     C_R   0.223357 0.992203 0.036037 -0.085729
C61   C     C_R   0.725515 0.514454 0.537625 -0.045868
C62   C     C_R   0.727380 0.510377 0.962942 -0.081878
C63   C     C_R   0.730745 0.492554 0.466061 -0.084242
C64   C     C_R   0.723357 0.492203 0.036037 -0.085729
C65   C     C_R   0.115105 0.037259 0.565537 -0.063886
C66   C     C_R   0.119784 0.031317 0.927814 -0.094755
C67   C     C_R   0.122234 0.975649 0.430910 -0.054688
C68   C     C_R   0.111298 0.977192 0.066907 -0.083472
C69   C     C_R   0.615106 0.537259 0.565537 -0.063886
C70   C     C_R   0.619784 0.531317 0.927814 -0.094755
C71   C     C_R   0.622234 0.475649 0.430910 -0.054687
C72   C     C_R   0.611298 0.477192 0.066907 -0.083473
C73   C     C_R   0.012750 0.038180 0.521121 0.438589
C74   C     C_R   0.010355 0.024262 0.961915 0.486892
C75   C     C_R   0.016465 0.006348 0.453282 0.493616
C76   C     C_R   0.006352 0.993382 0.030302 0.498627
C77   C     C_R   0.512750 0.538181 0.521121 0.438588
C78   C     C_R   0.510355 0.524262 0.961915 0.486892
C79   C     C_R   0.516465 0.506349 0.453282 0.493616
C80   C     C_R   0.506352 0.493382 0.030302 0.498627
C81   C     C_R   0.129263 0.757142 0.646354 0.612725
C82   C     C_R   0.133221 0.759078 0.855655 0.618248
C83   C     C_R   0.129520 0.242481 0.353688 0.607113
C84   C     C_R   0.132269 0.241143 0.144555 0.623712
C85   C     C_R   0.629263 0.257141 0.646354 0.612725
C86   C     C_R   0.633221 0.259078 0.855655 0.618248
C87   C     C_R   0.629520 0.742481 0.353688 0.607113
C88   C     C_R   0.632269 0.741143 0.144555 0.623712
C89   C     C_R   0.499296 0.787079 0.637031 0.542374
C90   C     C_R   0.545818 0.767740 0.853363 0.567904
C91   C     C_R   0.533758 0.227003 0.357769 0.564603
C92   C     C_R   0.544643 0.231865 0.146258 0.563413
C93   C     C_R   0.999297 0.287079 0.637031 0.542374
C94   C     C_R   0.045818 0.267740 0.853363 0.567904
C95   C     C_R   0.033758 0.727003 0.357769 0.564603
C96   C     C_R   0.044643 0.731865 0.146258 0.563412
C97   C     C_3   0.147432 0.780595 0.467508 -0.147857
C98   C     C_3   0.136185 0.812429 0.033620 -0.126297
C99   C     C_3   0.064958 0.206067 0.530839 -0.075181
C100  C     C_3   0.139915 0.186720 0.967710 -0.145114
C101  C     C_3   0.647432 0.280595 0.467508 -0.147857
C102  C     C_3   0.636185 0.312429 0.033620 -0.126297
C103  C     C_3   0.564958 0.706067 0.530839 -0.075181
C104  C     C_3   0.639915 0.686720 0.967710 -0.145114
C105  C     C_3   0.172392 0.719660 0.519623 -0.142595
C106  C     C_3   0.200988 0.760971 0.984813 -0.136300
C107  C     C_3   0.160636 0.243754 0.487001 -0.168799
C108  C     C_3   0.200655 0.238873 0.017190 -0.162925
C109  C     C_3   0.672392 0.219659 0.519623 -0.142594
C110  C     C_3   0.700988 0.260971 0.984813 -0.136299
C111  C     C_3   0.660636 0.743753 0.487001 -0.168800
C112  C     C_3   0.700655 0.738873 0.017190 -0.162925
C113  C     C_3   0.081436 0.749393 0.573563 0.092454
C114  C     C_3   0.095919 0.760276 0.931115 0.083057
C115  C     C_3   0.071626 0.251525 0.424053 0.078223
C116  C     C_3   0.094435 0.239410 0.068752 0.090190
C117  C     C_3   0.581436 0.249393 0.573563 0.092454
C118  C     C_3   0.595919 0.260276 0.931115 0.083057
C119  C     C_3   0.571626 0.751525 0.424053 0.078223
C120  C     C_3   0.594435 0.739410 0.068752 0.090190
C121  C     C_3   0.055457 0.808716 0.521895 0.189831
C122  C     C_3   0.035011 0.814502 0.976432 0.182904
C123  C     C_3   0.975724 0.213870 0.467085 0.231941
C124  C     C_3   0.036603 0.184234 0.023405 0.201418
C125  C     C_3   0.555458 0.308716 0.521895 0.189830
C126  C     C_3   0.535011 0.314502 0.976432 0.182904
C127  C     C_3   0.475724 0.713871 0.467085 0.231941
C128  C     C_3   0.536603 0.684234 0.023405 0.201418
C129  C     C_3   0.955113 0.768051 0.486224 -0.095164
C130  C     C_3   0.971582 0.759060 0.018878 -0.102602
C131  C     C_3   0.932676 0.282756 0.498045 -0.127811
C132  C     C_3   0.974000 0.239031 0.978620 -0.075700
C133  C     C_3   0.455113 0.268051 0.486224 -0.095164
C134  C     C_3   0.471582 0.259060 0.018878 -0.102602
C135  C     C_3   0.432676 0.782757 0.498045 -0.127812
C136  C     C_3   0.474000 0.739031 0.978620 -0.075700
C137  C     C_3   0.980281 0.708751 0.539961 0.207002
C138  C     C_3   0.032234 0.704948 0.970963 0.218139
C139  C     C_3   0.026301 0.319446 0.451618 0.203455
C140  C     C_3   0.028667 0.293960 0.027721 0.196249
C141  C     C_3   0.480281 0.208752 0.539961 0.207002
C142  C     C_3   0.532234 0.204948 0.970963 0.218139
C143  C     C_3   0.526301 0.819446 0.451618 0.203455
C144  C     C_3   0.528668 0.793960 0.027721 0.196249
Cr1   Cr    Cr6+3 0.488160 0.884660 0.750000 1.135773
Cr2   Cr    Cr6+3 0.488160 0.115340 0.250000 1.188572
Cr3   Cr    Cr6+3 0.988160 0.384660 0.750000 1.135773
Cr4   Cr    Cr6+3 0.988160 0.615340 0.250000 1.188572
Cr5   Cr    Cr6+3 0.173480 0.883120 0.750000 1.142669
Cr6   Cr    Cr6+3 0.173480 0.116880 0.250000 1.154519
Cr7   Cr    Cr6+3 0.673480 0.383120 0.750000 1.142669
Cr8   Cr    Cr6+3 0.673480 0.616880 0.250000 1.154519
Cr9   Cr    Cr6+3 0.333410 0.727260 0.750000 1.139968
Cr10  Cr    Cr6+3 0.333410 0.272740 0.250000 1.123035
Cr11  Cr    Cr6+3 0.833410 0.227260 0.750000 1.139967
Cr12  Cr    Cr6+3 0.833410 0.772740 0.250000 1.123035
H1    H     H_    0.258793 0.696473 0.536896 0.217333
H2    H     H_    0.277263 0.788592 0.961761 0.135553
H3    H     H_    0.246441 0.217750 0.477072 0.147206
H4    H     H_    0.276953 0.212169 0.043046 0.126695
H5    H     H_    0.758792 0.196472 0.536896 0.217333
H6    H     H_    0.777263 0.288592 0.961761 0.135553
H7    H     H_    0.746440 0.717750 0.477072 0.147206
H8    H     H_    0.776953 0.712169 0.043046 0.126695
H9    H     H_    0.207316 0.810895 0.431980 0.174723
H10   H     H_    0.180484 0.854212 0.062525 0.184620
H11   H     H_    0.082084 0.164025 0.569141 0.182830
H12   H     H_    0.196089 0.148281 0.941229 0.180107
H13   H     H_    0.707317 0.310895 0.431980 0.174724
H14   H     H_    0.680484 0.354212 0.062525 0.184620
H15   H     H_    0.582082 0.664025 0.569141 0.182830
H16   H     H_    0.696089 0.648281 0.941229 0.180107
H17   H     H_    0.874694 0.796449 0.467231 0.163906
H18   H     H_    0.894904 0.786283 0.042364 0.164602
H19   H     H_    0.848922 0.307765 0.514351 0.105640
H20   H     H_    0.896093 0.214508 0.953043 0.180629
H21   H     H_    0.374694 0.296449 0.467231 0.163906
H22   H     H_    0.394904 0.286283 0.042364 0.164602
H23   H     H_    0.348922 0.807765 0.514351 0.105640
H24   H     H_    0.396093 0.714508 0.953043 0.180629
H25   H     H_    0.079939 0.624745 0.468564 0.173057
H26   H     H_    0.184865 0.651665 0.041130 0.225295
H27   H     H_    0.179573 0.354464 0.535606 0.169143
H28   H     H_    0.188094 0.344533 0.957681 0.181279
H29   H     H_    0.579938 0.124744 0.468564 0.173057
H30   H     H_    0.684865 0.151665 0.041130 0.225295
H31   H     H_    0.679573 0.854463 0.535607 0.169143
H32   H     H_    0.688094 0.844533 0.957681 0.181279
H33   H     H_    0.754975 0.976895 0.469616 0.263405
H34   H     H_    0.725931 0.932877 0.072982 0.244652
H35   H     H_    0.736366 0.009896 0.595611 0.239306
H36   H     H_    0.747460 0.969568 0.945958 0.267424
H37   H     H_    0.254975 0.476895 0.469615 0.263404
H38   H     H_    0.225931 0.432877 0.072981 0.244652
H39   H     H_    0.236367 0.509895 0.595611 0.239306
H40   H     H_    0.247460 0.469568 0.945958 0.267424
H41   H     H_    0.122273 0.948405 0.379823 0.174122
H42   H     H_    0.104617 0.954706 0.120684 0.174693
H43   H     H_    0.109479 0.057332 0.620137 0.174014
H44   H     H_    0.120764 0.054180 0.874019 0.171961
H45   H     H_    0.622273 0.448405 0.379823 0.174122
H46   H     H_    0.604617 0.454706 0.120685 0.174694
H47   H     H_    0.609479 0.557332 0.620137 0.174014
H48   H     H_    0.620764 0.554180 0.874020 0.171961
O1    O     O_R   0.575450 0.828820 0.667950 -0.474868
O2    O     O_R   0.575450 0.828820 0.832050 -0.482064
O3    O     O_R   0.575450 0.171180 0.332050 -0.450407
O4    O     O_R   0.575450 0.171180 0.167950 -0.472191
O5    O     O_R   0.075450 0.328820 0.667950 -0.474868
O6    O     O_R   0.075450 0.328820 0.832050 -0.482064
O7    O     O_R   0.075450 0.671180 0.332050 -0.450407
O8    O     O_R   0.075450 0.671180 0.167950 -0.472191
O9    O     O_R   0.416860 0.942890 0.674680 -0.483152
O10   O     O_R   0.416860 0.942890 0.825320 -0.452875
O11   O     O_R   0.416860 0.057110 0.325320 -0.442484
O12   O     O_R   0.416860 0.057110 0.174680 -0.454576
O13   O     O_R   0.916860 0.442890 0.674680 -0.483151
O14   O     O_R   0.916860 0.442890 0.825320 -0.452875
O15   O     O_R   0.916860 0.557110 0.325320 -0.442484
O16   O     O_R   0.916860 0.557110 0.174680 -0.454576
O17   O     O_R   0.213790 0.953680 0.668330 -0.489367
O18   O     O_R   0.213790 0.953680 0.831670 -0.509895
O19   O     O_R   0.213790 0.046320 0.331670 -0.519937
O20   O     O_R   0.213790 0.046320 0.168330 -0.513427
O21   O     O_R   0.713790 0.453680 0.668330 -0.489366
O22   O     O_R   0.713790 0.453680 0.831670 -0.509895
O23   O     O_R   0.713790 0.546320 0.331670 -0.519937
O24   O     O_R   0.713790 0.546320 0.168330 -0.513427
O25   O     O_R   0.121360 0.817890 0.672660 -0.451872
O26   O     O_R   0.121360 0.817890 0.827340 -0.469498
O27   O     O_R   0.121360 0.182110 0.327340 -0.473479
O28   O     O_R   0.121360 0.182110 0.172660 -0.465304
O29   O     O_R   0.621360 0.317890 0.672660 -0.451872
O30   O     O_R   0.621360 0.317890 0.827340 -0.469498
O31   O     O_R   0.621360 0.682110 0.327340 -0.473479
O32   O     O_R   0.621360 0.682110 0.172660 -0.465304
O33   O     O_R   0.206850 0.711370 0.665820 -0.485163
O34   O     O_R   0.206850 0.711370 0.834180 -0.447392
O35   O     O_R   0.206850 0.288630 0.334180 -0.461899
O36   O     O_R   0.206850 0.288630 0.165820 -0.476871
O37   O     O_R   0.706850 0.211370 0.665820 -0.485163
O38   O     O_R   0.706850 0.211370 0.834180 -0.447392
O39   O     O_R   0.706850 0.788630 0.334180 -0.461898
O40   O     O_R   0.706850 0.788630 0.165820 -0.476871
O41   O     O_R   0.457710 0.733190 0.672630 -0.487347
O42   O     O_R   0.457710 0.733190 0.827370 -0.507435
O43   O     O_R   0.457710 0.266810 0.327370 -0.513696
O44   O     O_R   0.457710 0.266810 0.172630 -0.519571
O45   O     O_R   0.957710 0.233190 0.672630 -0.487347
O46   O     O_R   0.957710 0.233190 0.827370 -0.507435
O47   O     O_R   0.957710 0.766810 0.327370 -0.513695
O48   O     O_R   0.957710 0.766810 0.172630 -0.519571
O49   O     O_3   0.331690 0.831680 0.750000 -0.360231
O50   O     O_3   0.331690 0.168320 0.250000 -0.352585
O51   O     O_3   0.831690 0.331680 0.750000 -0.360231
O52   O     O_3   0.831690 0.668320 0.250000 -0.352585
F1    F     F_    0.909838 0.066054 0.546043 -0.627629
F2    F     F_    0.909151 0.047259 0.928401 -0.580423
F3    F     F_    0.920515 0.005577 0.407945 -0.565662
F4    F     F_    0.901820 0.985448 0.065057 -0.603478
F5    F     F_    0.409838 0.566054 0.546043 -0.627628
F6    F     F_    0.409151 0.547259 0.928401 -0.580423
F7    F     F_    0.420515 0.505578 0.407945 -0.565662
F8    F     F_    0.401820 0.485448 0.065057 -0.603478
Cl1   Cl    Cl    0.011778 0.887800 0.557625 -0.612972
Cl2   Cl    Cl    0.944747 0.876474 0.931086 -0.593575
Cl3   Cl    Cl    0.882126 0.156079 0.418895 -0.449714
Cl4   Cl    Cl    0.935310 0.131650 0.072171 -0.486541
Cl5   Cl    Cl    0.511779 0.387800 0.557625 -0.612973
Cl6   Cl    Cl    0.444747 0.376474 0.931086 -0.593575
Cl7   Cl    Cl    0.382126 0.656080 0.418895 -0.449714
Cl8   Cl    Cl    0.435310 0.631650 0.072171 -0.486541
Cl9   Cl    Cl    0.866721 0.672180 0.594945 -0.591630
Cl10  Cl    Cl    0.940745 0.648652 0.922068 -0.590207
Cl11  Cl    Cl    0.959687 0.367161 0.379803 -0.535087
Cl12  Cl    Cl    0.918616 0.337989 0.076895 -0.627136
Cl13  Cl    Cl    0.366720 0.172180 0.594945 -0.591631
Cl14  Cl    Cl    0.440745 0.148652 0.922068 -0.590207
Cl15  Cl    Cl    0.459688 0.867161 0.379803 -0.535086
Cl16  Cl    Cl    0.418616 0.837990 0.076895 -0.627136
Cl17  Cl    Cl    0.618075 0.988421 0.349437 -0.344767
Cl18  Cl    Cl    0.552839 0.942041 0.174453 -0.382716
Cl19  Cl    Cl    0.546778 0.065110 0.674169 -0.409820
Cl20  Cl    Cl    0.595952 0.033085 0.847649 -0.371609
Cl21  Cl    Cl    0.118074 0.488420 0.349437 -0.344768
Cl22  Cl    Cl    0.052839 0.442041 0.174453 -0.382716
Cl23  Cl    Cl    0.046779 0.565110 0.674169 -0.409819
Cl24  Cl    Cl    0.095951 0.533085 0.847649 -0.371609

loop_
_geom_bond_atom_site_label_1
_geom_bond_atom_site_label_2
_ccdc_geom_bond_type
C6    C32   S    
C7    C29   S    
C119  C143  S    
Cr6   O19   S    
C120  C144  S    
C110  C118  S    
C130  H18   S    
C76   F4    S    
C77   F5    S    
C138  Cl10  S    
C85   O29   A    
Cr5   O26   S    
C47   H39   S    
C16   C144  S    
Cr4   O8    S    
Cr10  O50   S    
C73   F1    S    
C57   C59   A    
C58   C60   A    
Cr6   O28   S    
C62   C70   A    
C1    O17   A    
C61   C63   A    
C62   C64   A    
C65   H43   S    
C89   O1    A    
C49   C51   A    
C34   C42   A    
C50   C52   A    
C23   C89   S    
C41   C43   A    
C97   C105  S    
C81   O25   A    
Cr2   O50   S    
C16   H32   S    
C73   C75   A    
C129  H17   S    
C42   C44   A    
C20   C132  S    
C21   C133  S    
C99   H11   S    
C45   C47   A    
C70   H48   S    
C112  H8    S    
C46   C48   A    
C13   H29   S    
C27   C57   A    
C37   Cl21  S    
C112  C120  S    
C19   C99   S    
C29   C55   A    
C39   Cl23  S    
Cr7   O30   S    
C30   C56   A    
C124  Cl4   S    
C100  C124  S    
Cr3   O13   S    
C42   H34   S    
C104  C128  S    
C86   O38   A    
Cr9   O42   S    
C12   C20   S    
C120  C128  S    
C13   C21   S    
C85   C117  S    
C36   Cl20  S    
Cr7   O21   S    
C63   C71   A    
C2    O10   A    
C34   Cl18  S    
C10   H26   S    
C113  C137  S    
C36   C44   A    
C33   C51   A    
C37   C45   A    
C130  C138  S    
C36   C50   A    
C39   C47   A    
C40   C48   A    
C20   C94   S    
C133  C141  S    
C126  Cl6   S    
Cr2   O3    S    
C24   C90   S    
Cr8   O32   S    
C28   C58   A    
C98   C106  S    
C41   H33   S    
C8    C30   S    
C111  H7    S    
C106  H2    S    
C44   H36   S    
C7    O23   A    
C10   C18   S    
Cr3   O51   S    
C5    O21   A    
C84   O28   A    
Cr4   O15   S    
Cr6   O50   S    
C32   C62   A    
Cr1   O10   S    
Cr11  O38   S    
C129  C137  S    
C126  C134  S    
C7    O15   A    
C10   C138  S    
C3    O11   A    
C66   H44   S    
C102  H14   S    
C14   C142  S    
C122  Cl2   S    
C4    O12   A    
C69   C77   A    
C71   C79   A    
Cr11  O45   S    
Cr12  O47   S    
C87   O31   A    
C39   C53   A    
C74   C76   A    
C110  H6    S    
C92   O4    A    
C105  C113  S    
C78   C80   A    
Cr5   O49   S    
C66   C74   A    
Cr10  O36   S    
C124  C132  S    
C111  C119  S    
C97   C121  S    
Cr12  O40   S    
C59   C67   A    
C89   O41   A    
C35   C49   A    
C101  C125  S    
Cr3   O6    S    
C35   C43   A    
C24   C136  S    
C135  C143  S    
C84   C116  S    
C90   O2    A    
C103  H15   S    
C128  Cl8   S    
C139  Cl11  S    
C94   O46   A    
C46   H38   S    
C74   F2    S    
C23   C103  S    
C100  C108  S    
C83   C115  S    
C104  C112  S    
C87   C119  S    
Cr8   O23   S    
C57   C65   A    
C98   H10   S    
C92   O44   A    
C15   C143  S    
C75   F3    S    
Cr4   O52   S    
C40   C54   A    
C33   Cl17  S    
C10   C106  S    
C67   C75   A    
Cr5   O18   S    
C38   Cl22  S    
C72   H46   S    
C6    O22   A    
C14   C110  S    
C3    O19   A    
Cr6   O20   S    
C102  C126  S    
Cr11  O51   S    
C91   O3    A    
C94   O6    A    
C68   C76   A    
C95   O7    A    
C14   C22   S    
Cr9   O49   S    
C72   C80   A    
C93   O5    A    
C83   O27   A    
C81   O33   A    
C114  C138  S    
C38   C46   A    
C131  C139  S    
C37   C55   A    
C38   C56   A    
Cr10  O43   S    
C22   C92   S    
C25   C59   A    
C26   C60   A    
C27   C49   A    
C119  C127  S    
C29   C63   A    
C96   O8    A    
C30   C64   A    
C79   F7    S    
C31   C61   A    
C80   F8    S    
C142  Cl14  S    
C109  C117  S    
C11   C19   S    
C86   O30   A    
Cr9   O34   S    
C99   C123  S    
C127  C135  S    
C128  C136  S    
C101  C109  S    
Cr7   O29   S    
C2    O18   A    
C103  C111  S    
C132  H20   S    
Cr8   O52   S    
C11   C139  S    
C6    O14   A    
C9    C137  S    
C105  H1    S    
Cr9   O41   S    
C12   C140  S    
C101  H13   S    
C17   C95   S    
C13   C141  S    
C88   C120  S    
Cr2   O11   S    
C19   C93   S    
C104  H16   S    
C77   C79   A    
C82   O26   A    
Cr1   O49   S    
C32   C54   A    
C45   H37   S    
C91   O43   A    
C3    C25   S    
C115  C123  S    
Cr2   O4    S    
Cr4   O7    S    
C95   O47   A    
C2    C28   S    
Cr1   O1    S    
C117  C141  S    
C134  C142  S    
C20   C100  S    
C85   O37   A    
C86   C118  S    
C134  H22   S    
Cr4   O16   S    
Cr1   O9    S    
Cr11  O37   S    
C22   C134  S    
C1    O9    A    
C102  C110  S    
C96   O48   A    
C121  Cl1   S    
C16   C112  S    
C12   C108  S    
C21   C91   S    
C116  C124  S    
C123  C131  S    
C121  C129  S    
C67   H41   S    
C88   O40   A    
C4    C26   S    
Cr12  O48   S    
C132  C140  S    
C99   C107  S    
C34   C52   A    
C23   C135  S    
C33   C41   A    
C108  C116  S    
Cr5   O25   S    
C136  C144  S    
Cr3   O14   S    
C133  H21   S    
C12   H28   S    
C97   H9    S    
C90   O42   A    
C131  H19   S    
C40   Cl24  S    
Cr6   O27   S    
C9    H25   S    
C135  H23   S    
C123  Cl3   S    
Cr7   O22   S    
C60   C68   A    
C81   C113  S    
Cr3   O5    S    
C9    C105  S    
C70   C78   A    
C18   C96   S    
Cr8   O31   S    
C106  C114  S    
C5    O13   A    
C14   H30   S    
C65   C73   A    
C68   H42   S    
C78   F6    S    
Cr8   O24   S    
C28   C50   A    
C58   C66   A    
C35   Cl19  S    
C13   C109  S    
C21   C101  S    
C15   C23   S    
C43   H35   S    
C16   C24   S    
C48   H40   S    
C84   O36   A    
Cr5   O17   S    
Cr1   O2    S    
Cr11  O46   S    
C93   O45   A    
C53   C55   A    
C19   C131  S    
C88   O32   A    
C83   O35   A    
C17   C129  S    
C15   C111  S    
C11   H27   S    
C82   C114  S    
C4    O20   A    
C15   H31   S    
Cr10  O35   S    
C125  Cl5   S    
C24   C104  S    
C25   C51   A    
C8    O16   A    
Cr12  O39   S    
C26   C52   A    
C87   O39   A    
C125  C133  S    
C143  Cl15  S    
C113  C121  S    
C144  Cl16  S    
C31   C53   A    
C107  C115  S    
C98   C122  S    
C9    C17   S    
Cr10  O44   S    
C69   H47   S    
C11   C107  S    
C103  C127  S    
Cr7   O51   S    
C61   C69   A    
C71   H45   S    
C115  C139  S    
C118  C142  S    
C107  H3    S    
C54   C56   A    
C108  H4    S    
C18   C98   S    
C136  H24   S    
C22   C102  S    
Cr9   O33   S    
C100  H12   S    
C140  Cl12  S    
C141  Cl13  S    
C109  H5    S    
C17   C97   S    
C8    O24   A    
C82   O34   A    
C137  Cl9   S    
C64   C72   A    
C18   C130  S    
C114  C122  S    
C1    C27   S    
C127  Cl7   S    
C118  C126  S    
C5    C31   S    
C117  C125  S    
C122  C130  S    
Cr2   O12   S    
Cr12  O52   S    
C116  C140  S    
