data_mof_unit_4370.cif
_audit_creation_date              2013-03-05T16:05:19-0500
_audit_creation_method            fapswitch 2.2
_symmetry_space_group_name_H-M    P1
_symmetry_Int_Tables_number       1
_space_group_crystal_system       triclinic
_cell_length_a                    27.077238
_cell_length_b                    7.251212
_cell_length_c                    22.827574
_cell_angle_alpha                 90.010927
_cell_angle_beta                  101.44741
_cell_angle_gamma                 90.011641
_cell_volume                      4392.86968993

loop_
_atom_site_label
_atom_site_type_symbol
_atom_site_description
_atom_site_fract_x
_atom_site_fract_y
_atom_site_fract_z
_atom_type_partial_charge
O1    O     O_R   0.707300 0.594030 0.176840 -0.574590
O2    O     O_R   0.292700 0.405970 0.823160 -0.569313
O3    O     O_R   0.792700 0.094030 0.323160 -0.574477
O4    O     O_R   0.207300 0.905970 0.676840 -0.569182
O5    O     O_R   0.697330 0.262360 0.295660 -0.588865
O6    O     O_R   0.302670 0.737640 0.704340 -0.579255
O7    O     O_R   0.802670 0.762360 0.204340 -0.589271
O8    O     O_R   0.197330 0.237640 0.795660 -0.579608
C1    C     C_R   0.684829 0.432121 0.311717 0.919334
C2    C     C_R   0.315229 0.568027 0.688347 0.923348
C3    C     C_R   0.815167 0.932127 0.188280 0.919583
C4    C     C_R   0.184765 0.068020 0.811644 0.923565
O9    O     O_R   0.701410 0.264250 0.175600 -0.584609
O10   O     O_R   0.298590 0.735750 0.824400 -0.589348
O11   O     O_R   0.798590 0.764250 0.324400 -0.584721
O12   O     O_R   0.201410 0.235750 0.675600 -0.589439
O13   O     O_R   0.796800 0.094950 0.202240 -0.574729
O14   O     O_R   0.203200 0.905050 0.797760 -0.586742
O15   O     O_R   0.703200 0.594950 0.297760 -0.574963
O16   O     O_R   0.296800 0.405050 0.702240 -0.586947
C5    C     C_R   0.690059 0.432392 0.153401 1.009790
C6    C     C_R   0.310063 0.567540 0.846523 1.004157
C7    C     C_R   0.809941 0.932457 0.346594 1.010362
C8    C     C_R   0.189945 0.067478 0.653477 1.004480
O17   O     O_3   0.781290 0.427390 0.258880 -0.287794
O18   O     O_3   0.218710 0.572610 0.741120 -0.287272
O19   O     O_3   0.718710 0.927390 0.241120 -0.287657
O20   O     O_3   0.281290 0.072610 0.758880 -0.287180
V1    V     V_3+5 0.744190 0.152150 0.248350 1.208223
V2    V     V_3+5 0.255810 0.847850 0.751650 1.208467
V3    V     V_3+5 0.755810 0.652150 0.251650 1.207764
V4    V     V_3+5 0.244190 0.347850 0.748350 1.208056
C9    C     C_R   0.155823 0.061939 0.594284 -0.262453
C10   C     C_R   0.843699 0.937734 0.406002 -0.263949
C11   C     C_R   0.344205 0.562333 0.905713 -0.262297
C12   C     C_R   0.656288 0.437316 0.093992 -0.263786
C13   C     C_R   0.138921 0.126689 0.488077 -0.280194
C14   C     C_R   0.860623 0.871136 0.512105 -0.283210
C15   C     C_R   0.361312 0.630547 0.011708 -0.280462
C16   C     C_R   0.639150 0.367009 0.988124 -0.283415
C17   C     C_R   0.173361 0.113195 0.542425 0.370521
C18   C     C_R   0.826246 0.882183 0.457584 0.368666
C19   C     C_R   0.326809 0.615894 0.957446 0.371085
C20   C     C_R   0.673579 0.379198 0.042571 0.369093
C21   C     C_R   0.104427 0.021000 0.590442 -0.292501
C22   C     C_R   0.894871 0.982949 0.410222 -0.293915
C23   C     C_R   0.395532 0.520146 0.909616 -0.292609
C24   C     C_R   0.605203 0.483956 0.089680 -0.293879
C25   C     C_R   0.069115 0.032547 0.535257 0.131326
C26   C     C_R   0.930155 0.971288 0.465399 0.132174
C27   C     C_R   0.430913 0.532867 0.964726 0.131185
C28   C     C_R   0.569846 0.471041 0.034583 0.131955
C29   C     C_R   0.087615 0.087778 0.484113 0.125194
C30   C     C_R   0.911739 0.914040 0.516375 0.126273
C31   C     C_R   0.412556 0.590564 0.015719 0.125273
C32   C     C_R   0.588111 0.411180 0.983776 0.126420
C33   C     C_R   0.016210 0.993442 0.529010 0.069396
C34   C     C_R   0.983008 0.011449 0.471723 0.069632
C35   C     C_R   0.483760 0.492710 0.971026 0.069429
C36   C     C_R   0.517054 0.512281 0.028199 0.069665
C37   C     C_R   0.003832 0.068250 0.422702 -0.205715
C38   C     C_R   0.995398 0.936361 0.578007 -0.205373
C39   C     C_R   0.496376 0.571624 0.077055 -0.205758
C40   C     C_R   0.504423 0.433032 0.922199 -0.205437
C41   C     C_R   0.054916 0.104744 0.428902 -0.191055
C42   C     C_R   0.944386 0.898157 0.571674 -0.191536
C43   C     C_R   0.445341 0.609016 0.070818 -0.190992
C44   C     C_R   0.555379 0.393822 0.928583 -0.191479
H1    H     H_    0.069008 0.147533 0.389752 0.136202
H2    H     H_    0.930344 0.854258 0.610744 0.136606
H3    H     H_    0.431361 0.653753 0.109843 0.136213
H4    H     H_    0.569302 0.347879 0.889650 0.136617
H5    H     H_    0.905967 0.021927 0.369173 0.116537
H6    H     H_    0.093223 0.985083 0.631695 0.117490
H7    H     H_    0.594211 0.524768 0.130622 0.116896
H8    H     H_    0.406647 0.482590 0.868448 0.117782
H9    H     H_    0.152407 0.166464 0.448236 0.171350
H10   H     H_    0.847307 0.828948 0.551822 0.171667
H11   H     H_    0.347922 0.672175 0.051438 0.171266
H12   H     H_    0.652363 0.322803 0.948543 0.171483
H13   H     H_    0.981638 0.086152 0.378442 0.129138
H14   H     H_    0.017608 0.918546 0.622268 0.130461
H15   H     H_    0.518651 0.590884 0.121212 0.129176
H16   H     H_    0.482128 0.413826 0.878045 0.130513
C45   C     C_R   0.878169 0.109063 0.143041 -0.095823
C46   C     C_R   0.137458 0.897866 0.879532 -0.091245
C47   C     C_R   0.621829 0.609030 0.356952 -0.096327
C48   C     C_R   0.362482 0.397896 0.620398 -0.092203
H17   H     H_    0.869234 0.233572 0.164995 0.145225
H18   H     H_    0.159226 0.774923 0.875727 0.186890
H19   H     H_    0.630775 0.733529 0.335008 0.145378
H20   H     H_    0.340685 0.274971 0.624176 0.186927
C49   C     C_R   0.914743 0.118013 0.107817 -0.200523
C50   C     C_R   0.101608 0.892258 0.915930 -0.180789
C51   C     C_R   0.585249 0.617980 0.392168 -0.200408
C52   C     C_R   0.398328 0.392277 0.583996 -0.180402
H21   H     H_    0.933726 0.245343 0.104385 0.133582
H22   H     H_    0.097065 0.766715 0.939947 0.134648
H23   H     H_    0.566274 0.745297 0.395603 0.133594
H24   H     H_    0.402853 0.266724 0.559964 0.134778
C53   C     C_R   0.927576 0.964233 0.077144 0.041298
C54   C     C_R   0.072188 0.047199 0.922290 0.039748
C55   C     C_R   0.572403 0.464217 0.422830 0.041373
C56   C     C_R   0.427769 0.547214 0.577655 0.039594
C57   C     C_R   0.905355 0.792608 0.086154 0.248811
C58   C     C_R   0.079510 0.212069 0.891860 0.242931
C59   C     C_R   0.594616 0.292600 0.413818 0.248733
C60   C     C_R   0.420468 0.712098 0.608101 0.242832
C61   C     C_R   0.868891 0.783223 0.122644 -0.166792
C62   C     C_R   0.116418 0.216981 0.856114 -0.186503
C63   C     C_R   0.631082 0.283211 0.377330 -0.166558
C64   C     C_R   0.383573 0.717009 0.643865 -0.185717
H25   H     H_    0.852604 0.650858 0.129984 0.171142
H26   H     H_    0.121857 0.343388 0.832901 0.144254
H27   H     H_    0.647358 0.150850 0.369982 0.171560
H28   H     H_    0.378156 0.843418 0.667098 0.144265
C65   C     C_R   0.854260 0.941524 0.150576 -0.156043
C66   C     C_R   0.145628 0.060524 0.849355 -0.162324
C67   C     C_R   0.645729 0.441504 0.349413 -0.156604
C68   C     C_R   0.354348 0.560546 0.650614 -0.162442
C69   C     C_R   0.952825 0.928950 0.977181 -0.152150
C70   C     C_R   0.046039 0.095764 0.020479 -0.158779
C71   C     C_R   0.547140 0.429040 0.522787 -0.152148
C72   C     C_R   0.453930 0.595662 0.479469 -0.158759
H29   H     H_    0.916616 0.866932 0.959350 0.138882
H30   H     H_    0.082053 0.160446 0.037699 0.131099
H31   H     H_    0.583347 0.367092 0.540624 0.138873
H32   H     H_    0.417917 0.660271 0.462241 0.131155
C73   C     C_R   0.987943 0.947332 0.940053 -0.186514
C74   C     C_R   0.011348 0.073716 0.058072 -0.173673
C75   C     C_R   0.512017 0.447429 0.559907 -0.186417
C76   C     C_R   0.488627 0.573613 0.441885 -0.173620
H33   H     H_    0.978583 0.896936 0.894521 0.125158
H34   H     H_    0.021273 0.121601 0.103840 0.120680
H35   H     H_    0.521371 0.397113 0.605441 0.125162
H36   H     H_    0.478709 0.621423 0.396115 0.120715
C77   C     C_R   0.034608 0.032241 0.961280 0.128575
C78   C     C_R   0.964562 0.987948 0.037057 0.100560
C79   C     C_R   0.465353 0.532238 0.538669 0.128504
C80   C     C_R   0.535411 0.487939 0.462909 0.100524
N1    N     N_R   0.774084 0.836175 0.455566 0.228896
O21   O     O_R   0.738269 0.915934 0.417584 -0.442206
O22   O     O_R   0.761819 0.726119 0.495401 -0.400255
N2    N     N_R   0.225846 0.151232 0.544065 0.225920
O23   O     O_R   0.260761 0.058161 0.579247 -0.434580
O24   O     O_R   0.238991 0.264629 0.505696 -0.399541
N3    N     N_R   0.725644 0.331645 0.044708 0.229065
O25   O     O_R   0.761624 0.412841 0.082088 -0.441902
O26   O     O_R   0.737655 0.218504 0.005528 -0.399930
N4    N     N_R   0.274390 0.655132 0.955747 0.226050
O27   O     O_R   0.239345 0.561068 0.921079 -0.434652
O28   O     O_R   0.261432 0.770814 0.993606 -0.399448
C81   C     C_3   0.924313 0.614900 0.064569 -0.487036
C82   C     C_3   0.883414 0.513525 0.020492 -0.765938
H37   H     H_    0.853038 0.465104 0.042983 0.292539
H38   H     H_    0.866938 0.605253 0.982731 0.252487
H39   H     H_    0.900054 0.391513 0.002262 0.247034
H40   H     H_    0.957535 0.634036 0.043673 0.211671
H41   H     H_    0.937970 0.531301 0.104854 0.182309
C83   C     C_3   0.048961 0.384124 0.896730 -0.400025
C84   C     C_3   0.996839 0.373636 0.856469 -0.878449
H42   H     H_    0.000281 0.351110 0.809306 0.255921
H43   H     H_    0.974323 0.260386 0.870563 0.264665
H44   H     H_    0.976530 0.505401 0.859263 0.251757
H45   H     H_    0.045426 0.407879 0.943782 0.198356
H46   H     H_    0.068423 0.506537 0.882877 0.189329
C85   C     C_3   0.575647 0.114902 0.435400 -0.487654
C86   C     C_3   0.616540 0.013611 0.479478 -0.764857
H47   H     H_    0.646912 0.965169 0.456986 0.292777
H48   H     H_    0.633023 0.105401 0.517237 0.252474
H49   H     H_    0.599892 0.891618 0.497710 0.246890
H50   H     H_    0.542427 0.134039 0.456296 0.211743
H51   H     H_    0.561983 0.031243 0.395113 0.182372
C87   C     C_3   0.451029 0.884166 0.603234 -0.399977
C88   C     C_3   0.503138 0.873793 0.643523 -0.878471
H52   H     H_    0.499675 0.851425 0.690683 0.255921
H53   H     H_    0.525650 0.760484 0.629464 0.264682
H54   H     H_    0.523464 0.005540 0.640715 0.251773
H55   H     H_    0.454586 0.907818 0.556187 0.198392
H56   H     H_    0.431562 0.006601 0.617058 0.189376

loop_
_geom_bond_atom_site_label_1
_geom_bond_atom_site_label_2
_geom_bond_distance
_ccdc_geom_bond_type
O17   V3    1.764879 S    
C57   C81   1.505722 S    
C48   C52   1.398021 A    
O1    C5    1.333557 A    
C47   H19   1.082991 S    
O19   V1    1.764560 S    
C9    C21   1.408514 A    
C72   C79   1.402795 A    
O3    C7    1.333447 A    
N3    O25   1.301351 A    
C10   C18   1.411752 A    
C56   C60   1.416311 A    
O15   V3    1.975942 S    
C62   C66   1.408980 A    
C84   H42   1.110954 S    
C61   C65   1.407575 A    
C33   C38   1.410727 A    
C88   H53   1.107868 S    
C5    C12   1.477978 S    
C69   H29   1.081909 S    
C6    C11   1.478488 S    
C35   C40   1.410703 A    
C26   C30   1.416163 A    
C36   C39   1.410769 A    
C40   C44   1.387852 A    
O9    V1    1.999450 S    
N3    O26   1.301568 A    
C23   H8    1.077103 S    
C14   C18   1.400729 A    
C75   H35   1.083229 S    
N1    O22   1.301565 A    
C58   C62   1.410517 A    
O4    C8    1.333336 A    
C51   H23   1.067055 S    
C44   H4    1.084407 S    
C43   H3    1.084415 S    
C50   H22   1.082276 S    
O1    V3    1.982018 S    
C20   N3    1.442798 S    
O13   V1    1.975986 S    
C31   C43   1.394496 A    
C72   C76   1.401531 A    
O2    V4    1.982020 S    
C81   H40   1.107381 S    
O3    V1    1.982272 S    
C87   C88   1.525573 S    
C40   H16   1.076165 S    
C46   C50   1.398017 A    
C45   C49   1.395543 A    
C1    O15   1.343810 A    
C86   H49   1.110583 S    
C15   C31   1.402687 A    
C76   C80   1.407170 A    
C48   H20   1.081800 S    
C2    O16   1.344962 A    
C16   C32   1.402892 A    
C47   C51   1.395531 A    
O2    C6    1.333440 A    
C16   H12   1.084168 S    
C54   C58   1.416312 A    
C10   C22   1.408365 A    
C83   H46   1.109811 S    
C48   C68   1.405474 A    
C11   C19   1.409987 A    
C62   H26   1.083389 S    
C16   C20   1.400592 A    
C82   H38   1.110023 S    
C76   H36   1.082934 S    
C72   H32   1.083067 S    
C13   C29   1.402739 A    
C34   C37   1.410792 A    
C86   H48   1.110020 S    
C38   H14   1.076136 S    
C11   C23   1.408555 A    
C35   C36   1.438406 A    
O12   C8    1.333271 A    
C13   C17   1.399727 A    
C24   H7    1.077028 S    
C47   C67   1.403043 A    
C74   H34   1.082924 S    
O10   V2    1.999452 S    
C84   H43   1.107859 S    
C51   C55   1.396732 A    
C88   H54   1.110614 S    
O5    V1    1.989712 S    
C53   C57   1.414926 A    
C59   C85   1.505737 S    
O7    V3    1.989671 S    
C38   C42   1.387853 A    
O8    V4    1.989673 S    
C2    C68   1.492992 S    
C17   N2    1.440770 S    
N2    O24   1.301498 A    
C46   H18   1.081765 S    
C49   C53   1.396739 A    
C85   C86   1.528487 S    
C64   C68   1.408980 A    
C45   H17   1.082984 S    
O18   V4    1.764878 S    
C15   C19   1.399632 A    
C14   H10   1.084171 S    
C32   C44   1.394768 A    
C13   H9    1.084253 S    
C71   C80   1.406960 A    
C60   C64   1.410514 A    
C39   H15   1.076074 S    
C21   H6    1.077102 S    
C54   C77   1.482866 S    
C26   C34   1.439288 A    
C69   C78   1.406964 A    
C70   H30   1.083060 S    
O7    C3    1.346680 A    
C39   C43   1.387607 A    
O5    C1    1.346645 A    
N4    O28   1.301494 A    
C63   H27   1.083042 S    
C71   H31   1.081917 S    
C88   H52   1.110951 S    
C14   C30   1.402931 A    
C21   C25   1.424813 A    
O8    C4    1.345719 A    
C7    C10   1.477859 S    
C18   N1    1.443007 S    
O9    C5    1.332801 A    
C46   C66   1.405469 A    
C83   H45   1.110512 S    
C45   C65   1.403045 A    
C82   H37   1.109504 S    
C19   N4    1.440607 S    
C82   H39   1.110572 S    
C4    C66   1.493011 S    
C63   C67   1.407596 A    
C86   H47   1.109499 S    
O6    V2    1.989712 S    
C52   C56   1.401485 A    
O14   V2    1.975980 S    
C1    C67   1.492529 S    
C73   H33   1.083220 S    
C12   C20   1.411606 A    
C27   C35   1.439308 A    
C3    C65   1.492512 S    
C49   H21   1.067066 S    
C64   H28   1.083388 S    
C84   H44   1.110614 S    
C29   C41   1.394500 A    
C81   H41   1.102380 S    
O16   V4    1.975944 S    
C41   H1    1.084428 S    
C57   C61   1.414134 A    
C3    O13   1.343823 A    
C71   C75   1.400046 A    
C59   C63   1.414146 A    
C70   C77   1.402793 A    
C69   C73   1.400042 A    
N2    O23   1.301279 A    
O6    C2    1.345685 A    
C25   C33   1.439305 A    
C23   C27   1.424938 A    
C53   C78   1.494561 S    
O11   V3    1.999002 S    
C85   H50   1.107379 S    
C30   C42   1.394770 A    
C61   H25   1.083053 S    
O12   V4    1.999003 S    
C22   C26   1.424366 A    
C87   H56   1.109820 S    
C8    C9    1.478341 S    
C56   C79   1.482871 S    
C85   H51   1.102385 S    
C9    C17   1.410088 A    
C83   C84   1.525576 S    
O10   C6    1.333193 A    
O20   V2    1.764561 S    
C37   H13   1.076054 S    
C55   C80   1.494557 S    
C33   C34   1.438367 A    
C42   H2    1.084427 S    
C58   C83   1.513267 S    
C52   H24   1.082275 S    
O11   C7    1.332898 A    
C12   C24   1.408392 A    
C27   C31   1.416577 A    
C60   C87   1.513268 S    
C25   C29   1.416533 A    
C75   C79   1.402506 A    
C37   C41   1.387614 A    
C24   C28   1.424492 A    
C73   C77   1.402505 A    
C50   C54   1.401476 A    
C28   C36   1.439289 A    
C4    O14   1.344994 A    
N4    O27   1.301306 A    
C55   C59   1.414927 A    
C81   C82   1.528473 S    
N1    O21   1.301297 A    
C87   H55   1.110511 S    
C70   C74   1.401530 A    
C22   H5    1.077038 S    
O4    V2    1.982272 S    
C28   C32   1.416228 A    
C15   H11   1.084236 S    
C74   C78   1.407169 A    
