data_mof_unit_2958.cif
_audit_creation_date              2013-03-05T16:35:30-0500
_audit_creation_method            fapswitch 2.2
_symmetry_space_group_name_H-M    P1
_symmetry_Int_Tables_number       1
_space_group_crystal_system       triclinic
_cell_length_a                    10.698179
_cell_length_b                    14.775324
_cell_length_c                    14.2381
_cell_angle_alpha                 88.163499
_cell_angle_beta                  89.868329
_cell_angle_gamma                 89.581895
_cell_volume                      2249.38237765

loop_
_atom_site_label
_atom_site_type_symbol
_atom_site_description
_atom_site_fract_x
_atom_site_fract_y
_atom_site_fract_z
_atom_type_partial_charge
O1    O     O_R   0.500010 0.369070 0.579480 -0.539420
O2    O     O_R   0.499990 0.630930 0.420520 -0.561884
O3    O     O_R   0.500010 0.369060 0.420520 -0.630350
O4    O     O_R   0.499990 0.630940 0.579480 -0.627228
C1    C     C_R   0.495396 0.326698 0.501535 0.932658
C2    C     C_R   0.495494 0.673134 0.498427 0.897056
O5    O     O_R   0.316760 0.500010 0.579480 -0.583475
O6    O     O_R   0.683240 0.499990 0.420520 -0.569823
O7    O     O_R   0.316760 0.500000 0.420520 -0.651656
O8    O     O_R   0.683240 0.500000 0.579480 -0.638471
C3    C     C_R   0.260633 0.503787 0.499605 0.881535
C4    C     C_R   0.740065 0.496236 0.500754 0.910524
Zn1   Zn    Zn3+2 0.500000 0.500010 0.606140 1.039837
Zn2   Zn    Zn3+2 0.500000 0.499990 0.393860 1.037208
C5    C     C_R   0.182056 0.793281 0.351883 -0.267047
C6    C     C_R   0.897876 0.235528 0.729024 -0.160148
C7    C     C_R   0.135162 0.726057 0.414393 0.268178
C8    C     C_R   0.917023 0.285549 0.644425 0.297290
C9    C     C_R   0.119515 0.637097 0.382190 -0.015130
C10   C     C_R   0.890468 0.379850 0.640934 0.019126
C11   C     C_R   0.149161 0.618128 0.288949 -0.178385
C12   C     C_R   0.845492 0.420906 0.721983 -0.143334
H1    H     H_    0.132975 0.551225 0.262801 0.181824
H2    H     H_    0.833791 0.493695 0.722872 0.171181
C13   C     C_R   0.197450 0.685126 0.228281 -0.164545
C14   C     C_R   0.822426 0.369946 0.804218 -0.171014
C15   C     C_R   0.214092 0.773519 0.258952 0.363887
C16   C     C_R   0.849064 0.276847 0.808926 0.365364
C17   C     C_R   0.932004 0.560003 0.443082 -0.118862
C18   C     C_R   0.070833 0.442121 0.559259 -0.128053
C19   C     C_R   0.873028 0.497090 0.503008 -0.086189
C20   C     C_R   0.128748 0.503984 0.498851 -0.053786
C21   C     C_R   0.942579 0.439488 0.564945 0.050548
C22   C     C_R   0.060486 0.565055 0.441239 0.059153
C23   C     C_R   0.445677 0.084535 0.584885 -0.186888
C24   C     C_R   0.463913 0.916827 0.417601 -0.180434
C25   C     C_R   0.482537 0.174493 0.586327 0.354637
C26   C     C_R   0.496745 0.825898 0.417149 0.292182
C27   C     C_R   0.465265 0.230410 0.504554 -0.157785
C28   C     C_R   0.465087 0.769209 0.495016 -0.200732
C29   C     C_R   0.405363 0.195673 0.425795 -0.191118
C30   C     C_R   0.394876 0.803847 0.569315 -0.166374
H3    H     H_    0.386500 0.237768 0.363665 0.190482
H4    H     H_    0.366182 0.760866 0.628453 0.208454
C31   C     C_R   0.370329 0.105793 0.425337 -0.090910
C32   C     C_R   0.360877 0.894416 0.568356 -0.083028
H5    H     H_    0.330308 0.079092 0.362191 0.191159
H6    H     H_    0.310283 0.920752 0.627687 0.188277
C33   C     C_R   0.395211 0.049227 0.503483 0.075175
C34   C     C_R   0.398440 0.951651 0.493750 0.029663
C35   C     C_R   0.389611 0.478163 0.107163 -0.241930
C36   C     C_R   0.584268 0.553410 0.892382 -0.249147
C37   C     C_R   0.394267 0.476342 0.206175 -0.054320
C38   C     C_R   0.584557 0.550788 0.793577 -0.063480
N1    N     N_R   0.500000 0.499980 0.252470 -0.145178
N2    N     N_R   0.500000 0.500020 0.747530 -0.148930
C39   C     C_R   0.604784 0.523015 0.201211 0.496397
C40   C     C_R   0.410744 0.452899 0.798018 0.492561
C41   C     C_R   0.605058 0.521127 0.102700 -0.255701
C42   C     C_R   0.409973 0.452187 0.896715 -0.259447
H7    H     H_    0.691044 0.537085 0.065941 0.172328
H8    H     H_    0.340973 0.411230 0.933405 0.179320
C43   C     C_R   0.496607 0.500713 0.053016 0.112380
C44   C     C_R   0.497050 0.502313 0.946441 0.099908
N3    N     N_R   0.262481 0.843021 0.195956 0.250369
O9    O     O_R   0.277214 0.925251 0.223975 -0.367345
O10   O     O_R   0.293158 0.824600 0.110101 -0.316623
N4    N     N_R   0.826405 0.224495 0.894220 0.239536
O11   O     O_R   0.850956 0.138061 0.898880 -0.307974
O12   O     O_R   0.779916 0.262604 0.967842 -0.339331
H9    H     H_    0.301753 0.462717 0.074240 0.164770
H10   H     H_    0.651306 0.596581 0.925237 0.173248
H11   H     H_    0.312255 0.456537 0.245858 0.157432
H12   H     H_    0.651581 0.590722 0.753572 0.160701
N5    N     N_R   0.714714 0.553888 0.245887 0.204389
O13   O     O_R   0.713201 0.633385 0.282156 -0.325354
O14   O     O_R   0.821800 0.515664 0.228183 -0.403633
N6    N     N_R   0.311943 0.407573 0.751932 0.203867
O15   O     O_R   0.334392 0.330878 0.712958 -0.355814
O16   O     O_R   0.196958 0.428202 0.772808 -0.420643
H13   H     H_    0.194184 0.861333 0.376100 0.216234
H14   H     H_    0.918252 0.163637 0.731760 0.217361
N7    N     N_R   0.101091 0.750091 0.508436 0.207019
O17   O     O_R   0.109938 0.691532 0.578338 -0.399078
O18   O     O_R   0.070139 0.833221 0.525980 -0.340964
N8    N     N_R   0.964153 0.240185 0.563408 0.210233
O19   O     O_R   0.935138 0.269284 0.478952 -0.358842
O20   O     O_R   0.027787 0.165108 0.573620 -0.343123
H15   H     H_    0.220257 0.667943 0.156889 0.190860
H16   H     H_    0.787103 0.404026 0.865107 0.181526
H17   H     H_    0.878015 0.607797 0.400531 0.216536
H18   H     H_    0.126394 0.396159 0.603277 0.204453
H19   H     H_    0.467952 0.039977 0.644548 0.180846
H20   H     H_    0.495992 0.961188 0.360558 0.198306
N9    N     N_R   0.545028 0.204993 0.668443 0.234510
O21   O     O_R   0.646755 0.251719 0.659562 -0.420693
O22   O     O_R   0.513890 0.172889 0.751359 -0.312312
N10   N     N_R   0.567997 0.794059 0.339755 0.238791
O23   O     O_R   0.510368 0.756469 0.270931 -0.328682
O24   O     O_R   0.680688 0.824330 0.326153 -0.304663

loop_
_geom_bond_atom_site_label_1
_geom_bond_atom_site_label_2
_geom_bond_distance
_ccdc_geom_bond_type
C6    C16   1.405979 A    
C18   C20   1.383677 A    
N5    O13   1.298135 A    
N9    O21   1.296832 A    
C26   N10   1.428550 S    
C27   C29   1.405920 A    
O5    C3    1.286713 A    
C8    N8    1.440854 S    
C35   H9    1.080413 S    
C36   H10   1.080467 S    
C12   H2    1.082317 S    
C9    C11   1.400786 A    
N6    O16   1.301204 A    
C39   C41   1.403775 A    
C40   C42   1.404967 A    
C25   N9    1.434838 S    
C42   H8    1.080978 S    
C30   C32   1.383839 A    
C31   H5    1.083633 S    
O4    Zn1   1.959448 S    
C38   H12   1.081419 S    
N4    O11   1.301568 A    
N3    O10   1.301627 A    
C23   C33   1.397376 A    
C19   C21   1.414692 A    
Zn1   N2    2.013130 S    
C23   H19   1.083810 S    
Zn2   N1    2.013130 S    
C29   H3    1.083427 S    
O2    C2    1.290444 A    
C30   H4    1.083475 S    
C14   C16   1.402259 A    
C36   C38   1.408562 A    
C32   H6    1.083451 S    
C37   N1    1.363785 A    
C25   C27   1.417532 A    
C38   N2    1.361970 A    
C41   H7    1.081101 S    
N8    O20   1.301610 A    
C2    C28   1.453336 S    
C35   C43   1.414448 A    
C5    H13   1.082159 S    
C36   C44   1.415202 A    
N8    O19   1.301475 A    
O3    C1    1.295636 A    
C17   C22   1.377237 A    
O8    Zn1   1.995889 S    
C35   C37   1.410125 A    
C20   C22   1.402176 A    
O7    Zn2   1.995890 S    
C15   N3    1.440008 S    
N5    O14   1.301273 A    
C5    C15   1.405244 A    
N7    O17   1.300852 A    
C31   C33   1.394964 A    
C14   H16   1.082428 S    
O6    C4    1.294727 A    
C6    H14   1.082286 S    
O7    C3    1.277507 A    
O3    Zn2   1.959448 S    
O8    C4    1.276507 A    
C10   C21   1.483617 S    
C18   H18   1.084354 S    
N7    O18   1.301557 A    
C10   C12   1.403291 A    
C3    C20   1.410978 S    
C33   C34   1.452933 S    
N10   O24   1.300856 A    
N1    C39   1.375143 A    
C4    C19   1.423053 S    
O1    C1    1.292771 A    
O4    C2    1.294795 A    
O1    Zn1   1.983468 S    
C17   H17   1.080540 S    
C24   C34   1.399245 A    
C5    C7    1.406744 A    
C1    C27   1.460311 S    
C11   C13   1.394125 A    
O6    Zn2   1.997603 S    
C18   C21   1.375045 A    
C23   C25   1.389982 A    
N6    O15   1.298254 A    
C41   C43   1.400036 A    
C37   H11   1.079607 S    
C28   C30   1.403796 A    
C16   N4    1.439835 S    
C9    C22   1.479432 S    
N9    O22   1.301659 A    
C13   C15   1.403009 A    
C32   C34   1.396577 A    
C13   H15   1.082461 S    
C42   C44   1.401543 A    
C39   N5    1.423257 S    
C11   H1    1.082657 S    
C17   C19   1.394783 A    
C26   C28   1.410094 A    
C24   C26   1.386384 A    
C7    C9    1.417081 A    
N2    C40   1.373952 A    
C8    C10   1.419289 A    
N3    O9    1.301662 A    
O2    Zn2   1.983468 S    
C40   N6    1.427577 S    
C43   C44   1.516838 S    
C24   H20   1.083940 S    
O5    Zn1   1.997604 S    
C6    C8    1.408232 A    
N10   O23   1.300571 A    
C12   C14   1.394153 A    
N4    O12   1.301750 A    
C29   C31   1.382727 A    
C7    N7    1.441595 S    
