data_mof_unit_302.cif
_audit_creation_date              2012-12-10T17:19:52-0500
_audit_creation_method            fapswitch 2.2
_symmetry_space_group_name_H-M    P1
_symmetry_Int_Tables_number       1
_space_group_crystal_system       triclinic
_cell_length_a                    9.642931
_cell_length_b                    10.774306
_cell_length_c                    15.528636
_cell_angle_alpha                 86.985185
_cell_angle_beta                  73.696281
_cell_angle_gamma                 90.544282
_cell_volume                      1545.84471718

loop_
_atom_site_label
_atom_site_type_symbol
_atom_type_description
_atom_site_fract_x
_atom_site_fract_y
_atom_site_fract_z
_atom_type_partial_charge
C1    C     C_R   0.997932 0.262662 0.503552 0.786375
C2    C     C_R   0.680321 0.531520 0.908000 0.089034
C3    C     C_R   0.778192 0.497396 0.957919 0.165989
C4    C     C_R   0.533275 0.554290 0.953885 0.068877
C5    C     C_R   0.484336 0.532373 0.048946 0.064261
C6    C     C_R   0.587369 0.504951 0.096201 -0.219333
C7    C     C_R   0.731262 0.487926 0.051298 -0.241613
C8    C     C_R   0.433335 0.597455 0.908157 -0.224032
C9    C     C_R   0.288631 0.611397 0.953196 -0.239338
C10   C     C_R   0.237380 0.581449 0.045026 0.169180
C11   C     C_R   0.334129 0.540080 0.093715 0.089215
C12   C     C_R   0.918042 0.500973 0.671837 0.769749
C13   C     C_R   0.089878 0.592938 0.088884 -0.218954
C14   C     C_R   0.036637 0.563161 0.180786 -0.213109
C15   C     C_R   0.276473 0.505800 0.185513 -0.251642
C16   C     C_R   0.083046 0.119402 0.645260 -0.191229
C17   C     C_R   0.127771 0.050011 0.710489 -0.138472
C18   C     C_R   0.129385 0.920991 0.709932 -0.130882
C19   C     C_R   0.086466 0.860566 0.644070 -0.173349
C20   C     C_R   0.043513 0.929076 0.576019 0.098567
C21   C     C_R   0.041809 0.060346 0.576636 0.099221
C22   C     C_R   0.993981 0.128304 0.510266 -0.104161
C23   C     C_R   0.999253 0.736951 0.502811 0.768190
C24   C     C_R   0.942358 0.067569 0.447903 -0.197330
C25   C     C_R   0.943958 0.939627 0.447294 -0.205014
C26   C     C_R   0.997087 0.870371 0.509087 -0.090907
C27   C     C_R   0.700408 0.664568 0.379171 -0.142343
C28   C     C_R   0.656240 0.745396 0.320006 -0.221481
C29   C     C_R   0.512913 0.746739 0.320748 -0.199446
C30   C     C_R   0.412818 0.667053 0.380509 -0.129305
C31   C     C_R   0.453035 0.582084 0.441409 0.190916
C32   C     C_R   0.602480 0.581364 0.440962 0.176142
C33   C     C_R   0.544441 0.420791 0.556607 0.231861
C34   C     C_R   0.082418 0.503174 0.328028 0.782889
C35   C     C_R   0.398228 0.420901 0.554375 -0.060524
C36   C     C_R   0.873525 0.504388 0.770095 -0.044491
C37   C     C_R   0.130307 0.520515 0.229646 -0.048646
C38   C     C_R   0.922244 0.471530 0.913852 -0.214002
C39   C     C_R   0.969568 0.474578 0.820473 -0.207528
C40   C     C_R   0.731941 0.535944 0.813703 -0.246736
Cu1   Cu    Cu3+1 0.140660 0.499990 0.500010 0.919039
Cu2   Cu    Cu3+1 0.859340 0.500010 0.499990 0.922623
H1    H     H_    0.805736 0.464400 0.090152 0.150355
H2    H     H_    0.016098 0.626864 0.052241 0.140574
H3    H     H_    0.904131 0.119797 0.397852 0.153921
H4    H     H_    0.078382 0.218981 0.650600 0.135570
H5    H     H_    0.159277 0.096508 0.762470 0.133065
H6    H     H_    0.162102 0.867316 0.761517 0.133514
H7    H     H_    0.084888 0.760162 0.648434 0.156186
H8    H     H_    0.906471 0.894429 0.396923 0.140287
H9    H     H_    0.812574 0.670979 0.373403 0.190991
H10   H     H_    0.734102 0.807644 0.273310 0.147407
H11   H     H_    0.342934 0.466234 0.224606 0.155303
H12   H     H_    0.478709 0.810077 0.274629 0.153736
H13   H     H_    0.305608 0.675790 0.375744 0.197702
H14   H     H_    0.319646 0.356013 0.597750 0.146806
H15   H     H_    0.923299 0.576099 0.213734 0.154488
H16   H     H_    0.215893 0.644625 0.915491 0.144750
H17   H     H_    0.997433 0.445727 0.951700 0.144102
H18   H     H_    0.080147 0.450942 0.787886 0.152473
H19   H     H_    0.663529 0.560894 0.772052 0.153945
H20   H     H_    0.561132 0.497925 0.168456 0.151631
H21   H     H_    0.463542 0.624236 0.837498 0.139700
N1    N     N_R   0.648320 0.501210 0.499140 -0.219638
N2    N     N_R   0.352470 0.501290 0.499110 -0.218907
O1    O     O_R   0.118810 0.319640 0.500010 -0.573905
O2    O     O_R   0.881240 0.319660 0.500000 -0.596273
O3    O     O_R   0.055570 0.499980 0.629840 -0.594099
O4    O     O_R   0.818000 0.500010 0.629830 -0.582355
O5    O     O_R   0.118760 0.680340 0.500000 -0.599821
O6    O     O_R   0.881190 0.680360 0.499990 -0.586274
O7    O     O_R   0.182000 0.499990 0.370170 -0.595137
O8    O     O_R   0.944430 0.500020 0.370160 -0.596598
C41   C     C_3   0.576516 0.326091 0.623877 -0.356268
C42   C     C_3   0.488574 0.347830 0.720389 -0.882298
H22   H     H_    0.488150 0.448146 0.732940 0.256014
H23   H     H_    0.375127 0.313954 0.733083 0.234287
H24   H     H_    0.536124 0.296372 0.768673 0.254526
H25   H     H_    0.549396 0.231524 0.607051 0.180022
H26   H     H_    0.689652 0.324010 0.623107 0.261952

loop_
_geom_bond_atom_site_label_1
_geom_bond_atom_site_label_2
_ccdc_geom_bond_type
C12   O4    A    
C16   C21   A    
Cu2   N1    S    
C34   C37   S    
Cu1   Cu2   S    
C19   C20   A    
C4    C8    A    
C12   O3    A    
C24   H3    S    
C15   H11   S    
C28   C29   A    
C5    C11   A    
C3    C7    A    
C38   C39   A    
C16   C17   A    
C29   H12   S    
C35   N2    A    
C9    H16   S    
C23   C26   S    
C25   H8    S    
C15   C37   A    
C1    O2    A    
C11   C15   A    
C3    C38   A    
C8    C9    A    
C7    H1    S    
C12   C36   S    
C9    C10   A    
C27   C32   A    
C1    C22   S    
C41   H26   S    
C21   C22   A    
C23   O5    A    
C27   H9    S    
C17   C18   A    
Cu1   O3    S    
C41   C42   S    
C23   O6    A    
C36   C40   A    
C24   C25   A    
C32   N1    A    
C16   H4    S    
C18   C19   A    
Cu1   N2    S    
C34   O8    A    
C25   C26   A    
Cu2   O4    S    
C40   H19   S    
C2    C4    A    
C42   H22   S    
C29   C30   A    
C19   H7    S    
C31   C32   A    
C30   C31   A    
C1    O1    A    
C42   H23   S    
Cu1   O1    S    
Cu1   O7    S    
C41   H25   S    
Cu2   O2    S    
C22   C24   A    
C34   O7    A    
C31   N2    A    
C14   H15   S    
Cu2   O8    S    
C35   H14   S    
C36   C39   A    
C17   H5    S    
C4    C5    A    
C10   C13   A    
C18   H6    S    
C6    C7    A    
C30   H13   S    
C6    H20   S    
C2    C3    A    
C14   C37   A    
C28   H10   S    
C5    C6    A    
C20   C26   A    
C33   N1    A    
C39   H18   S    
Cu2   O6    S    
C33   C35   A    
C42   H24   S    
C10   C11   A    
C8    H21   S    
C38   H17   S    
C2    C40   A    
C33   C41   S    
C20   C21   A    
C27   C28   A    
C13   C14   A    
C13   H2    S    
Cu1   O5    S    
