data_mof_unit_4265.cif
_audit_creation_date              2012-12-11T14:51:38-0500
_audit_creation_method            fapswitch 2.2
_symmetry_space_group_name_H-M    P1
_symmetry_Int_Tables_number       1
_space_group_crystal_system       triclinic
_cell_length_a                    6.949369
_cell_length_b                    16.665023
_cell_length_c                    16.951192
_cell_angle_alpha                 101.253547
_cell_angle_beta                  88.676592
_cell_angle_gamma                 91.421961
_cell_volume                      1924.4697604

loop_
_atom_site_label
_atom_site_type_symbol
_atom_type_description
_atom_site_fract_x
_atom_site_fract_y
_atom_site_fract_z
_atom_type_partial_charge
O1    O     O_R   0.506340 0.439070 0.579550 -0.524772
O2    O     O_R   0.170010 0.404890 0.412100 -0.539677
O3    O     O_R   0.005010 0.560930 0.420450 -0.540836
C1    C     C_R   0.339863 0.381167 0.383935 0.708344
O4    O     O_R   0.176280 0.429360 0.578400 -0.545551
O5    O     O_R   0.011320 0.585570 0.587940 -0.541003
C2    C     C_R   0.341765 0.413052 0.604858 0.724314
O6    O     O_R   0.500030 0.414430 0.412060 -0.542532
O7    O     O_3   0.340950 0.551220 0.502940 -0.367204
V1    V     V_3+5 0.064020 0.490500 0.499460 1.439526
O8    O     O_R   0.681910 0.595110 0.587900 -0.527931
C3    C     C_R   0.850638 0.617724 0.616949 0.758515
O9    O     O_R   0.675640 0.570640 0.421600 -0.542859
C4    C     C_R   0.848030 0.585690 0.394509 0.709080
V2    V     V_3+5 0.564670 0.509500 0.500540 1.457175
O10   O     O_3   0.837610 0.448780 0.497060 -0.371680
C5    C     C_R   0.890047 0.863224 0.167887 -0.107684
C6    C     C_R   0.875521 0.636598 0.332069 -0.109539
C7    C     C_R   0.082413 0.675012 0.225760 0.145112
C8    C     C_R   0.036346 0.623308 0.279853 -0.136739
C9    C     C_R   0.756408 0.702290 0.328884 -0.230467
C10   C     C_R   0.799983 0.756647 0.275940 0.109015
C11   C     C_R   0.965497 0.743137 0.223974 0.107391
C12   C     C_R   0.009130 0.797519 0.171061 -0.228516
C13   C     C_R   0.729114 0.876467 0.220049 -0.151407
C14   C     C_R   0.683029 0.824755 0.274134 0.147247
H1    H     H_    0.131463 0.787770 0.129934 0.144898
H2    H     H_    0.637191 0.927621 0.218062 0.121720
H3    H     H_    0.128230 0.572138 0.281826 0.127164
H4    H     H_    0.634123 0.712059 0.370034 0.146187
C15   C     C_3   0.710081 0.781039 0.770950 0.112530
C16   C     C_3   0.804791 0.776113 0.686655 -0.192613
H5    H     H_    0.740415 0.797649 0.635347 0.141566
C17   C     C_3   0.862931 0.687481 0.687691 -0.103290
C18   C     C_3   0.766931 0.692432 0.771118 0.034274
C19   C     C_3   0.958682 0.723821 0.812049 -0.225797
C20   C     C_3   0.055729 0.718601 0.727500 -0.176385
C21   C     C_3   0.995893 0.807531 0.727684 0.011236
C22   C     C_3   0.900829 0.812844 0.811500 -0.083114
H6    H     H_    0.022670 0.702240 0.863392 0.144985
H7    H     H_    0.194992 0.689280 0.708101 0.143328
C23   C     C_3   0.503786 0.241380 0.307226 -0.187737
C24   C     C_3   0.345591 0.179457 0.270256 0.176748
H8    H     H_    0.599943 0.232635 0.356077 0.142407
C25   C     C_3   0.406795 0.190733 0.184901 -0.140291
C26   C     C_3   0.565461 0.252808 0.220966 -0.175610
C27   C     C_3   0.419063 0.322590 0.228028 0.115854
C28   C     C_3   0.260967 0.260727 0.191506 -0.012996
C29   C     C_3   0.200518 0.249107 0.276950 0.119826
C30   C     C_3   0.357376 0.311189 0.313166 -0.062061
H9    H     H_    0.712832 0.254992 0.195155 0.170737
C31   C     C_R   0.430476 0.138545 0.832354 -0.105293
C32   C     C_R   0.336803 0.358754 0.665271 -0.086112
C33   C     C_R   0.159060 0.304515 0.769747 -0.118509
C34   C     C_R   0.174122 0.358163 0.716007 -0.164781
C35   C     C_R   0.484828 0.303628 0.669193 -0.196010
C36   C     C_R   0.467133 0.245374 0.720252 0.077132
C37   C     C_R   0.303200 0.247770 0.772415 0.166611
C38   C     C_R   0.284964 0.193883 0.826987 -0.161616
C39   C     C_R   0.590253 0.134913 0.779495 -0.222055
C40   C     C_R   0.608383 0.185477 0.721999 -0.028579
H10   H     H_    0.160465 0.196912 0.867104 0.130618
H11   H     H_    0.699919 0.090244 0.781609 0.164600
H12   H     H_    0.032445 0.306617 0.808597 0.116404
H13   H     H_    0.057812 0.399903 0.714475 0.133102
H14   H     H_    0.611425 0.306500 0.631644 0.158673
O11   O     O_R   0.266070 0.085680 0.087850 -0.523637
O12   O     O_R   0.590090 0.070660 0.921580 -0.549363
O13   O     O_R   0.754780 0.914400 0.912080 -0.542104
C41   C     C_R   0.424745 0.086582 0.894763 0.746351
O14   O     O_R   0.596110 0.095130 0.087880 -0.546516
O15   O     O_R   0.760850 0.939050 0.079570 -0.542538
C42   C     C_R   0.425971 0.119617 0.115279 0.745248
O16   O     O_R   0.260010 0.061030 0.920360 -0.512637
O17   O     O_3   0.425070 0.948840 0.997010 -0.375652
V3    V     V_3+5 0.702100 0.009490 0.000550 1.442495
O18   O     O_R   0.090200 0.929250 0.078500 -0.544670
C43   C     C_R   0.917730 0.914203 0.105514 0.698916
O19   O     O_R   0.084180 0.904770 0.912200 -0.533060
C44   C     C_R   0.915149 0.882388 0.882787 0.755753
V4    V     V_3+5 0.201420 0.990350 0.999580 1.473209
O20   O     O_3   0.928580 0.051150 0.002990 -0.356268
C45   C     C_2   0.119869 0.871601 0.699495 0.729915
O21   O     O_2   0.190332 0.857509 0.631610 -0.554300
O22   O     O_R   0.153268 0.947081 0.750347 -0.667197
H15   H     H_    0.239158 0.984995 0.724331 0.303297
C46   C     C_3   0.305891 0.097493 0.294966 -0.776409
H16   H     H_    0.266448 0.107616 0.359908 0.223197
H17   H     H_    0.185560 0.064794 0.259403 0.205256
H18   H     H_    0.436622 0.059719 0.283776 0.194207
C47   C     C_3   0.464270 0.404575 0.204201 -0.727697
H19   H     H_    0.502789 0.394723 0.139181 0.222637
H20   H     H_    0.336535 0.444068 0.216320 0.201182
H21   H     H_    0.587017 0.435290 0.239622 0.211894
C48   C     C_2   0.125403 0.277667 0.129271 0.731283
O23   O     O_2   0.018007 0.335766 0.145934 -0.571123
O24   O     O_R   0.124663 0.228542 0.052477 -0.661703
H22   H     H_    0.026865 0.246430 0.016288 0.282728
C49   C     C_3   0.997717 0.244387 0.310939 -0.766840
H23   H     H_    0.919917 0.191008 0.275294 0.201861
H24   H     H_    0.003430 0.236610 0.374383 0.209792
H25   H     H_    0.922123 0.301728 0.308737 0.227720
C50   C     C_2   0.771829 0.170557 0.663071 0.747185
O25   O     O_2   0.926492 0.148976 0.683927 -0.556671
O26   O     O_R   0.746575 0.175999 0.582690 -0.671111
H26   H     H_    0.868048 0.163392 0.548677 0.296465
C51   C     C_3   0.257043 0.656151 0.171140 -0.774698
H27   H     H_    0.332157 0.601166 0.181543 0.213602
H28   H     H_    0.212629 0.644355 0.107349 0.222250
H29   H     H_    0.361611 0.708372 0.181846 0.214337
C52   C     C_3   0.508355 0.843599 0.328732 -0.777400
H30   H     H_    0.433208 0.898570 0.318306 0.212856
H31   H     H_    0.403836 0.791361 0.318026 0.215319
H32   H     H_    0.552728 0.855418 0.392529 0.223896
C53   C     C_3   0.512771 0.816858 0.792014 -0.669091
H33   H     H_    0.412905 0.786984 0.745512 0.187156
H34   H     H_    0.462866 0.806137 0.851811 0.223670
H35   H     H_    0.517545 0.883436 0.791863 0.207693
C54   C     C_2   0.637433 0.629579 0.798602 0.720593
O27   O     O_2   0.570094 0.643236 0.867028 -0.561167
O28   O     O_R   0.595020 0.555808 0.746445 -0.672081
H36   H     H_    0.506204 0.518649 0.772129 0.286899

loop_
_geom_bond_atom_site_label_1
_geom_bond_atom_site_label_2
_ccdc_geom_bond_type
C46   H16   S    
C28   C48   S    
C21   C45   S    
C6    C9    A    
C4    C6    S    
C18   C54   S    
C7    C8    A    
C12   H1    S    
O15   V3    S    
O24   H22   S    
O18   C43   A    
C13   H2    S    
C45   O21   D    
C19   C20   S    
C40   C50   S    
O5    C3    A    
C21   C22   S    
C32   C35   A    
C29   C49   S    
V2    O10   S    
C17   C20   S    
C35   C36   A    
O13   V3    S    
C25   C42   S    
C17   C18   S    
C23   C26   S    
O15   C43   A    
C31   C39   A    
C26   C27   S    
O8    V2    S    
C49   H23   S    
C53   H34   S    
C41   O16   A    
C11   C12   A    
O11   C42   A    
C16   C21   S    
O7    V1    S    
C9    H4    S    
C1    O6    A    
C32   C34   A    
O9    C4    A    
C20   H7    S    
C51   H28   S    
C23   H8    S    
C15   C53   S    
C34   H13   S    
V4    O20   S    
C27   C30   S    
C8    H3    S    
C54   O28   S    
C5    C12   A    
C27   C28   S    
C19   H6    S    
C50   O26   S    
V3    O20   S    
C47   H19   S    
O19   V4    S    
C24   C29   S    
C13   C14   A    
O22   H15   S    
C26   H9    S    
C1    C30   S    
C39   C40   A    
C18   C19   S    
C16   C17   S    
C7    C11   A    
O17   V3    S    
C20   C21   S    
C31   C38   A    
C47   H20   S    
C15   C16   S    
O18   V4    S    
C51   H27   S    
C53   H35   S    
C52   H31   S    
C24   C25   S    
O28   H36   S    
O3    C4    A    
C23   C30   S    
O1    V2    S    
C28   C29   S    
C45   O22   S    
O11   V4    S    
O6    V2    S    
C46   H17   S    
C51   H29   S    
C39   H11   S    
C23   C24   S    
C2    C32   S    
O16   V4    S    
C3    C17   S    
O2    V1    S    
C50   O25   D    
O4    C2    A    
C33   C37   A    
C25   C28   S    
C33   C34   A    
C38   H10   S    
C52   H30   S    
C49   H24   S    
O1    C2    A    
C27   C47   S    
C19   C22   S    
O17   V4    S    
O5    V1    S    
C54   O27   D    
C48   O24   S    
C36   C40   A    
O12   V3    S    
O26   H26   S    
C24   C46   S    
C22   C44   S    
O9    V2    S    
C37   C38   A    
C5    C13   A    
O4    V1    S    
O3    V1    S    
V1    O10   S    
C16   H5    S    
C47   H21   S    
C36   C37   A    
O14   V3    S    
C33   H12   S    
C35   H14   S    
O2    C1    A    
C15   C18   S    
C5    C43   S    
C15   C22   S    
C52   H32   S    
C6    C8    A    
O7    V2    S    
C31   C41   S    
O19   C44   A    
C25   C26   S    
C49   H25   S    
O12   C41   A    
C29   C30   S    
C10   C14   A    
C46   H18   S    
O14   C42   A    
C48   O23   D    
C10   C11   A    
O13   C44   A    
C9    C10   A    
C14   C52   S    
C53   H33   S    
O8    C3    A    
C7    C51   S    
