data_mof_unit_1007.cif
_audit_creation_date              2012-12-11T15:59:33-0500
_audit_creation_method            fapswitch 2.2
_symmetry_space_group_name_H-M    P1
_symmetry_Int_Tables_number       1
_space_group_crystal_system       triclinic
_cell_length_a                    10.682999
_cell_length_b                    10.780554
_cell_length_c                    17.088079
_cell_angle_alpha                 99.325922
_cell_angle_beta                  98.95276
_cell_angle_gamma                 61.185947
_cell_volume                      1694.70450745

loop_
_atom_site_label
_atom_site_type_symbol
_atom_type_description
_atom_site_fract_x
_atom_site_fract_y
_atom_site_fract_z
_atom_type_partial_charge
C1    C     C_R   0.357524 0.774946 0.400638 0.566966
C2    C     C_R   0.816782 0.232092 0.194686 0.007726
C3    C     C_R   0.828136 0.217495 0.276287 0.019018
C4    C     C_R   0.919055 0.389018 0.309962 -0.155143
C5    C     C_R   0.930754 0.384878 0.230324 -0.143158
C6    C     C_R   0.757931 0.157649 0.138777 -0.093486
C7    C     C_R   0.730048 0.056400 0.162465 -0.104802
C8    C     C_R   0.758454 0.029378 0.241712 -0.117767
C9    C     C_R   0.808213 0.107605 0.298159 -0.083591
C10   C     C_R   0.856202 0.315753 0.332948 -0.010439
C11   C     C_R   0.317348 0.859541 0.167755 0.011947
C12   C     C_R   0.370231 0.346711 0.357540 0.545732
C13   C     C_R   0.455403 0.801366 0.207014 -0.006543
C14   C     C_R   0.470834 0.809284 0.291222 0.044786
C15   C     C_R   0.210765 0.903670 0.290383 -0.170421
C16   C     C_R   0.196185 0.913923 0.210391 -0.138788
C17   C     C_R   0.577389 0.739174 0.163806 -0.106490
C18   C     C_R   0.712279 0.700820 0.202745 -0.164848
C19   C     C_R   0.728070 0.723878 0.284908 -0.105802
C20   C     C_R   0.609683 0.781665 0.329382 0.200291
C21   C     C_R   0.346462 0.843140 0.330751 0.012697
C22   C     C_R   0.285005 0.272486 0.795009 0.003096
C23   C     C_R   0.781096 0.372753 0.405335 0.532177
C24   C     C_R   0.381396 0.156575 0.743961 -0.036960
C25   C     C_R   0.368740 0.175075 0.662948 0.019441
C26   C     C_R   0.204615 0.424325 0.687463 -0.124149
C27   C     C_R   0.189393 0.404404 0.762738 0.132485
C28   C     C_R   0.492130 0.023753 0.768551 -0.122060
C29   C     C_R   0.584854 0.920940 0.714861 -0.154333
C30   C     C_R   0.556122 0.936891 0.634041 -0.018560
C31   C     C_R   0.435390 0.056298 0.607357 0.185501
C32   C     C_R   0.302295 0.312833 0.640174 -0.038176
C33   C     C_1   0.817518 0.342061 0.708952 -0.015377
C34   C     C_R   0.358520 0.767048 0.627807 0.551565
C35   C     C_1   0.845633 0.313564 0.776595 -0.016772
C36   C     C_1   0.338974 0.808342 0.709581 -0.033512
C37   C     C_1   0.314160 0.837045 0.777806 -0.029820
C38   C     C_R   0.899344 0.306785 0.090482 0.528499
C39   C     C_R   0.318507 0.299016 0.120211 0.562428
C40   C     C_R   0.290748 0.895609 0.086789 0.544447
C41   C     C_R   0.887814 0.296728 0.858808 0.545692
C42   C     C_R   0.278571 0.253198 0.877626 0.567530
C43   C     C_R   0.279715 0.884334 0.857418 0.553830
C44   C     C_R   0.363646 0.345222 0.580420 0.538411
C45   C     C_R   0.772297 0.381250 0.629865 0.541786
C46   C     C_1   0.343318 0.335853 0.274261 -0.029792
C47   C     C_1   0.330956 0.325956 0.203494 -0.033871
C48   C     C_R   0.869248 0.317216 0.171894 0.010728
Cr1   Cr    Cr6+3 0.608100 0.610860 0.522250 1.055191
Cr2   Cr    Cr6+3 0.288890 0.599990 0.488420 1.030205
Cr3   Cr    Cr6+3 0.603040 0.289190 0.489390 1.046636
Cr4   Cr    Cr6+3 0.053960 0.052250 0.967380 1.047227
Cr5   Cr    Cr6+3 0.059890 0.373160 0.992710 1.062435
Cr6   Cr    Cr6+3 0.373370 0.061690 0.991710 0.997062
H1    H     H_    0.951610 0.455883 0.353120 0.139334
H2    H     H_    0.803979 0.659972 0.168736 0.137157
H3    H     H_    0.832619 0.704845 0.313773 0.132285
H4    H     H_    0.145995 0.530130 0.667909 0.177042
H5    H     H_    0.515125 0.993881 0.827874 0.183114
H6    H     H_    0.672779 0.823521 0.735296 0.159465
H7    H     H_    0.620506 0.850316 0.592583 0.189595
H8    H     H_    0.733374 0.176353 0.076632 0.139490
H9    H     H_    0.985296 0.438615 0.214518 0.137577
H10   H     H_    0.689157 0.996669 0.119043 0.141467
H11   H     H_    0.740286 0.948998 0.259936 0.143541
H12   H     H_    0.834848 0.077887 0.358342 0.144642
H13   H     H_    0.115647 0.935169 0.319915 0.129660
H14   H     H_    0.569449 0.720779 0.099503 0.137966
H15   H     H_    0.088154 0.964175 0.181693 0.161152
O1    O     O_R   0.749810 0.499790 0.438040 -0.488072
O2    O     O_R   0.298970 0.468800 0.557390 -0.507897
O3    O     O_R   0.489400 0.255930 0.561910 -0.498925
O4    O     O_R   0.723890 0.306050 0.584610 -0.497184
O5    O     O_3   0.500010 0.500010 0.500020 -0.259724
O6    O     O_R   0.171100 0.914680 0.053100 -0.510748
O7    O     O_R   0.941680 0.184840 0.050710 -0.511090
O8    O     O_R   0.922080 0.403420 0.072610 -0.528969
O9    O     O_R   0.196880 0.369150 0.083850 -0.496411
O10   O     O_R   0.411730 0.181020 0.091530 -0.515567
O11   O     O_R   0.365010 0.944360 0.063320 -0.507194
O12   O     O_R   0.477660 0.726260 0.439290 -0.449124
O13   O     O_R   0.159380 0.906670 0.876210 -0.471051
O14   O     O_R   0.930820 0.177420 0.886730 -0.497170
O15   O     O_R   0.910360 0.395420 0.895720 -0.483365
O16   O     O_R   0.186010 0.361730 0.919870 -0.434125
O17   O     O_R   0.400000 0.173010 0.914630 -0.536712
O18   O     O_R   0.354140 0.936940 0.899340 -0.537764
O19   O     O_3   0.162410 0.162370 0.983930 -0.284736
O20   O     O_R   0.260150 0.743000 0.412270 -0.525464
O21   O     O_R   0.297740 0.466550 0.394720 -0.507376
O22   O     O_R   0.488080 0.253500 0.386430 -0.492655
O23   O     O_R   0.722670 0.303800 0.421940 -0.513632
O24   O     O_R   0.751130 0.502220 0.613520 -0.504944
O25   O     O_R   0.478890 0.728510 0.601960 -0.502960
O26   O     O_R   0.261470 0.745430 0.587750 -0.512136
Br1   Br    Br    0.645915 0.861595 0.433092 -0.556257
Br2   Br    Br    0.044522 0.572478 0.816779 -0.484122
N1    N     N_2   0.375188 0.052431 0.526843 -0.486261
H16   H     H_    0.400950 0.100339 0.489179 0.297903
C49   C     C_3   0.224399 0.089192 0.516225 -0.293034
H17   H     H_    0.156665 0.203429 0.535357 0.128609
H18   H     H_    0.192537 0.070113 0.452336 0.135245
H19   H     H_    0.203678 0.022944 0.550537 0.168546

loop_
_geom_bond_atom_site_label_1
_geom_bond_atom_site_label_2
_ccdc_geom_bond_type
C25   C31   A    
C1    C21   S    
C33   C45   S    
C12   O22   A    
C19   C20   A    
Cr3   O5    S    
Cr4   O6    S    
C45   O24   A    
C7    C8    A    
C38   O7    A    
C19   H3    S    
C26   C32   A    
C26   C27   A    
Cr5   O15   S    
C14   C21   A    
C12   O21   A    
C28   C29   A    
Cr2   O5    S    
C30   C31   A    
Cr2   O26   S    
C1    O12   A    
C15   C16   A    
C41   O14   A    
C5    H9    S    
C44   O2    A    
C45   O4    A    
C18   C19   A    
C31   N1    S    
Cr1   O12   S    
C9    H12   S    
Cr3   O22   S    
Cr2   O21   S    
C8    C9    A    
C22   C42   S    
C40   O11   A    
C42   O17   A    
Cr1   O25   S    
C24   C28   A    
C38   C48   S    
C18   H2    S    
C25   C32   A    
C20   Br1   S    
C8    H11   S    
C13   C14   A    
C23   O1    A    
C2    C6    A    
Cr6   O11   S    
C5    C48   A    
C39   O9    A    
C14   C20   A    
Cr4   O19   S    
C34   O26   A    
C12   C46   S    
Cr6   O17   S    
C2    C48   A    
C41   O15   A    
C49   H19   S    
C39   O10   A    
C37   C43   S    
Cr4   O14   S    
Cr5   O8    S    
Cr2   O2    S    
C29   C30   A    
C3    C9    A    
Cr3   O23   S    
Cr3   O4    S    
C11   C16   A    
Cr2   O20   S    
C29   H6    S    
C15   H13   S    
C49   H18   S    
C17   C18   A    
C32   C44   S    
C42   O16   A    
C24   C25   A    
Cr4   O13   S    
C26   H4    S    
N1    C49   S    
Cr1   O1    S    
C4    H1    S    
C22   C24   A    
Cr3   O3    S    
C4    C10   A    
C39   C47   S    
Cr6   O10   S    
C28   H5    S    
C46   C47   T    
C27   Br2   S    
C17   H14   S    
C1    O20   A    
Cr1   O5    S    
C16   H15   S    
C34   O25   A    
C4    C5    A    
Cr4   O7    S    
C6    C7    A    
C38   O8    A    
C10   C23   S    
C40   O6    A    
C13   C17   A    
C22   C27   A    
C43   O18   A    
C6    H8    S    
C2    C3    A    
C3    C10   A    
Cr6   O19   S    
C11   C13   A    
Cr6   O18   S    
C49   H17   S    
C33   C35   T    
C44   O3    A    
Cr5   O19   S    
C34   C36   S    
C11   C40   S    
C35   C41   S    
C7    H10   S    
Cr5   O9    S    
C15   C21   A    
C36   C37   T    
N1    H16   S    
C30   H7    S    
C43   O13   A    
C23   O23   A    
Cr5   O16   S    
Cr1   O24   S    
