data_mof_unit_1051.cif
_audit_creation_date              2012-12-10T17:46:59-0500
_audit_creation_method            fapswitch 2.2
_symmetry_space_group_name_H-M    P1
_symmetry_Int_Tables_number       1
_space_group_crystal_system       triclinic
_cell_length_a                    9.896861
_cell_length_b                    10.689771
_cell_length_c                    13.647625
_cell_angle_alpha                 91.583065
_cell_angle_beta                  82.996532
_cell_angle_gamma                 88.715942
_cell_volume                      1432.04944472

loop_
_atom_site_label
_atom_site_type_symbol
_atom_type_description
_atom_site_fract_x
_atom_site_fract_y
_atom_site_fract_z
_atom_type_partial_charge
C1    C     C_R   0.499513 0.739022 0.488103 0.903285
C2    C     C_R   0.617669 0.935245 0.447741 -0.024924
C3    C     C_R   0.618983 0.061993 0.468821 -0.312801
C4    C     C_R   0.475510 0.500649 0.685560 0.877332
C5    C     C_R   0.500456 0.126047 0.510747 -0.120562
C6    C     C_R   0.835296 0.664214 0.630603 -0.152309
C7    C     C_R   0.893569 0.742484 0.696006 -0.218086
C8    C     C_R   0.033240 0.740217 0.696883 -0.185315
C9    C     C_R   0.115577 0.660621 0.631607 -0.159142
C10   C     C_R   0.060025 0.579724 0.564688 0.138745
C11   C     C_R   0.915373 0.580509 0.564379 0.178276
C12   C     C_1   0.455754 0.503807 0.789138 -0.164157
C13   C     C_R   0.940657 0.422949 0.438542 -0.103708
C14   C     C_R   0.083878 0.423119 0.438468 -0.077494
C15   C     C_R   0.499945 0.260161 0.507186 0.880840
C16   C     C_R   0.524333 0.499665 0.314438 0.913651
C17   C     C_1   0.541813 0.501032 0.210933 -0.100174
C18   C     C_2   0.546131 0.504315 0.020239 -0.191519
C19   C     C_2   0.428395 0.510030 0.981140 0.019131
C20   C     C_1   0.439617 0.506935 0.876836 -0.118931
C21   C     C_1   0.549143 0.502570 0.123481 0.087411
C22   C     C_2   0.289203 0.518064 0.036822 0.428558
C23   C     C_R   0.239385 0.893176 0.487420 -0.136272
C24   C     C_2   0.744279 0.875535 0.395463 0.439605
C25   C     C_R   0.121679 0.956389 0.531375 -0.152183
C26   C     C_R   0.132052 0.067115 0.585306 -0.156818
C27   C     C_R   0.258834 0.120834 0.586404 -0.150033
C28   C     C_R   0.377038 0.063441 0.533045 0.091674
C29   C     C_R   0.370101 0.940940 0.496495 0.066962
C30   C     C_R   0.494526 0.872170 0.470330 -0.141459
H1    H     H_    0.727534 0.672620 0.634652 0.201187
H2    H     H_    0.829762 0.805612 0.746142 0.155151
H3    H     H_    0.222182 0.666141 0.634832 0.208997
H4    H     H_    0.842124 0.916343 0.402860 0.035494
H5    H     H_    0.263263 0.207800 0.628254 0.153950
H6    H     H_    0.711779 0.111939 0.447691 0.162115
H7    H     H_    0.078417 0.801836 0.747398 0.157744
H8    H     H_    0.147716 0.360232 0.388284 0.163154
H9    H     H_    0.643279 0.498731 0.973257 0.148786
H10   H     H_    0.225788 0.809674 0.443663 0.178796
H11   H     H_    0.022701 0.917852 0.525405 0.145172
H12   H     H_    0.041523 0.113622 0.623346 0.140668
H13   H     H_    0.896686 0.359978 0.388444 0.142786
H14   H     H_    0.201532 0.519844 0.996129 0.058891
N1    N     N_R   0.857120 0.501200 0.500900 -0.114544
N2    N     N_R   0.142720 0.501280 0.500940 -0.127788
O1    O     O_R   0.385310 0.683220 0.500000 -0.662142
O2    O     O_2   0.740238 0.784903 0.339522 -0.550548
O3    O     O_R   0.614640 0.683250 0.500010 -0.605445
O4    O     O_R   0.368830 0.499960 0.640340 -0.639696
O5    O     O_R   0.598160 0.499980 0.640350 -0.630449
O6    O     O_R   0.385360 0.316750 0.499990 -0.623470
O7    O     O_R   0.614690 0.316780 0.500000 -0.622775
O8    O     O_R   0.401840 0.500020 0.359650 -0.587582
O9    O     O_R   0.631170 0.500040 0.359660 -0.587745
O10   O     O_2   0.269820 0.523232 0.126913 -0.564976
Zn1   Zn    Zn3+2 0.346870 0.499980 0.499990 0.939682
Zn2   Zn    Zn3+2 0.653130 0.500020 0.500010 0.965002

loop_
_geom_bond_atom_site_label_1
_geom_bond_atom_site_label_2
_ccdc_geom_bond_type
C10   N2    A    
C13   N1    A    
O7    Zn2   S    
C4    C12   S    
C5    C28   A    
C6    C7    A    
C8    H7    S    
O1    Zn1   S    
C18   C21   S    
C9    C10   A    
C19   C20   S    
C2    C30   A    
C12   C20   T    
C6    H1    S    
C16   O9    A    
C7    C8    A    
C14   N2    A    
O5    Zn2   S    
C13   C14   A    
C9    H3    S    
C6    C11   A    
C26   C27   A    
C29   C30   A    
C22   H14   S    
C3    H6    S    
C23   C29   A    
C1    O1    A    
C1    C30   S    
C2    C3    A    
C23   C25   A    
N2    Zn1   S    
C2    C24   S    
C16   O8    A    
N1    Zn2   S    
C5    C15   S    
C11   N1    A    
C10   C11   A    
C4    O5    A    
C14   H8    S    
C24   O2    D    
C15   O7    A    
C13   H13   S    
C19   C22   S    
C26   H12   S    
C18   C19   D    
O6    Zn1   S    
O9    Zn2   S    
C25   H11   S    
C27   C28   A    
C18   H9    S    
C28   C29   A    
C22   O10   D    
C7    H2    S    
C27   H5    S    
C25   C26   A    
C15   O6    A    
O4    Zn1   S    
C1    O3    A    
C17   C21   T    
O3    Zn2   S    
C23   H10   S    
C16   C17   S    
C4    O4    A    
C8    C9    A    
C3    C5    A    
O8    Zn1   S    
C24   H4    S    
