data_mof_unit_4822.cif
_audit_creation_date              2012-12-10T17:23:09-0500
_audit_creation_method            fapswitch 2.2
_symmetry_space_group_name_H-M    P1
_symmetry_Int_Tables_number       1
_space_group_crystal_system       triclinic
_cell_length_a                    15.872986
_cell_length_b                    10.847339
_cell_length_c                    9.663127
_cell_angle_alpha                 89.696461
_cell_angle_beta                  89.587231
_cell_angle_gamma                 93.428251
_cell_volume                      1660.74605587

loop_
_atom_site_label
_atom_site_type_symbol
_atom_type_description
_atom_site_fract_x
_atom_site_fract_y
_atom_site_fract_z
_atom_type_partial_charge
C1    C     C_R   0.489512 0.261986 0.501214 0.838037
C2    C     C_3   0.083525 0.499649 0.501243 -0.038564
C3    C     C_3   0.975481 0.585115 0.591657 0.280934
C4    C     C_3   0.916413 0.502706 0.500096 -0.019304
C5    C     C_3   0.033305 0.611838 0.465382 0.353583
C6    C     C_3   0.974810 0.529675 0.374997 0.286870
C7    C     C_1   0.175089 0.499828 0.501509 0.102808
C8    C     C_1   0.824834 0.501785 0.498922 0.152188
C9    C     C_R   0.463652 0.119885 0.763660 0.362443
C10   C     C_R   0.494579 0.063075 0.880466 0.307298
C11   C     C_R   0.487418 0.933550 0.885501 0.308708
C12   C     C_R   0.340158 0.499504 0.500412 0.797440
C13   C     C_R   0.456336 0.870296 0.769420 0.420590
C14   C     C_R   0.464494 0.929863 0.637053 -0.116968
C15   C     C_R   0.468099 0.060227 0.635244 -0.144235
C16   C     C_R   0.468970 0.125921 0.507147 -0.124247
C17   C     C_R   0.449274 0.058362 0.386328 0.394067
C18   C     C_R   0.452819 0.930346 0.387000 -0.176183
C19   C     C_R   0.468842 0.866385 0.508862 -0.142904
C20   C     C_R   0.631869 0.624472 0.144643 -0.194415
C21   C     C_R   0.710739 0.648435 0.083027 0.384199
C22   C     C_R   0.717851 0.633322 0.941876 -0.159638
C23   C     C_R   0.489917 0.735704 0.501253 0.842164
C24   C     C_R   0.644777 0.613404 0.863601 0.318288
C25   C     C_R   0.569353 0.555535 0.925722 0.155012
C26   C     C_R   0.566839 0.557575 0.074698 0.151808
C27   C     C_R   0.433119 0.453798 0.074671 0.073412
C28   C     C_R   0.431854 0.458952 0.927830 0.091507
C29   C     C_R   0.659779 0.499829 0.499557 0.841359
C30   C     C_3   0.967305 0.391230 0.535892 0.379109
C31   C     C_3   0.025312 0.415698 0.408220 -0.309292
C32   C     C_1   0.250567 0.499721 0.501300 -0.117805
C33   C     C_1   0.749359 0.500826 0.498742 -0.122205
C34   C     C_3   0.026365 0.471794 0.629880 -0.276203
Cu1   Cu    Cu3+1 0.499990 0.499990 0.640660 1.055272
Cu2   Cu    Cu3+1 0.500010 0.500010 0.359340 1.020512
H1    H     H_    0.045590 0.345640 0.333645 0.196503
H2    H     H_    0.441303 0.880028 0.292533 0.239522
H3    H     H_    0.378102 0.414828 0.129482 0.164721
H4    H     H_    0.621970 0.663247 0.244560 0.205930
H5    H     H_    0.776495 0.666277 0.892234 0.248744
H6    H     H_    0.374186 0.430955 0.875684 0.179858
H7    H     H_    0.047837 0.446034 0.734634 0.200314
N1    N     N_R   0.500800 0.501210 0.147910 -0.188158
N2    N     N_R   0.500830 0.501290 0.852040 -0.177532
O1    O     O_R   0.499990 0.319640 0.618810 -0.557906
O2    O     O_R   0.500000 0.319660 0.381240 -0.527255
O3    O     O_R   0.379070 0.499980 0.618770 -0.573369
O4    O     O_R   0.379080 0.500000 0.381190 -0.582425
O5    O     O_R   0.500000 0.680340 0.618760 -0.502887
O6    O     O_R   0.500010 0.680360 0.381190 -0.588921
O7    O     O_R   0.620920 0.500000 0.618810 -0.547667
O8    O     O_R   0.620930 0.500020 0.381230 -0.605841
Cl1   Cl    Cl    0.502972 0.850649 0.038554 -0.602122
O9    O     O_3   0.406429 0.763394 0.792566 -0.647637
H8    H     H_    0.367402 0.751842 0.713300 0.325109
O10   O     O_3   0.779203 0.698252 0.155146 -0.633434
H9    H     H_    0.763783 0.702248 0.254620 0.334110
Cl2   Cl    Cl    0.647705 0.729037 0.735332 -0.571179
O11   O     O_3   0.930420 0.275543 0.573434 -0.663666
H10   H     H_    0.978298 0.222986 0.590495 0.351775
O12   O     O_3   0.946692 0.562069 0.243731 -0.645731
H11   H     H_    0.998303 0.572869 0.185532 0.358940
O13   O     O_3   0.069674 0.727623 0.426895 -0.661099
H12   H     H_    0.021541 0.779426 0.408768 0.366028
Cl3   Cl    Cl    0.942678 0.697929 0.710515 -0.519455
Cl4   Cl    Cl    0.409605 0.127855 0.237416 -0.522422
Cl5   Cl    Cl    0.373688 0.203140 0.792044 -0.568977
O14   O     O_3   0.520359 0.135769 0.990484 -0.638751
H13   H     H_    0.551291 0.085131 0.056249 0.379236

loop_
_geom_bond_atom_site_label_1
_geom_bond_atom_site_label_2
_ccdc_geom_bond_type
C19   C23   S    
O9    H8    S    
C24   C25   A    
C21   O10   S    
O12   H11   S    
C7    C32   T    
C29   C33   S    
C9    C10   A    
C23   O6    A    
C2    C7    S    
C12   O3    A    
C4    C8    S    
O13   H12   S    
C6    O12   S    
Cu1   O5    S    
C12   O4    A    
C18   H2    S    
C9    Cl5   S    
C26   N1    A    
C28   N2    A    
C1    C16   S    
C21   C22   A    
C12   C32   S    
C11   C13   A    
C2    C34   S    
O10   H9    S    
C5    C6    S    
Cu2   O6    S    
C29   O8    A    
C24   Cl2   S    
Cu1   O3    S    
C14   C19   A    
C28   H6    S    
C17   C18   A    
C22   C24   A    
C8    C33   T    
C2    C31   S    
C34   H7    S    
C9    C15   A    
C30   C31   S    
C20   H4    S    
C16   C17   A    
O14   H13   S    
C1    O1    A    
C17   Cl4   S    
C2    C5    S    
Cu2   N1    S    
C10   C11   A    
C30   C34   S    
C15   C16   A    
C22   H5    S    
C10   O14   S    
C25   N2    A    
Cu1   O7    S    
C30   O11   S    
C20   C21   A    
C3    C4    S    
Cu2   O2    S    
C4    C6    S    
C18   C19   A    
C11   Cl1   S    
C27   H3    S    
C27   C28   A    
C3    Cl3   S    
C14   C15   A    
C1    O2    A    
C23   O5    A    
C6    C31   S    
Cu2   O8    S    
C3    C5    S    
C3    C34   S    
C13   O9    S    
C25   C26   A    
C13   C14   A    
Cu1   O1    S    
C27   N1    A    
C4    C30   S    
Cu2   O4    S    
Cu1   Cu2   S    
C5    O13   S    
C31   H1    S    
O11   H10   S    
C20   C26   A    
C29   O7    A    
Cu1   N2    S    
