data_mof_unit_3169.cif
_audit_creation_date              2012-12-11T16:20:25-0500
_audit_creation_method            fapswitch 2.2
_symmetry_space_group_name_H-M    P1
_symmetry_Int_Tables_number       1
_space_group_crystal_system       triclinic
_cell_length_a                    6.912802
_cell_length_b                    34.33201
_cell_length_c                    38.347623
_cell_angle_alpha                 99.575297
_cell_angle_beta                  89.391629
_cell_angle_gamma                 90.506292
_cell_volume                      8973.52233325

loop_
_atom_site_label
_atom_site_type_symbol
_atom_type_description
_atom_site_fract_x
_atom_site_fract_y
_atom_site_fract_z
_atom_type_partial_charge
O1    O     O_R   0.494320 0.461440 0.460990 -0.530844
O2    O     O_R   0.821450 0.462560 0.532500 -0.534049
O3    O     O_R   0.994330 0.538560 0.539010 -0.546227
C1    C     C_R   0.651133 0.453325 0.543345 0.742349
O4    O     O_R   0.823870 0.456770 0.460860 -0.520513
O5    O     O_R   0.996760 0.532730 0.466860 -0.541064
C2    C     C_R   0.655331 0.445561 0.448217 0.790328
O6    O     O_R   0.491880 0.467270 0.533140 -0.528220
O7    O     O_3   0.661650 0.524930 0.502050 -0.358125
V1    V     V_3+5 0.935500 0.495380 0.499620 1.587352
O8    O     O_R   0.326630 0.537440 0.467500 -0.517155
C3    C     C_R   0.159346 0.545450 0.455555 0.753837
O9    O     O_R   0.324210 0.543230 0.539140 -0.525918
C4    C     C_R   0.155207 0.554643 0.551671 0.744044
V2    V     V_3+5 0.435810 0.504620 0.500380 1.602066
O10   O     O_3   0.159790 0.475070 0.497950 -0.341144
C5    C     C_R   0.949932 0.828686 0.794607 0.595472
N1    N     N_R   0.037264 0.822970 0.825352 -0.560187
C6    C     C_R   0.134168 0.788586 0.827054 0.581237
C7    C     C_R   0.146606 0.758520 0.797210 -0.030914
C8    C     C_R   0.057940 0.764079 0.765531 -0.009558
C9    C     C_R   0.958371 0.799385 0.764141 -0.039981
C10   C     C_R   0.245325 0.723097 0.798297 -0.130712
C11   C     C_R   0.255984 0.693674 0.768368 -0.125636
C12   C     C_R   0.168720 0.698965 0.736548 -0.034669
C13   C     C_R   0.069551 0.734330 0.735128 -0.017095
C14   C     C_R   0.983049 0.740123 0.703308 -0.058576
C15   C     C_R   0.883479 0.775439 0.702264 -0.097960
C16   C     C_R   0.870937 0.804659 0.732315 -0.118705
C17   C     C_R   0.178844 0.669861 0.705966 0.620248
N2    N     N_R   0.095559 0.676084 0.675069 -0.549898
C18   C     C_R   0.999923 0.710501 0.673229 0.682660
O11   O     O_2   0.857073 0.862809 0.793324 -0.500130
O12   O     O_2   0.216937 0.783288 0.857606 -0.512408
H1    H     H_    0.314902 0.717978 0.822283 0.179238
O13   O     O_2   0.272298 0.635757 0.707033 -0.506068
O14   O     O_2   0.923499 0.716258 0.642296 -0.455440
H2    H     H_    0.814987 0.780650 0.678205 0.196386
C19   C     C_R   0.275679 0.645671 0.621311 0.290681
C20   C     C_R   0.292097 0.616430 0.590748 0.197676
C21   C     C_R   0.144563 0.587188 0.582850 -0.161906
C22   C     C_R   0.981921 0.588955 0.605484 -0.190748
H3    H     H_    0.866452 0.567302 0.600238 0.160418
C23   C     C_R   0.966479 0.618127 0.635465 -0.084736
H4    H     H_    0.840193 0.618644 0.652485 0.167932
C24   C     C_R   0.113073 0.646369 0.643762 0.265516
C25   C     C_R   0.197274 0.872324 0.870625 -0.065277
H5    H     H_    0.336414 0.863952 0.858580 0.129668
C26   C     C_R   0.188251 0.902128 0.900377 -0.167437
H6    H     H_    0.321718 0.916038 0.910669 0.132341
C27   C     C_R   0.009197 0.913954 0.916430 -0.051429
C28   C     C_R   0.839639 0.895034 0.901913 -0.160307
H7    H     H_    0.699290 0.903250 0.913496 0.133760
C29   C     C_R   0.849020 0.865187 0.872197 -0.070191
H8    H     H_    0.716847 0.850968 0.861594 0.130685
C30   C     C_R   0.027812 0.853595 0.856240 0.366578
C31   C     C_R   0.988319 0.864471 0.182261 0.678064
O15   O     O_2   0.922214 0.901694 0.191128 -0.475070
N3    N     N_R   0.042643 0.850639 0.147988 -0.546237
C32   C     C_R   0.105894 0.812645 0.138131 0.624207
C33   C     C_R   0.870527 0.873690 0.099472 -0.108966
C34   C     C_R   0.855311 0.898083 0.073702 0.254420
C35   C     C_R   0.165110 0.927984 0.092343 -0.219282
C36   C     C_R   0.179161 0.903465 0.117977 0.337772
C37   C     C_R   0.030760 0.876246 0.121792 0.262225
C38   C     C_R   0.069487 0.801192 0.198807 -0.050296
C39   C     C_R   0.001450 0.840088 0.208315 -0.064356
C40   C     C_R   0.943381 0.853295 0.243360 -0.091108
C41   C     C_R   0.118911 0.787136 0.163268 -0.043012
C42   C     C_R   0.003531 0.926030 0.069965 -0.167227
H9    H     H_    0.280972 0.948921 0.090171 0.180338
H10   H     H_    0.880660 0.882278 0.251136 0.192784
C43   C     C_R   0.152937 0.572247 0.428710 -0.115419
C44   C     C_R   0.088957 0.767988 0.287258 -0.083778
C45   C     C_R   0.130362 0.710486 0.240193 0.064723
C46   C     C_R   0.110881 0.726741 0.276726 0.039638
C47   C     C_R   0.114072 0.784053 0.323534 0.202551
C48   C     C_R   0.112720 0.759295 0.349506 0.300636
C49   C     C_R   0.109432 0.717455 0.339309 -0.175639
C50   C     C_R   0.116043 0.701575 0.302754 -0.090330
C51   C     C_R   0.127440 0.660285 0.292020 -0.010798
C52   C     C_R   0.128005 0.635285 0.317525 0.591749
N4    N     N_R   0.120453 0.650597 0.352774 -0.561824
C53   C     C_R   0.110075 0.690607 0.364032 0.660309
C54   C     C_R   0.977481 0.621428 0.402271 -0.041379
C55   C     C_R   0.988758 0.595903 0.427116 -0.169640
C56   C     C_R   0.306308 0.574574 0.404231 0.226579
C57   C     C_R   0.294420 0.600614 0.379788 -0.090834
C58   C     C_R   0.130643 0.624149 0.378487 0.299725
O16   O     O_2   0.102663 0.703964 0.399052 -0.461194
C59   C     C_R   0.050104 0.791604 0.260862 0.058475
C60   C     C_R   0.086270 0.776247 0.224799 0.075154
C61   C     C_R   0.136068 0.736049 0.214483 0.035632
C62   C     C_R   0.964063 0.829193 0.268988 -0.098322
H11   H     H_    0.849094 0.639099 0.401506 0.154461
H12   H     H_    0.905430 0.839834 0.295015 0.186491
O17   O     O_2   0.156331 0.799591 0.104141 -0.497358
C63   C     C_R   0.180428 0.748040 0.153678 -0.111602
C64   C     C_R   0.141160 0.669074 0.230573 -0.173237
C65   C     C_R   0.138343 0.644555 0.255968 -0.111518
O18   O     O_2   0.134854 0.595776 0.307104 -0.501147
C66   C     C_R   0.187240 0.722839 0.178664 -0.173596
H13   H     H_    0.238356 0.693323 0.169333 0.131871
C67   C     C_R   0.607712 0.311641 0.638611 0.607453
O19   O     O_2   0.603724 0.296025 0.603913 -0.490880
N5    N     N_R   0.620620 0.351697 0.648763 -0.564343
C68   C     C_R   0.625532 0.368331 0.683838 0.635627
C69   C     C_R   0.789824 0.400590 0.618593 -0.058192
C70   C     C_R   0.795741 0.425014 0.592854 -0.192641
C71   C     C_R   0.476517 0.401547 0.572867 0.222090
C72   C     C_R   0.471341 0.377532 0.599054 -0.099428
C73   C     C_R   0.627147 0.376846 0.622044 0.308020
C74   C     C_R   0.610663 0.302775 0.700244 -0.093927
C75   C     C_R   0.600823 0.286563 0.664013 -0.037034
C76   C     C_R   0.579977 0.245655 0.653867 -0.098093
C77   C     C_R   0.621570 0.344292 0.710644 -0.113151
C78   C     C_R   0.639582 0.426164 0.569760 -0.110165
H14   H     H_    0.561388 0.232599 0.626377 0.191766
C79   C     C_R   0.515951 0.072067 0.928612 -0.117384
C80   C     C_R   0.631313 0.210360 0.740602 -0.078046
C81   C     C_R   0.575523 0.267304 0.787560 0.083049
C82   C     C_R   0.594429 0.225832 0.776553 0.043161
C83   C     C_R   0.694232 0.170621 0.731904 0.203154
C84   C     C_R   0.671407 0.144407 0.756383 0.305980
C85   C     C_R   0.604809 0.158686 0.791345 -0.172389
C86   C     C_R   0.578560 0.199827 0.801730 -0.091866
C87   C     C_R   0.536036 0.215125 0.837422 -0.009031
C88   C     C_R   0.520649 0.189436 0.862274 0.587651
N6    N     N_R   0.538411 0.149550 0.851845 -0.561188
C89   C     C_R   0.572442 0.133839 0.817060 0.666215
C90   C     C_R   0.686533 0.099078 0.881775 -0.095946
C91   C     C_R   0.680497 0.073061 0.906248 0.228589
C92   C     C_R   0.359434 0.096989 0.924707 -0.177647
C93   C     C_R   0.365686 0.122224 0.899562 -0.050222
C94   C     C_R   0.529829 0.123619 0.877995 0.300595
O20   O     O_2   0.570155 0.094274 0.807583 -0.455253
C95   C     C_R   0.611388 0.235705 0.715034 0.073951
C96   C     C_R   0.608233 0.277218 0.725969 0.072716
C97   C     C_R   0.600071 0.293178 0.762351 -0.013858
C98   C     C_R   0.581172 0.220800 0.679015 -0.093042
H15   H     H_    0.813576 0.099870 0.865115 0.165681
O21   O     O_2   0.631214 0.407973 0.692419 -0.469291
C99   C     C_R   0.627870 0.359791 0.747297 0.328727
H16   H     H_    0.922506 0.443437 0.591289 0.159992
C100  C     C_R   0.530727 0.281429 0.823421 -0.166104
C101  C     C_R   0.511721 0.255833 0.847784 -0.111633
O22   O     O_2   0.490284 0.204319 0.896720 -0.506898
C102  C     C_R   0.615532 0.334502 0.772257 -0.204450
H17   H     H_    0.503582 0.312174 0.833319 0.138917
H18   H     H_    0.231352 0.097089 0.941227 0.184254
H19   H     H_    0.242314 0.140663 0.896830 0.150147
C103  C     C_R   0.546199 0.167105 0.207208 0.583904
N7    N     N_R   0.552961 0.177327 0.174194 -0.565294
C104  C     C_R   0.570713 0.216094 0.169851 0.649319
C105  C     C_R   0.580462 0.246865 0.199594 -0.122040
C106  C     C_R   0.573307 0.236335 0.233795 -0.055886
C107  C     C_R   0.556683 0.196254 0.237575 -0.018081
C108  C     C_R   0.597007 0.287618 0.196820 0.310671
C109  C     C_R   0.605965 0.316287 0.227344 -0.152905
C110  C     C_R   0.598988 0.305916 0.261167 -0.090409
C111  C     C_R   0.582670 0.265866 0.264451 -0.013986
C112  C     C_R   0.575736 0.255296 0.298440 -0.031322
C113  C     C_R   0.559147 0.215257 0.301650 -0.123374
C114  C     C_R   0.549719 0.186133 0.271625 -0.121694
C115  C     C_R   0.608936 0.334804 0.291919 0.610109
N8    N     N_R   0.602325 0.324087 0.324821 -0.557599
C116  C     C_R   0.585516 0.285118 0.328475 0.599752
O23   O     O_2   0.527256 0.128776 0.210669 -0.505348
O24   O     O_2   0.580321 0.224439 0.136790 -0.452455
H20   H     H_    0.618506 0.347050 0.224396 0.205140
O25   O     O_2   0.627258 0.373264 0.288904 -0.500549
O26   O     O_2   0.576912 0.275215 0.361064 -0.491137
H21   H     H_    0.536868 0.155587 0.275227 0.184446
C117  C     C_R   0.776256 0.355507 0.378267 -0.099962
H22   H     H_    0.889182 0.333716 0.372024 0.162494
C118  C     C_R   0.792166 0.384545 0.408525 0.225437
C119  C     C_R   0.645318 0.413377 0.416879 -0.120567
C120  C     C_R   0.484226 0.411453 0.394396 -0.155858
H23   H     H_    0.369266 0.432911 0.399833 0.170250
C121  C     C_R   0.469898 0.382256 0.364351 -0.054975
C122  C     C_R   0.616084 0.354145 0.355981 0.308402
C123  C     C_R   0.377245 0.144961 0.121288 -0.095829
H24   H     H_    0.264038 0.166705 0.127446 0.166233
C124  C     C_R   0.361093 0.115637 0.091247 0.227167
C125  C     C_R   0.508495 0.086904 0.082967 -0.119159
C126  C     C_R   0.670344 0.089236 0.105311 -0.182173
H25   H     H_    0.785841 0.067898 0.099918 0.160214
C127  C     C_R   0.685023 0.118753 0.135116 -0.048519
H26   H     H_    0.811087 0.119875 0.151787 0.145047
C128  C     C_R   0.538337 0.146765 0.143398 0.307069
O27   O     O_R   0.662230 0.032770 0.966890 -0.518255
O28   O     O_R   0.330090 0.043230 0.039150 -0.523397
O29   O     O_R   0.157350 0.967260 0.033130 -0.542075
C129  C     C_R   0.498583 0.054509 0.051774 0.742902
O30   O     O_R   0.332650 0.037450 0.967510 -0.531883
O31   O     O_R   0.159930 0.961430 0.960980 -0.543518
C130  C     C_R   0.502821 0.045447 0.955573 0.760234
O32   O     O_R   0.659640 0.038600 0.039040 -0.539793
O33   O     O_3   0.492510 0.975090 0.997960 -0.365835
V3    V     V_3+5 0.218600 0.004620 0.000380 1.559344
O34   O     O_R   0.830050 0.956730 0.960830 -0.537667
C131  C     C_R   0.999206 0.945999 0.947835 0.752438
O35   O     O_R   0.827490 0.962520 0.032470 -0.522139
C132  C     C_R   0.995268 0.953324 0.043472 0.753054
V4    V     V_3+5 0.718310 0.995320 0.999580 1.562007
O36   O     O_3   0.994270 0.024900 0.002040 -0.344386
Br1   Br    Br    0.403957 0.907512 0.147212 -0.452562
H27   H     H_    0.868717 0.594854 0.445328 0.180104
Br2   Br    Br    0.121914 0.785006 0.398495 -0.240425
Br3   Br    Br    0.206487 0.837938 0.337423 -0.386808
H28   H     H_    0.333471 0.666829 0.770231 0.179868
Br4   Br    Br    0.633031 0.889646 0.043616 -0.488207
H29   H     H_    0.757256 0.852340 0.102093 0.185391
H30   H     H_    0.221901 0.736539 0.126629 0.177202
H31   H     H_    0.145488 0.654598 0.203379 0.131182
Br5   Br    Br    0.530386 0.541315 0.400681 -0.545850
H32   H     H_    0.145510 0.612946 0.247082 0.179577
H33   H     H_    0.412854 0.602316 0.361368 0.162552
Br6   Br    Br    0.261127 0.396960 0.541146 -0.448983
H34   H     H_    0.345819 0.359009 0.601416 0.162678
Br7   Br    Br    0.898096 0.038342 0.905346 -0.523064
Br8   Br    Br    0.751928 0.090182 0.741395 -0.254601
Br9   Br    Br    0.861583 0.154481 0.691142 -0.409628
H35   H     H_    0.551969 0.189812 0.670018 0.188149
H36   H     H_    0.912084 0.400170 0.635948 0.145696
Br10  Br    Br    0.654213 0.415016 0.766851 -0.373473
H37   H     H_    0.793151 0.831470 0.730458 0.187974
H38   H     H_    0.476777 0.268229 0.874951 0.181416
H39   H     H_    0.624737 0.348116 0.799628 0.160899
Br11  Br    Br    0.607774 0.308007 0.152999 -0.337875
H40   H     H_    0.553414 0.206245 0.327401 0.186353
Br12  Br    Br    0.472889 0.685523 0.632819 -0.385130
Br13  Br    Br    0.013710 0.381236 0.437747 -0.443420
H41   H     H_    0.344587 0.381489 0.347537 0.146631
Br14  Br    Br    0.138668 0.118529 0.062139 -0.496166
Br15  Br    Br    0.511495 0.619018 0.559563 -0.424554

loop_
_geom_bond_atom_site_label_1
_geom_bond_atom_site_label_2
_ccdc_geom_bond_type
C115  O25   S    
C69   H36   S    
C56   C57   A    
C45   C46   A    
C86   C87   A    
C109  H20   S    
C21   C22   A    
C29   H8    S    
C6    C7    A    
C53   O16   S    
C125  C129  S    
O31   V3    S    
C88   N6    A    
C108  Br11  S    
C67   N5    A    
C100  C101  A    
C125  C126  A    
C116  O26   S    
C70   C78   A    
C83   C84   A    
C25   C26   A    
N5    C73   S    
C47   C48   A    
C23   H4    S    
O35   V4    S    
C34   C42   A    
C13   C14   A    
C115  N8    A    
O29   C132  A    
C44   C46   A    
N4    C53   A    
C15   C16   A    
C9    C16   A    
C74   C75   A    
C90   C94   A    
O5    C3    A    
C17   N2    A    
C50   C51   A    
N2    C18   A    
C68   C77   A    
C31   N3    A    
C38   C41   A    
N5    C68   A    
V2    O10   S    
O33   V4    S    
C69   C70   A    
C2    C119  S    
C127  C128  A    
N1    C6    A    
O27   V4    S    
C1    O6    A    
C123  H24   S    
C43   C56   A    
N6    C94   S    
O8    V2    S    
C85   C89   A    
C109  C110  A    
C80   C82   A    
C76   C98   A    
C26   C27   A    
C44   C47   A    
C5    N1    A    
C65   H32   S    
C56   Br5   S    
C7    C10   A    
O1    V2    S    
C34   Br4   S    
O7    V1    S    
C90   H15   S    
C80   C83   A    
C20   Br15  S    
C74   C77   A    
C41   C63   A    
C38   C39   A    
C63   H30   S    
C124  C125  A    
C121  H41   S    
N3    C32   A    
C79   C130  S    
C8    C9    A    
O32   V4    S    
C66   H13   S    
N8    C122  S    
C22   C23   A    
C31   C39   A    
C117  C122  A    
C3    C43   S    
C67   O19   S    
C103  O23   S    
C11   H28   S    
C28   C29   A    
C51   C52   A    
C117  C118  A    
N7    C128  S    
C42   C132  S    
C99   C102  A    
N4    C58   S    
C95   C98   A    
C29   C30   A    
C97   C102  A    
C105  C106  A    
C18   O14   S    
C27   C28   A    
C33   H29   S    
C120  H23   S    
C11   C12   A    
C101  H38   S    
C32   O17   S    
C55   H27   S    
C71   C72   A    
O4    C2    A    
C54   C58   A    
C48   C49   A    
C98   H35   S    
C38   C60   A    
C23   C24   A    
C12   C13   A    
V4    O36   S    
C83   Br9   S    
N2    C24   S    
C40   C62   A    
C69   C73   A    
C104  O24   S    
C127  H26   S    
O28   C129  A    
C44   C59   A    
C82   C86   A    
O2    C1    A    
C39   C40   A    
C92   C93   A    
C124  Br14  S    
C49   C53   A    
C63   C66   A    
C77   C99   A    
C49   C50   A    
C25   H5    S    
C48   Br2   S    
C35   C42   A    
C15   H2    S    
C40   H10   S    
C76   H14   S    
C85   C86   A    
C45   C64   A    
C79   C91   A    
C81   C82   A    
C114  H21   S    
C5    O11   S    
C79   C92   A    
C110  C115  A    
C103  N7    A    
C68   O21   S    
C62   H12   S    
C71   Br6   S    
C107  C114  A    
C104  C105  A    
C93   C94   A    
O3    C4    A    
C47   Br3   S    
C119  C120  A    
C19   C24   A    
C67   C75   A    
C20   C21   A    
C84   Br8   S    
C106  C111  A    
C52   N4    A    
O6    V2    S    
C10   H1    S    
C4    C21   S    
C108  C109  A    
N8    C116  A    
C81   C100  A    
C1    C78   S    
C46   C50   A    
C72   H34   S    
C16   H37   S    
C99   Br10  S    
O31   C131  A    
C90   C91   A    
O2    V1    S    
C57   H33   S    
C59   C60   A    
C121  C122  A    
C45   C61   A    
N6    C89   A    
C12   C17   A    
C103  C107  A    
C118  C119  A    
V3    O36   S    
C72   C73   A    
C14   C18   A    
O1    C2    A    
C118  Br13  S    
C89   O20   S    
C92   H18   S    
O27   C130  A    
C35   H9    S    
C35   C36   A    
C6    O12   S    
C54   C55   A    
C61   C66   A    
O5    V1    S    
C120  C121  A    
O8    C3    A    
C27   C131  S    
C88   O22   S    
C75   C76   A    
C36   Br1   S    
C102  H39   S    
C51   C65   A    
N1    C30   S    
C112  C113  A    
O29   V3    S    
C95   C96   A    
C113  H40   S    
C5    C9    A    
O34   C131  A    
C17   O13   S    
C36   C37   A    
C81   C97   A    
O9    V2    S    
O7    V2    S    
C19   Br12  S    
O3    V1    S    
C111  C112  A    
C64   C65   A    
N3    C37   S    
C59   C62   A    
C54   H11   S    
C31   O15   S    
C129  O32   A    
C64   H31   S    
C32   C41   A    
C71   C78   A    
C93   H19   S    
C8    C13   A    
C60   C61   A    
C52   O18   S    
C91   Br7   S    
C70   H16   S    
O33   V3    S    
O28   V3    S    
C33   C34   A    
O30   V3    S    
C110  C111  A    
C123  C124  A    
C43   C55   A    
C126  H25   S    
C113  C114  A    
C96   C97   A    
C10   C11   A    
C112  C116  A    
C19   C20   A    
C33   C37   A    
O4    V1    S    
C106  C107  A    
C57   C58   A    
C7    C8    A    
C26   H6    S    
C22   H3    S    
C14   C15   A    
O34   V4    S    
C74   C96   A    
C25   C30   A    
V1    O10   S    
C80   C95   A    
C123  C128  A    
O35   C132  A    
O30   C130  A    
N7    C104  A    
O9    C4    A    
C126  C127  A    
C87   C101  A    
C100  H17   S    
C87   C88   A    
C28   H7    S    
C84   C85   A    
C105  C108  A    
C117  H22   S    
