data_mof_unit_2636.cif
_audit_creation_date              2012-12-10T16:57:03-0500
_audit_creation_method            fapswitch 2.2
_symmetry_space_group_name_H-M    P1
_symmetry_Int_Tables_number       1
_space_group_crystal_system       triclinic
_cell_length_a                    7.775057
_cell_length_b                    8.581991
_cell_length_c                    16.743169
_cell_angle_alpha                 91.426649
_cell_angle_beta                  81.507423
_cell_angle_gamma                 93.504655
_cell_volume                      1102.73681764

loop_
_atom_site_label
_atom_site_type_symbol
_atom_type_description
_atom_site_fract_x
_atom_site_fract_y
_atom_site_fract_z
_atom_type_partial_charge
C1    C     C_R   0.546005 0.794679 0.497866 0.973718
C2    C     C_R   0.352249 0.398031 0.238283 -0.212843
C3    C     C_R   0.581737 0.397437 0.856342 -0.193510
C4    C     C_R   0.342948 0.331067 0.163306 -0.207443
C5    C     C_R   0.421653 0.418300 0.905092 0.173285
C6    C     C_R   0.495438 0.301010 0.111052 0.181368
C7    C     C_R   0.280181 0.471839 0.871491 0.136945
C8    C     C_R   0.659097 0.323480 0.137804 0.151707
C9    C     C_R   0.303001 0.502626 0.789265 -0.230927
C10   C     C_R   0.667007 0.389935 0.214423 -0.246160
C11   C     C_2   0.410067 0.400700 0.991960 -0.268252
C12   C     C_R   0.454000 0.205315 0.502065 0.968835
C13   C     C_2   0.483869 0.286322 0.025004 -0.276145
C14   C     C_3   0.100922 0.486736 0.919508 -0.467227
C15   C     C_3   0.051116 0.657051 0.928270 -0.344596
C16   C     C_3   0.874921 0.670520 0.981349 -0.890122
C17   C     C_3   0.826151 0.286001 0.084739 -0.469211
C18   C     C_3   0.861072 0.113253 0.089977 -0.341319
C19   C     C_3   0.021395 0.071805 0.030988 -0.902916
C20   C     C_2   0.570305 0.958050 0.496640 -0.386428
C21   C     C_2   0.429712 0.041954 0.503178 -0.380966
C22   C     C_R   0.478304 0.500271 0.654165 0.870120
C23   C     C_R   0.518973 0.487744 0.346206 0.870497
C24   C     C_R   0.463309 0.481925 0.740950 -0.064144
C25   C     C_R   0.514384 0.431779 0.263691 -0.056502
C26   C     C_R   0.602884 0.429990 0.774880 -0.212419
H1    H     H_    0.727387 0.411896 0.738381 0.162662
H2    H     H_    0.296822 0.991236 0.509396 0.179765
H3    H     H_    0.022761 0.381422 0.439667 0.185743
H4    H     H_    0.977245 0.618588 0.560323 0.188850
H5    H     H_    0.773775 0.592394 0.958358 0.273441
H6    H     H_    0.883899 0.639382 0.044533 0.261550
H7    H     H_    0.833931 0.791940 0.980775 0.258279
H8    H     H_    0.152214 0.728117 0.955719 0.223516
H9    H     H_    0.043324 0.704771 0.867902 0.224760
H10   H     H_    0.004395 0.417090 0.888482 0.196379
H11   H     H_    0.093387 0.437243 0.980181 0.211203
H12   H     H_    0.231510 0.423556 0.276142 0.160506
H13   H     H_    0.994697 0.077805 0.967796 0.261314
H14   H     H_    0.134331 0.152817 0.038597 0.275347
H15   H     H_    0.055987 0.951911 0.042706 0.259339
H16   H     H_    0.882617 0.087862 0.152432 0.227842
H17   H     H_    0.746920 0.038932 0.075799 0.221378
H18   H     H_    0.820092 0.316283 0.021285 0.214147
H19   H     H_    0.936822 0.358104 0.104013 0.188680
H20   H     H_    0.792091 0.409230 0.235391 0.152787
H21   H     H_    0.193460 0.539607 0.762756 0.159348
H22   H     H_    0.552969 0.197518 0.988104 0.166329
H23   H     H_    0.347439 0.491673 0.030075 0.170787
H24   H     H_    0.216693 0.313427 0.143695 0.144151
H25   H     H_    0.692020 0.358927 0.881551 0.131994
H26   H     H_    0.703195 0.008774 0.490409 0.180003
N1    N     N_2   0.953500 0.457650 0.478520 -0.176561
N2    N     N_2   0.046500 0.542350 0.521480 -0.176166
O1    O     O_R   0.388470 0.738640 0.505270 -0.609403
O2    O     O_R   0.611530 0.261360 0.494730 -0.612163
O3    O     O_R   0.679650 0.711510 0.491500 -0.626804
O4    O     O_R   0.320350 0.288490 0.508500 -0.629687
O5    O     O_R   0.337210 0.515200 0.623500 -0.622590
O6    O     O_R   0.662790 0.484800 0.376500 -0.620631
O7    O     O_R   0.628380 0.488060 0.609730 -0.627532
O8    O     O_R   0.371620 0.511940 0.390270 -0.627515
Zn1   Zn    Zn3+2 0.305580 0.518120 0.509190 0.936830
Zn2   Zn    Zn3+2 0.694420 0.481880 0.490810 0.936777

loop_
_geom_bond_atom_site_label_1
_geom_bond_atom_site_label_2
_ccdc_geom_bond_type
C10   H20   S    
O7    Zn2   S    
C2    C4    A    
O2    Zn2   S    
C9    C24   A    
C5    C11   S    
O8    Zn1   S    
C11   H23   S    
C1    O3    A    
C16   H7    S    
C16   H6    S    
C11   C13   D    
C2    H12   S    
C15   H8    S    
O5    Zn1   S    
C8    C17   S    
C4    H24   S    
O6    Zn2   S    
C12   O4    A    
C23   C25   S    
C17   C18   S    
C1    O1    A    
C17   H18   S    
C20   H26   S    
N1    N2    D    
C16   H5    S    
H4    N2    S    
C6    C13   S    
C26   H1    S    
C12   O2    A    
H3    N1    S    
C19   H13   S    
C10   C25   A    
C4    C6    A    
C21   H2    S    
C24   C26   A    
C9    H21   S    
C2    C25   A    
C7    C14   S    
C14   H10   S    
C23   O6    A    
N1    Zn2   S    
C22   C24   S    
N2    Zn1   S    
C15   C16   S    
C7    C9    A    
C22   O7    A    
C22   O5    A    
C20   C21   D    
O3    Zn2   S    
C8    C10   A    
C18   C19   S    
C19   H14   S    
C15   H9    S    
O4    Zn1   S    
C5    C7    A    
C3    H25   S    
C14   C15   S    
C1    C20   S    
C6    C8    A    
C23   O8    A    
C18   H16   S    
C3    C5    A    
C18   H17   S    
C12   C21   S    
C3    C26   A    
C19   H15   S    
C17   H19   S    
C14   H11   S    
C13   H22   S    
O1    Zn1   S    
