data_mof_unit_4618.cif
_audit_creation_date              2012-12-10T18:47:04-0500
_audit_creation_method            fapswitch 2.2
_symmetry_space_group_name_H-M    P1
_symmetry_Int_Tables_number       1
_space_group_crystal_system       triclinic
_cell_length_a                    10.851101
_cell_length_b                    9.866183
_cell_length_c                    14.923758
_cell_angle_alpha                 90.0187
_cell_angle_beta                  91.853941
_cell_angle_gamma                 90.034772
_cell_volume                      1596.88511101

loop_
_atom_site_label
_atom_site_type_symbol
_atom_type_description
_atom_site_fract_x
_atom_site_fract_y
_atom_site_fract_z
_atom_type_partial_charge
C1    C     C_R   0.260231 0.499950 0.506758 1.038097
C2    C     C_R   0.127169 0.499820 0.513001 -0.359374
C3    C     C_R   0.574529 0.072050 0.559130 0.350245
C4    C     C_R   0.425383 0.928118 0.440948 0.349039
C5    C     C_R   0.425492 0.071893 0.440855 0.350373
C6    C     C_R   0.574572 0.928278 0.559079 0.349261
C7    C     C_R   0.498332 0.499954 0.327298 1.005666
C8    C     C_R   0.501680 0.499998 0.672702 1.005684
C9    C     C_R   0.615545 0.510801 0.815396 0.372289
C10   C     C_R   0.384425 0.510525 0.184613 0.372322
C11   C     C_R   0.502877 0.500669 0.768025 -0.224739
C12   C     C_R   0.739786 0.500034 0.493293 1.037986
C13   C     C_R   0.497112 0.500524 0.231974 -0.224753
C14   C     C_R   0.390368 0.497586 0.809909 0.304091
C15   C     C_R   0.609612 0.497512 0.190084 0.303904
C16   C     C_R   0.388570 0.517355 0.902387 -0.073023
C17   C     C_R   0.611419 0.517355 0.097621 -0.072982
C18   C     C_R   0.501287 0.513950 0.952945 -0.068416
C19   C     C_R   0.498694 0.513920 0.047063 -0.068364
C20   C     C_R   0.616297 0.508346 0.909657 -0.084617
C21   C     C_R   0.383673 0.508180 0.090345 -0.084667
C22   C     C_R   0.277246 0.533703 0.946287 0.198606
C23   C     C_R   0.273313 0.507507 0.037439 0.370068
C24   C     C_R   0.722761 0.533776 0.053725 0.198483
C25   C     C_R   0.726662 0.507698 0.962549 0.370189
C26   C     C_R   0.062484 0.375563 0.509779 0.365692
C27   C     C_R   0.937583 0.624282 0.490362 0.359798
C28   C     C_R   0.937359 0.375737 0.489592 0.365751
C29   C     C_R   0.062650 0.624093 0.510735 0.359732
C30   C     C_R   0.872867 0.500060 0.487174 -0.359679
Cl1   Cl    Cl    0.749920 0.539418 0.752904 -0.420487
Cl2   Cl    Cl    0.131442 0.781619 0.542028 -0.340577
Cl3   Cl    Cl    0.671468 0.159683 0.636227 -0.361782
Cl4   Cl    Cl    0.327967 0.840942 0.364172 -0.357402
Cl5   Cl    Cl    0.328777 0.159330 0.363615 -0.361500
Cl6   Cl    Cl    0.671686 0.841314 0.636051 -0.356937
Cl7   Cl    Cl    0.249973 0.538568 0.247170 -0.420481
Cl8   Cl    Cl    0.256788 0.446971 0.746272 -0.494566
Cl9   Cl    Cl    0.743110 0.446714 0.253652 -0.494270
Cl10  Cl    Cl    0.132202 0.443938 0.075105 -0.354712
Cl11  Cl    Cl    0.867739 0.444314 0.924775 -0.354808
Cl12  Cl    Cl    0.131077 0.217402 0.539596 -0.319435
Cl13  Cl    Cl    0.869155 0.782353 0.460182 -0.339645
Cl14  Cl    Cl    0.868476 0.218032 0.458769 -0.319907
I1    I     I_    0.128189 0.650159 0.888928 0.080175
I2    I     I_    0.872086 0.649933 0.111227 0.079841
N1    N     N_R   0.500000 0.857200 0.500000 -0.209901
N2    N     N_R   0.500000 0.142800 0.500000 -0.208141
O1    O     O_R   0.316770 0.614620 0.499990 -0.559123
O2    O     O_R   0.683230 0.385380 0.500010 -0.556863
O3    O     O_R   0.683230 0.614620 0.500010 -0.559366
O4    O     O_R   0.316770 0.385380 0.499990 -0.557005
O5    O     O_R   0.499980 0.614680 0.367850 -0.584602
O6    O     O_R   0.500020 0.385320 0.632150 -0.569879
O7    O     O_R   0.500020 0.614680 0.632150 -0.584270
O8    O     O_R   0.499980 0.385320 0.367850 -0.569568
Zn1   Zn    Zn3+2 0.500000 0.653120 0.500000 1.138236
Zn2   Zn    Zn3+2 0.500000 0.346880 0.500000 1.150312

loop_
_geom_bond_atom_site_label_1
_geom_bond_atom_site_label_2
_ccdc_geom_bond_type
C12   O2    A    
C10   C13   A    
N2    Zn2   S    
O3    Zn1   S    
N1    Zn1   S    
C4    Cl4   S    
C9    C20   A    
C26   C28   A    
C8    C11   S    
C3    C6    A    
C24   I2    S    
C9    Cl1   S    
C22   I1    S    
C21   C23   A    
O1    Zn1   S    
C2    C26   A    
O7    Zn1   S    
C27   C30   A    
C9    C11   A    
C15   Cl9   S    
O4    Zn2   S    
C7    O8    A    
C10   Cl7   S    
C5    Cl5   S    
C8    O7    A    
C28   C30   A    
C5    N2    A    
O8    Zn2   S    
C1    C2    S    
C29   Cl2   S    
C18   C20   A    
C13   C15   A    
C10   C21   A    
O6    Zn2   S    
C1    O4    A    
C14   C16   A    
C17   C24   A    
C27   C29   A    
C6    N1    A    
C7    O5    A    
C8    O6    A    
C14   Cl8   S    
O2    Zn2   S    
C27   Cl13  S    
C3    N2    A    
C7    C13   S    
C12   O3    A    
C2    C29   A    
C24   C25   A    
C26   Cl12  S    
C16   C18   A    
C18   C19   A    
C20   C25   A    
C25   Cl11  S    
C11   C14   A    
C15   C17   A    
C3    Cl3   S    
C22   C23   A    
C17   C19   A    
C16   C22   A    
C12   C30   S    
C1    O1    A    
C28   Cl14  S    
C23   Cl10  S    
C6    Cl6   S    
C4    C5    A    
C19   C21   A    
C4    N1    A    
O5    Zn1   S    
