data_mof_unit_311.cif
_audit_creation_date              2012-12-10T17:16:38-0500
_audit_creation_method            fapswitch 2.2
_symmetry_space_group_name_H-M    P1
_symmetry_Int_Tables_number       1
_space_group_crystal_system       triclinic
_cell_length_a                    10.070224
_cell_length_b                    10.646773
_cell_length_c                    10.83511
_cell_angle_alpha                 89.910623
_cell_angle_beta                  95.096832
_cell_angle_gamma                 82.157173
_cell_volume                      1146.16362702

loop_
_atom_site_label
_atom_site_type_symbol
_atom_type_description
_atom_site_fract_x
_atom_site_fract_y
_atom_site_fract_z
_atom_type_partial_charge
C1    C     C_R   0.443806 0.505163 0.267335 0.945268
C2    C     C_R   0.506217 0.738955 0.517432 0.890542
C3    C     C_R   0.706589 0.085105 0.375143 -0.127297
C4    C     C_R   0.292977 0.915254 0.623904 -0.127725
C5    C     C_R   0.833170 0.012859 0.377520 -0.158809
C6    C     C_R   0.166389 0.987533 0.621362 -0.158773
C7    C     C_R   0.860668 0.901667 0.448036 -0.152832
C8    C     C_R   0.138991 0.098672 0.550759 -0.154049
C9    C     C_R   0.758375 0.857941 0.507670 -0.126337
C10   C     C_R   0.241388 0.142314 0.491215 -0.126765
C11   C     C_R   0.626159 0.924603 0.496528 0.091087
C12   C     C_R   0.556033 0.488219 0.732658 0.942530
C13   C     C_R   0.373566 0.075591 0.502503 0.091705
C14   C     C_R   0.605320 0.046231 0.443521 0.090114
C15   C     C_R   0.394355 0.953993 0.555557 0.089101
C16   C     C_R   0.514335 0.873699 0.536427 -0.267760
C17   C     C_R   0.485435 0.126507 0.462818 -0.265066
C18   C     C_2   0.411565 0.497098 0.135716 -0.383582
C19   C     C_2   0.587654 0.470702 0.864293 -0.377525
C20   C     C_2   0.511553 0.459411 0.065944 -0.155953
C21   C     C_2   0.486550 0.463355 0.934056 -0.144051
C22   C     C_2   0.071699 0.493296 0.486661 -0.132060
C23   C     C_2   0.928280 0.506779 0.513279 -0.130751
C24   C     C_R   0.493727 0.261125 0.482359 0.884822
H1    H     H_    0.039035 0.152084 0.543495 0.147320
H2    H     H_    0.614917 0.433541 0.105454 0.184242
H3    H     H_    0.691267 0.465463 0.904205 0.147869
H4    H     H_    0.308481 0.523096 0.095801 0.149565
H5    H     H_    0.894475 0.566666 0.588279 0.148212
H6    H     H_    0.105483 0.433482 0.411607 0.148713
H7    H     H_    0.877863 0.392453 0.378075 0.151182
H8    H     H_    0.122152 0.607471 0.621981 0.152093
H9    H     H_    0.960644 0.848304 0.455208 0.147411
H10   H     H_    0.688309 0.171270 0.319434 0.140815
H11   H     H_    0.311173 0.829206 0.679774 0.143604
H12   H     H_    0.910920 0.045021 0.327513 0.134893
H13   H     H_    0.088574 0.955458 0.671347 0.135307
H14   H     H_    0.784245 0.773687 0.564998 0.136250
H15   H     H_    0.215695 0.226603 0.433899 0.136367
H16   H     H_    0.382658 0.468911 0.894550 0.188062
N1    N     N_2   0.157300 0.551390 0.551120 -0.196034
N2    N     N_2   0.842700 0.448610 0.448880 -0.195413
O1    O     O_R   0.568940 0.489660 0.307530 -0.615234
O2    O     O_R   0.431060 0.510340 0.692470 -0.618061
O3    O     O_R   0.348880 0.522640 0.340350 -0.615440
O4    O     O_R   0.651120 0.477360 0.659650 -0.616018
O5    O     O_R   0.610030 0.300280 0.483580 -0.609560
O6    O     O_R   0.389970 0.699720 0.516420 -0.607213
O7    O     O_R   0.389970 0.333270 0.516400 -0.611158
O8    O     O_R   0.610030 0.666730 0.483600 -0.608375
Zn1   Zn    Zn3+2 0.646940 0.477980 0.478080 0.932837
Zn2   Zn    Zn3+2 0.353060 0.522020 0.521920 0.931929

loop_
_geom_bond_atom_site_label_1
_geom_bond_atom_site_label_2
_ccdc_geom_bond_type
C6    C8    A    
H8    N1    S    
H7    N2    S    
C3    C14   A    
C2    C16   S    
C11   C16   A    
N1    Zn2   S    
O3    Zn2   S    
C13   C17   A    
N2    Zn1   S    
O7    Zn2   S    
C1    O3    A    
O2    Zn2   S    
C4    C15   A    
C13   C15   A    
O8    Zn1   S    
C6    H13   S    
C12   O2    A    
C8    H1    S    
C7    H9    S    
C14   C17   A    
O1    Zn1   S    
C1    C18   S    
C23   N2    D    
C20   H2    S    
C23   H5    S    
C12   C19   S    
C4    C6    A    
C9    H14   S    
C19   C21   D    
C18   C20   D    
C9    C11   A    
C2    O8    A    
C11   C14   A    
C4    H11   S    
C22   N1    D    
C15   C16   A    
C17   C24   S    
C5    H12   S    
C7    C9    A    
O6    Zn2   S    
C18   H4    S    
C20   C21   S    
C12   O4    A    
C24   O7    A    
C5    C7    A    
C22   C23   S    
C10   H15   S    
O5    Zn1   S    
C22   H6    S    
C3    H10   S    
C2    O6    A    
C24   O5    A    
O4    Zn1   S    
C1    O1    A    
C8    C10   A    
C19   H3    S    
C3    C5    A    
C10   C13   A    
C21   H16   S    
