data_mof_unit_3235.cif
_audit_creation_date              2013-03-05T16:30:50-0500
_audit_creation_method            fapswitch 2.2
_symmetry_space_group_name_H-M    P1
_symmetry_Int_Tables_number       1
_space_group_crystal_system       triclinic
_cell_length_a                    11.06689
_cell_length_b                    10.806858
_cell_length_c                    9.546319
_cell_angle_alpha                 89.798821
_cell_angle_beta                  102.956979
_cell_angle_gamma                 90.33334
_cell_volume                      1112.63215265

loop_
_atom_site_label
_atom_site_type_symbol
_atom_site_description
_atom_site_fract_x
_atom_site_fract_y
_atom_site_fract_z
_atom_type_partial_charge
O1    O     O_R   0.500000 0.319640 0.618810 -0.582175
O2    O     O_R   0.500010 0.319680 0.381230 -0.549332
C1    C     C_R   0.505843 0.262562 0.501736 0.836498
O3    O     O_R   0.320680 0.500000 0.575130 -0.605105
O4    O     O_R   0.320690 0.500040 0.337550 -0.547470
C2    C     C_R   0.262634 0.499385 0.441201 0.806796
Cu1   Cu    Cu3+1 0.499990 0.499980 0.640670 0.990074
Cu2   Cu    Cu3+1 0.500010 0.500020 0.359330 1.043897
O5    O     O_R   0.499990 0.680320 0.618770 -0.588294
O6    O     O_R   0.500000 0.680360 0.381190 -0.585680
O7    O     O_R   0.679310 0.499960 0.662450 -0.577198
O8    O     O_R   0.679320 0.500000 0.424870 -0.544603
C3    C     C_R   0.501835 0.737619 0.500459 0.869495
C4    C     C_R   0.737255 0.499309 0.558566 0.888952
H1    H     H_    0.879039 0.480566 0.374461 0.253071
H2    H     H_    0.116865 0.495078 0.624178 0.161207
C5    C     C_2   0.127342 0.496604 0.405790 0.259936
C6    C     C_2   0.066271 0.493694 0.512473 -0.187285
H3    H     H_    0.923348 0.505999 0.702762 0.174902
C7    C     C_2   0.872344 0.498359 0.591674 -0.322404
C8    C     C_2   0.931424 0.489723 0.484526 -0.000490
C9    C     C_R   0.484060 0.063639 0.616674 0.054407
C10   C     C_R   0.522000 0.129633 0.508063 -0.173277
C11   C     C_R   0.576032 0.064041 0.409121 0.323952
C12   C     C_R   0.569063 0.934347 0.407370 -0.220603
H4    H     H_    0.607021 0.883733 0.330086 0.212067
C13   C     C_R   0.513601 0.870689 0.505119 -0.114438
C14   C     C_R   0.480419 0.936617 0.615640 0.009797
C15   C     C_3   0.364971 0.933295 0.673086 0.173560
C16   C     C_3   0.369384 0.074314 0.674097 -0.473088
H5    H     H_    0.379583 0.891225 0.782082 0.114506
H6    H     H_    0.291919 0.119913 0.597112 0.220490
H7    H     H_    0.389730 0.113631 0.784423 0.191351
C17   C     C_R   0.592636 0.558368 0.097326 0.257365
N1    N     N_R   0.500780 0.500930 0.148120 -0.219294
C18   C     C_R   0.415908 0.432178 0.052875 -0.013390
H8    H     H_    0.346405 0.379172 0.090871 0.163794
C19   C     C_R   0.415953 0.432094 0.903980 -0.041670
H9    H     H_    0.346504 0.378923 0.830382 0.138355
N2    N     N_R   0.500790 0.500890 0.852210 -0.191798
C20   C     C_R   0.592596 0.558211 0.949911 0.219116
C21   C     C_3   0.626117 0.691887 0.950679 -0.481805
C22   C     C_3   0.624865 0.692766 0.109362 0.146441
H10   H     H_    0.719206 0.706574 0.927467 0.248243
H11   H     H_    0.551383 0.749341 0.885164 0.181001
H12   H     H_    0.549759 0.750675 0.134021 0.133692
Cl1   Cl    Cl    0.774680 0.719048 0.222153 -0.507990
Cl2   Cl    Cl    0.050107 0.496892 0.221958 -0.528275
N3    N     N_R   0.637781 0.126202 0.311330 0.146471
O9    O     O_R   0.716438 0.215031 0.357292 -0.336728
O10   O     O_R   0.631743 0.081061 0.183723 -0.331942
N4    N     N_R   0.257522 0.882363 0.570661 0.153047
O11   O     O_R   0.192196 0.794501 0.611466 -0.333899
O12   O     O_R   0.227590 0.921918 0.438403 -0.314249

loop_
_geom_bond_atom_site_label_1
_geom_bond_atom_site_label_2
_geom_bond_distance
_ccdc_geom_bond_type
O4    Cu2   1.948460 S    
C19   N2    1.369625 A    
C10   C11   1.419543 A    
O6    C3    1.293873 A    
C11   C12   1.403204 A    
N2    C20   1.362967 A    
C15   C16   1.524469 S    
C16   H6    1.112537 S    
C6    C8    1.456327 S    
C20   C21   1.489033 S    
C1    C10   1.448029 S    
H3    C7    1.087058 S    
C5    Cl2   1.771353 S    
Cu2   O8    1.942307 S    
Cu1   N2    2.017519 S    
C18   C19   1.421512 A    
C5    C6    1.342824 D    
Cu1   Cu2   2.685810 S    
C15   H5    1.112467 S    
C9    C14   1.373072 A    
N4    O11   1.300655 A    
Cu1   O7    1.948462 S    
C19   H9    1.081698 S    
C17   C20   1.407180 A    
C21   H10   1.111673 S    
O3    Cu1   1.942306 S    
C11   N3    1.437394 S    
O3    C2    1.295779 A    
C18   H8    1.081609 S    
C22   H12   1.110299 S    
N4    O12   1.302636 A    
O2    C1    1.292579 A    
Cu1   O5    1.959361 S    
O4    C2    1.294958 A    
C15   N4    1.465535 S    
O7    C4    1.296176 A    
O2    Cu2   1.959360 S    
C12   C13   1.402918 A    
C21   C22   1.518066 S    
C4    C7    1.457161 S    
H1    C8    1.084804 S    
C7    C8    1.335571 D    
H2    C6    1.087721 S    
C17   N1    1.365801 A    
C13   C14   1.392022 A    
N3    O9    1.301441 A    
C2    C5    1.459298 S    
O5    C3    1.290256 A    
C9    C10   1.395170 A    
C14   C15   1.499320 S    
C9    C16   1.496184 S    
C16   H7    1.111830 S    
O1    C1    1.292854 A    
C12   H4    1.079106 S    
O1    Cu1   1.960781 S    
C22   Cl1   1.784672 S    
C21   H11   1.109956 S    
Cu2   O6    1.960782 S    
C3    C13   1.443138 S    
C17   C22   1.492220 S    
N1    C18   1.369170 A    
O8    C4    1.293490 A    
N3    O10   1.301419 A    
Cu2   N1    2.018194 S    
