data_mof_unit_2550.cif
_audit_creation_date              2012-12-11T16:30:32-0500
_audit_creation_method            fapswitch 2.2
_symmetry_space_group_name_H-M    P1
_symmetry_Int_Tables_number       1
_space_group_crystal_system       triclinic
_cell_length_a                    6.966743
_cell_length_b                    14.771552
_cell_length_c                    15.807261
_cell_angle_alpha                 89.999826
_cell_angle_beta                  90.201574
_cell_angle_gamma                 90.000071
_cell_volume                      1626.70894213

loop_
_atom_site_label
_atom_site_type_symbol
_atom_type_description
_atom_site_fract_x
_atom_site_fract_y
_atom_site_fract_z
_atom_type_partial_charge
O1    O     O_R   0.611670 0.415650 0.164070 -0.503107
O2    O     O_R   0.388330 0.915650 0.835930 -0.503095
O3    O     O_R   0.940950 0.405490 0.337780 -0.551319
O4    O     O_R   0.059050 0.905490 0.662220 -0.551320
O5    O     O_R   0.111350 0.584350 0.338470 -0.549481
O6    O     O_R   0.888650 0.084350 0.661530 -0.549482
C1    C     C_R   0.771700 0.381831 0.365887 0.603807
C2    C     C_R   0.228300 0.881831 0.634112 0.603805
O7    O     O_R   0.941380 0.404630 0.164680 -0.549593
O8    O     O_R   0.058620 0.904630 0.835320 -0.549582
O9    O     O_R   0.111780 0.583470 0.164130 -0.519551
O10   O     O_R   0.888220 0.083470 0.835870 -0.519544
C3    C     C_R   0.773338 0.390015 0.130236 0.862142
C4    C     C_R   0.226662 0.890014 0.869763 0.862141
O11   O     O_R   0.611240 0.416530 0.338400 -0.551728
O12   O     O_R   0.388760 0.916530 0.661600 -0.551727
O13   O     O_3   0.778020 0.558680 0.251290 -0.350660
O14   O     O_3   0.221980 0.058680 0.748710 -0.350667
V1    V     V_3+5 0.052840 0.489110 0.251260 1.464327
V2    V     V_3+5 0.947160 0.989110 0.748740 1.464336
O15   O     O_R   0.441500 0.594510 0.164760 -0.486220
O16   O     O_R   0.558500 0.094510 0.835240 -0.486238
C5    C     C_R   0.270630 0.613736 0.133750 0.787592
C6    C     C_R   0.729371 0.113738 0.866249 0.787613
O17   O     O_R   0.441080 0.595370 0.337860 -0.553301
O18   O     O_R   0.558920 0.095370 0.662140 -0.553302
C7    C     C_R   0.272525 0.616484 0.368220 0.602632
C8    C     C_R   0.727475 0.116484 0.631780 0.602635
V3    V     V_3+5 0.552850 0.510890 0.251270 1.540009
V4    V     V_3+5 0.447150 0.010890 0.748730 1.539985
O19   O     O_3   0.277800 0.441320 0.251250 -0.380850
O20   O     O_3   0.722200 0.941320 0.748750 -0.380842
C9    C     C_3   0.118377 0.656509 0.509864 -0.316250
C10   C     C_3   0.881631 0.156512 0.490139 -0.316246
H1    H     H_    0.973159 0.646410 0.481853 0.138381
H2    H     H_    0.026848 0.146428 0.518152 0.138389
H3    H     H_    0.164203 0.590438 0.537065 0.113710
H4    H     H_    0.835829 0.090435 0.462945 0.113706
C11   C     C_3   0.105178 0.728482 0.581653 -0.316701
C12   C     C_3   0.894807 0.228478 0.418342 -0.316701
H5    H     H_    0.143723 0.696766 0.643023 0.119280
H6    H     H_    0.856227 0.196758 0.356978 0.119291
H7    H     H_    0.954069 0.752214 0.586919 0.142248
H8    H     H_    0.045918 0.252206 0.413060 0.142246
H9    H     H_    0.053110 0.772463 0.374125 0.133762
H10   H     H_    0.946872 0.272464 0.625884 0.133751
H11   H     H_    0.030953 0.877148 0.480964 0.127064
H12   H     H_    0.969080 0.377130 0.519032 0.127072
C13   C     C_3   0.195295 0.779559 0.405711 -0.330970
C14   C     C_3   0.804697 0.279559 0.594289 -0.330974
C15   C     C_3   0.460573 0.700435 0.483505 -0.319643
C16   C     C_3   0.539431 0.200431 0.516492 -0.319654
C17   C     C_3   0.262137 0.686368 0.440042 0.132741
C18   C     C_3   0.737863 0.186368 0.559957 0.132735
H13   H     H_    0.568380 0.722981 0.436153 0.140412
H14   H     H_    0.431612 0.222963 0.563843 0.140411
H15   H     H_    0.512446 0.635149 0.510291 0.122203
H16   H     H_    0.487581 0.135146 0.489697 0.122213
C19   C     C_3   0.240137 0.810115 0.564040 0.127390
C20   C     C_3   0.759863 0.310115 0.435960 0.127389
C21   C     C_3   0.180728 0.851216 0.477575 -0.326321
C22   C     C_3   0.819290 0.351213 0.522423 -0.326315
C23   C     C_3   0.447976 0.772160 0.555015 -0.305531
C24   C     C_3   0.552019 0.272167 0.444991 -0.305520
H17   H     H_    0.494690 0.741159 0.615879 0.131743
H18   H     H_    0.505278 0.241177 0.384124 0.131744
H19   H     H_    0.549614 0.828224 0.540745 0.135379
H20   H     H_    0.450396 0.328233 0.459275 0.135376
H21   H     H_    0.300062 0.803564 0.357810 0.132408
H22   H     H_    0.699914 0.303566 0.642182 0.132412
H23   H     H_    0.274779 0.909901 0.462500 0.118795
H24   H     H_    0.725267 0.409908 0.537498 0.118781
H25   H     H_    0.283748 0.592281 0.743287 0.100180
H26   H     H_    0.716215 0.092282 0.256710 0.100146
C25   C     C_R   0.205850 0.938047 0.060519 0.397571
C26   C     C_R   0.794133 0.438052 0.939477 0.397401
C27   C     C_R   0.163668 0.954027 0.145690 -0.188312
C28   C     C_R   0.836302 0.454031 0.854305 -0.188393
C29   C     C_R   0.143023 0.883847 0.202060 -0.224025
C30   C     C_R   0.856959 0.383850 0.797935 -0.223908
C31   C     C_R   0.176517 0.796106 0.175991 -0.131257
C32   C     C_R   0.823477 0.296108 0.824006 -0.131292
C33   C     C_R   0.216793 0.775717 0.090516 0.020375
C34   C     C_R   0.783205 0.275720 0.909481 0.020358
C35   C     C_R   0.219439 0.846849 0.028725 -0.030533
C36   C     C_R   0.780556 0.346853 0.971272 -0.030499
C37   C     C_R   0.247856 0.684735 0.066887 -0.111377
C38   C     C_R   0.752144 0.184737 0.933112 -0.111480
C39   C     C_R   0.237828 0.661513 0.980199 0.137699
C40   C     C_R   0.762167 0.161516 0.019799 0.137543
C41   C     C_R   0.247695 0.729883 0.917277 0.042970
C42   C     C_R   0.752300 0.229886 0.082721 0.042874
C43   C     C_R   0.237798 0.822723 0.940332 -0.186822
C44   C     C_R   0.762201 0.322725 0.059666 -0.186887
C45   C     C_R   0.214043 0.570837 0.954191 0.020541
C46   C     C_R   0.785946 0.070841 0.045808 0.020659
C47   C     C_R   0.237984 0.546007 0.869940 -0.084132
C48   C     C_R   0.761989 0.046010 0.130058 -0.084018
C49   C     C_R   0.265652 0.611880 0.808733 -0.120388
C50   C     C_R   0.734321 0.111881 0.191265 -0.120269
C51   C     C_R   0.265361 0.702985 0.831395 -0.124826
C52   C     C_R   0.734625 0.202987 0.168603 -0.124744
H27   H     H_    0.152546 0.022151 0.170288 0.154419
H28   H     H_    0.847409 0.522154 0.829702 0.154180
H29   H     H_    0.108293 0.898365 0.267281 0.131628
H30   H     H_    0.891683 0.398369 0.732713 0.131612
H31   H     H_    0.165283 0.744028 0.223610 0.101673
H32   H     H_    0.834715 0.244030 0.776386 0.101667
H33   H     H_    0.183712 0.517740 0.999380 0.125386
H34   H     H_    0.816279 0.017743 0.000619 0.125388
H35   H     H_    0.234130 0.475308 0.852081 0.123223
H36   H     H_    0.765830 0.975310 0.147916 0.123191
H37   H     H_    0.281505 0.751626 0.780855 0.077992
H38   H     H_    0.718482 0.251628 0.219143 0.077978
S1    S     S_3+6 0.296169 0.032887 0.007597 -0.075148
O21   O     O_2   0.479338 0.002086 0.969010 -0.370068
O22   O     O_2   0.163841 0.065108 0.939477 -0.371706
O23   O     O_3   0.340456 0.119492 0.074075 -0.511458
H39   H     H_    0.218827 0.154113 0.076829 0.331728
S2    S     S_3+6 0.703822 0.532891 0.992405 -0.075041
O24   O     O_2   0.520654 0.502085 0.030989 -0.370066
O25   O     O_2   0.836146 0.565108 0.060528 -0.371583
O26   O     O_3   0.659526 0.619513 0.925948 -0.511315
H40   H     H_    0.781395 0.653900 0.922900 0.331540

loop_
_geom_bond_atom_site_label_1
_geom_bond_atom_site_label_2
_ccdc_geom_bond_type
C33   C37   A    
C23   H17   S    
C12   C20   S    
O13   V3    S    
O4    C2    A    
V1    O19   S    
C31   H31   S    
O26   H40   S    
C11   H5    S    
O9    V1    S    
C14   C18   S    
C10   C12   S    
C24   H20   S    
C34   C36   A    
O3    C1    A    
C2    C19   S    
C47   H35   S    
C28   C30   A    
O12   V4    S    
S1    O21   D    
C26   S2    S    
C30   H30   S    
C51   H37   S    
C29   H29   S    
C20   C22   S    
O7    V1    S    
O7    C3    A    
O23   H39   S    
C36   C44   A    
C31   C33   A    
O5    C7    A    
C35   C43   A    
C25   C35   A    
O6    C8    A    
O8    V2    S    
S1    O22   D    
C46   C48   A    
O3    V1    S    
C15   H15   S    
C32   H32   S    
C39   C41   A    
C4    C43   S    
C15   H13   S    
S2    O26   S    
C42   C52   A    
C21   H23   S    
C12   H6    S    
C2    O12   A    
C5    C37   S    
C7    C17   S    
O17   V3    S    
C41   C51   A    
O1    V3    S    
C47   C49   A    
C16   C18   S    
O11   V3    S    
C27   C29   A    
C9    C17   S    
C40   C42   A    
C23   H19   S    
C19   C21   S    
C13   C21   S    
C28   H28   S    
C15   C23   S    
C30   C32   A    
C16   C24   S    
C29   C31   A    
C8    C18   S    
O13   V1    S    
C11   H7    S    
C1    O11   A    
C46   H34   S    
C9    H3    S    
C15   C17   S    
C24   H18   S    
C39   C45   A    
C52   H38   S    
C41   C43   A    
C6    C38   S    
H12   C22   S    
H9    C13   S    
S1    O23   S    
C11   C19   S    
O10   V2    S    
C42   C44   A    
C22   H24   S    
C9    C11   S    
C25   C27   A    
C16   H16   S    
O14   V4    S    
C49   C51   A    
C38   C40   A    
C10   C18   S    
C32   C34   A    
O15   C5    A    
C45   H33   S    
C14   C22   S    
O16   C6    A    
C19   C23   S    
C27   H27   S    
O1    C3    A    
C26   C36   A    
C1    C20   S    
S2    O24   D    
S2    O25   D    
C50   C52   A    
V2    O20   S    
H25   C49   S    
O10   C6    A    
O16   V4    S    
C33   C35   A    
C10   H4    S    
O18   C8    A    
C34   C38   A    
C26   C28   A    
H11   C21   S    
H26   C50   S    
C45   C47   A    
C40   C46   A    
O5    V1    S    
O17   C7    A    
O6    V2    S    
H10   C14   S    
C48   C50   A    
O2    V4    S    
C3    C44   S    
C20   C24   S    
C48   H36   S    
C37   C39   A    
C14   H22   S    
V3    O19   S    
V4    O20   S    
O15   V3    S    
C13   C17   S    
O9    C5    A    
C9    H1    S    
C10   H2    S    
O14   V2    S    
O2    C4    A    
O4    V2    S    
C12   H8    S    
C25   S1    S    
C13   H21   S    
C16   H14   S    
O8    C4    A    
O18   V4    S    
