data_mof_unit_2707.cif
_audit_creation_date              2012-12-11T15:06:51-0500
_audit_creation_method            fapswitch 2.2
_symmetry_space_group_name_H-M    P1
_symmetry_Int_Tables_number       1
_space_group_crystal_system       triclinic
_cell_length_a                    19.644993
_cell_length_b                    11.313378
_cell_length_c                    18.706232
_cell_angle_alpha                 89.999977
_cell_angle_beta                  90.159253
_cell_angle_gamma                 90.000011
_cell_volume                      4157.46704147

loop_
_atom_site_label
_atom_site_type_symbol
_atom_type_description
_atom_site_fract_x
_atom_site_fract_y
_atom_site_fract_z
_atom_type_partial_charge
C1    C     C_R   0.761297 0.523643 0.639191 0.537278
C2    C     C_3   0.252932 0.056712 0.563244 0.066861
C3    C     C_R   0.740041 0.035235 0.151819 0.534553
C4    C     C_R   0.774331 0.132569 0.858944 0.534890
C5    C     C_R   0.225669 0.132569 0.141056 0.534890
C6    C     C_R   0.274331 0.632568 0.858944 0.534890
C7    C     C_R   0.725669 0.632569 0.141056 0.534890
C8    C     C_R   0.968564 0.353456 0.853925 0.536408
C9    C     C_R   0.031435 0.353456 0.146075 0.536408
C10   C     C_R   0.468565 0.853456 0.853925 0.536408
C11   C     C_R   0.531435 0.853456 0.146075 0.536408
C12   C     C_3   0.687300 0.132268 0.465205 -0.234486
C13   C     C_3   0.247068 0.556712 0.436756 0.066861
C14   C     C_3   0.312700 0.132268 0.534794 -0.234487
C15   C     C_3   0.187300 0.632268 0.465205 -0.234487
C16   C     C_3   0.812700 0.632268 0.534794 -0.234487
C17   C     C_3   0.692507 0.145177 0.546416 -0.231430
C18   C     C_3   0.307493 0.145177 0.453584 -0.231430
C19   C     C_3   0.192507 0.645177 0.546416 -0.231430
C20   C     C_3   0.807493 0.645177 0.453584 -0.231430
C21   C     C_3   0.756561 0.939127 0.480606 -0.216931
C22   C     C_3   0.243439 0.939127 0.519394 -0.216931
C23   C     C_3   0.256561 0.439127 0.480606 -0.216931
C24   C     C_3   0.752932 0.556712 0.563244 0.066861
C25   C     C_3   0.743439 0.439127 0.519394 -0.216931
C26   C     C_3   0.760089 0.090518 0.574219 0.066659
C27   C     C_3   0.239911 0.090517 0.425781 0.066658
C28   C     C_3   0.260089 0.590518 0.574219 0.066659
C29   C     C_3   0.739911 0.590518 0.425781 0.066659
C30   C     C_3   0.753507 0.958019 0.561924 -0.262707
C31   C     C_3   0.246493 0.958019 0.438076 -0.262707
C32   C     C_3   0.253507 0.458019 0.561924 -0.262707
C33   C     C_R   0.238703 0.523643 0.360809 0.537278
C34   C     C_3   0.746493 0.458019 0.438076 -0.262707
C35   C     C_3   0.823113 0.133506 0.530138 -0.215294
C36   C     C_3   0.176887 0.133506 0.469862 -0.215294
C37   C     C_3   0.323113 0.633506 0.530138 -0.215294
C38   C     C_3   0.676887 0.633506 0.469862 -0.215294
C39   C     C_3   0.003832 0.204812 0.458998 -0.232566
C40   C     C_3   0.996168 0.204812 0.541002 -0.232566
C41   C     C_3   0.503832 0.704812 0.458998 -0.232566
C42   C     C_3   0.496168 0.704812 0.541002 -0.232566
C43   C     C_3   0.064606 0.406035 0.474488 -0.212534
C44   C     C_R   0.261297 0.023643 0.639191 0.537278
C45   C     C_3   0.935394 0.406035 0.525512 -0.212534
C46   C     C_3   0.564606 0.906035 0.474488 -0.212534
C47   C     C_3   0.435394 0.906035 0.525512 -0.212534
C48   C     C_3   0.941567 0.390435 0.444427 -0.262733
C49   C     C_3   0.058432 0.390436 0.555572 -0.262733
C50   C     C_3   0.441567 0.890435 0.444427 -0.262733
C51   C     C_3   0.558432 0.890436 0.555572 -0.262733
C52   C     C_3   0.010518 0.333165 0.430940 0.065153
C53   C     C_3   0.989482 0.333165 0.569060 0.065153
C54   C     C_3   0.510518 0.833165 0.430940 0.065153
C55   C     C_R   0.738703 0.023642 0.360809 0.537278
C56   C     C_3   0.489482 0.833165 0.569060 0.065153
C57   C     C_3   0.819339 0.026183 0.046693 -0.234293
C58   C     C_3   0.180661 0.026183 0.953307 -0.234293
C59   C     C_3   0.319339 0.526183 0.046693 -0.234293
C60   C     C_3   0.680661 0.526183 0.953307 -0.234293
C61   C     C_R   0.774084 0.120963 0.649506 0.536968
C62   C     C_R   0.225916 0.120963 0.350494 0.536968
C63   C     C_R   0.274084 0.620963 0.649506 0.536968
C64   C     C_R   0.725916 0.620963 0.350494 0.536969
C65   C     C_3   0.818450 0.021803 0.965989 -0.235723
C66   C     C_3   0.810855 0.130718 0.449139 -0.261129
C67   C     C_3   0.181550 0.021804 0.034010 -0.235723
C68   C     C_3   0.318450 0.521803 0.965989 -0.235724
C69   C     C_3   0.681550 0.521803 0.034010 -0.235724
C70   C     C_3   0.690916 0.016122 0.031617 -0.223960
C71   C     C_3   0.309084 0.016123 0.968383 -0.223960
C72   C     C_3   0.190915 0.516123 0.031617 -0.223959
C73   C     C_3   0.809084 0.516123 0.968383 -0.223960
C74   C     C_3   0.744583 0.202856 0.061084 -0.255019
C75   C     C_3   0.255416 0.202857 0.938916 -0.255018
C76   C     C_3   0.244584 0.702856 0.061084 -0.255018
C77   C     C_3   0.189145 0.130718 0.550860 -0.261130
C78   C     C_3   0.755417 0.702856 0.938916 -0.255018
C79   C     C_3   0.749069 0.071542 0.075484 0.062427
C80   C     C_3   0.250931 0.071542 0.924516 0.062426
C81   C     C_3   0.249069 0.571542 0.075484 0.062427
C82   C     C_3   0.750931 0.571542 0.924516 0.062427
C83   C     C_3   0.760759 0.103640 0.936155 0.061049
C84   C     C_3   0.239241 0.103641 0.063845 0.061049
C85   C     C_3   0.260759 0.603640 0.936155 0.061049
C86   C     C_3   0.739241 0.603641 0.063845 0.061049
C87   C     C_3   0.693540 0.042374 0.950359 -0.253081
C88   C     C_3   0.310855 0.630718 0.449139 -0.261129
C89   C     C_3   0.306459 0.042375 0.049641 -0.253080
C90   C     C_3   0.193540 0.542374 0.950359 -0.253081
C91   C     C_3   0.806460 0.542375 0.049641 -0.253080
C92   C     C_3   0.758398 0.219519 0.980248 -0.231041
C93   C     C_3   0.241602 0.219519 0.019752 -0.231040
C94   C     C_3   0.258398 0.719519 0.980247 -0.231040
C95   C     C_3   0.741602 0.719519 0.019752 -0.231041
C96   C     C_3   0.998481 0.480719 0.040641 -0.236103
C97   C     C_3   0.001519 0.480719 0.959359 -0.236103
C98   C     C_3   0.498481 0.980719 0.040641 -0.236103
C99   C     C_3   0.689145 0.630718 0.550860 -0.261129
C100  C     C_3   0.501519 0.980719 0.959359 -0.236102
C101  C     C_3   0.067317 0.292168 0.026375 -0.227360
C102  C     C_3   0.932683 0.292168 0.973625 -0.227360
C103  C     C_3   0.567316 0.792168 0.026375 -0.227359
C104  C     C_3   0.432683 0.792168 0.973625 -0.227358
C105  C     C_3   0.946718 0.280965 0.054486 -0.256699
C106  C     C_3   0.053282 0.280965 0.945514 -0.256699
C107  C     C_3   0.446718 0.780965 0.054486 -0.256698
C108  C     C_3   0.553282 0.780965 0.945514 -0.256699
C109  C     C_R   0.969100 0.342158 0.645003 0.535407
C110  C     C_3   0.747068 0.056712 0.436756 0.066861
C111  C     C_R   0.030900 0.342158 0.354996 0.535407
C112  C     C_R   0.469100 0.842158 0.645003 0.535407
C113  C     C_R   0.530900 0.842158 0.354996 0.535407
C114  C     C_3   0.010163 0.352369 0.069531 0.063504
C115  C     C_3   0.989837 0.352369 0.930468 0.063504
C116  C     C_3   0.510162 0.852369 0.069531 0.063504
C117  C     C_3   0.489837 0.852369 0.930468 0.063504
C118  C     C_R   0.759959 0.535234 0.848181 0.534553
C119  C     C_R   0.240041 0.535235 0.151819 0.534553
C120  C     C_R   0.259959 0.035235 0.848181 0.534552
Cr1   Cr    Cr6+3 0.885690 0.492860 0.745310 0.992383
Cr2   Cr    Cr6+3 0.111880 0.178590 0.246990 0.992542
Cr3   Cr    Cr6+3 0.388120 0.678590 0.753010 0.992542
Cr4   Cr    Cr6+3 0.611880 0.678590 0.246990 0.992542
Cr5   Cr    Cr6+3 0.114310 0.492860 0.254690 0.992383
Cr6   Cr    Cr6+3 0.385690 0.992860 0.745310 0.992383
Cr7   Cr    Cr6+3 0.614310 0.992860 0.254690 0.992383
Cr8   Cr    Cr6+3 0.729880 0.332270 0.748190 0.991981
Cr9   Cr    Cr6+3 0.270120 0.332270 0.251810 0.991982
Cr10  Cr    Cr6+3 0.229880 0.832270 0.748190 0.991981
Cr11  Cr    Cr6+3 0.770120 0.832270 0.251810 0.991982
Cr12  Cr    Cr6+3 0.888120 0.178590 0.753010 0.992542
H1    H     H_    0.638272 0.095952 0.450032 0.131390
H2    H     H_    0.190895 0.908970 0.530211 0.125231
H3    H     H_    0.551876 0.012223 0.941374 0.116288
H4    H     H_    0.608142 0.852260 0.032993 0.109474
H5    H     H_    0.391858 0.852261 0.967007 0.109474
H6    H     H_    0.108142 0.352261 0.032992 0.109475
H7    H     H_    0.891858 0.352260 0.967008 0.109474
H8    H     H_    0.597074 0.813937 0.913767 0.099729
H9    H     H_    0.402926 0.813937 0.086234 0.099729
H10   H     H_    0.097073 0.313936 0.913766 0.099730
H11   H     H_    0.902926 0.313936 0.086234 0.099730
H12   H     H_    0.955945 0.187063 0.069019 0.120390
H13   H     H_    0.309104 0.408970 0.469789 0.125231
H14   H     H_    0.044055 0.187063 0.930981 0.120390
H15   H     H_    0.455944 0.687064 0.069020 0.120390
H16   H     H_    0.544056 0.687064 0.930980 0.120390
H17   H     H_    0.920370 0.204995 0.951277 0.134460
H18   H     H_    0.079630 0.204996 0.048723 0.134460
H19   H     H_    0.420369 0.704995 0.951277 0.134460
H20   H     H_    0.579629 0.704994 0.048723 0.134460
H21   H     H_    0.648551 0.101255 0.572073 0.106605
H22   H     H_    0.351449 0.101255 0.427927 0.106605
H23   H     H_    0.148551 0.601255 0.572073 0.106605
H24   H     H_    0.690895 0.408970 0.530211 0.125231
H25   H     H_    0.851449 0.601255 0.427927 0.106605
H26   H     H_    0.722260 0.868777 0.463575 0.109396
H27   H     H_    0.277739 0.868777 0.536426 0.109396
H28   H     H_    0.222260 0.368777 0.463575 0.109396
H29   H     H_    0.777740 0.368777 0.536426 0.109396
H30   H     H_    0.705209 0.924016 0.584362 0.104083
H31   H     H_    0.294791 0.924016 0.415638 0.104084
H32   H     H_    0.205209 0.424016 0.584362 0.104083
H33   H     H_    0.794791 0.424016 0.415638 0.104084
H34   H     H_    0.855140 0.090371 0.421649 0.122911
H35   H     H_    0.795718 0.910084 0.588917 0.120360
H36   H     H_    0.144860 0.090371 0.578351 0.122911
H37   H     H_    0.355140 0.590371 0.421649 0.122911
H38   H     H_    0.644860 0.590370 0.578351 0.122911
H39   H     H_    0.804318 0.221078 0.427522 0.104220
H40   H     H_    0.195682 0.221078 0.572478 0.104220
H41   H     H_    0.304318 0.721078 0.427522 0.104220
H42   H     H_    0.695682 0.721078 0.572478 0.104220
H43   H     H_    0.841944 0.219476 0.547977 0.112889
H44   H     H_    0.158056 0.219476 0.452023 0.112889
H45   H     H_    0.341944 0.719476 0.547977 0.112889
H46   H     H_    0.204282 0.910083 0.411083 0.120360
H47   H     H_    0.658056 0.719476 0.452023 0.112889
H48   H     H_    0.782343 0.251990 0.093977 0.099855
H49   H     H_    0.217655 0.251989 0.906022 0.099855
H50   H     H_    0.282345 0.751989 0.093977 0.099855
H51   H     H_    0.717656 0.751989 0.906022 0.099855
H52   H     H_    0.295718 0.410084 0.588917 0.120360
H53   H     H_    0.704282 0.410083 0.411083 0.120360
H54   H     H_    0.046300 0.150384 0.442207 0.130535
H55   H     H_    0.953701 0.150384 0.557793 0.130536
H56   H     H_    0.546300 0.650384 0.442207 0.130535
H57   H     H_    0.361728 0.095952 0.549968 0.131390
H58   H     H_    0.453700 0.650384 0.557793 0.130535
H59   H     H_    0.959213 0.161223 0.434288 0.106876
H60   H     H_    0.040787 0.161223 0.565712 0.106875
H61   H     H_    0.459213 0.661223 0.434288 0.106875
H62   H     H_    0.540787 0.661223 0.565712 0.106876
H63   H     H_    0.616526 0.891204 0.456011 0.112136
H64   H     H_    0.383474 0.891204 0.543989 0.112136
H65   H     H_    0.116526 0.391204 0.456011 0.112136
H66   H     H_    0.883474 0.391204 0.543989 0.112136
H67   H     H_    0.600226 0.835026 0.576889 0.103971
H68   H     H_    0.138272 0.595952 0.450032 0.131390
H69   H     H_    0.399773 0.835025 0.423111 0.103971
H70   H     H_    0.100226 0.335026 0.576889 0.103971
H71   H     H_    0.899773 0.335025 0.423111 0.103971
H72   H     H_    0.938358 0.477618 0.417392 0.121682
H73   H     H_    0.061642 0.477618 0.582608 0.121682
H74   H     H_    0.438357 0.977618 0.417392 0.121682
H75   H     H_    0.561642 0.977618 0.582608 0.121683
H76   H     H_    0.947646 0.500029 0.535814 0.129630
H77   H     H_    0.052354 0.500029 0.464185 0.129630
H78   H     H_    0.447646 0.000029 0.535814 0.129630
H79   H     H_    0.861728 0.595952 0.549968 0.131390
H80   H     H_    0.552354 0.000029 0.464185 0.129630
H81   H     H_    0.835079 0.937541 0.065271 0.139249
H82   H     H_    0.164921 0.937541 0.934729 0.139249
H83   H     H_    0.335078 0.437541 0.065271 0.139249
H84   H     H_    0.664922 0.437541 0.934729 0.139249
H85   H     H_    0.687797 0.220751 0.439993 0.106876
H86   H     H_    0.312202 0.220751 0.560007 0.106876
H87   H     H_    0.187798 0.720751 0.439993 0.106876
H88   H     H_    0.812202 0.720751 0.560007 0.106876
H89   H     H_    0.859878 0.086355 0.065604 0.115231
H90   H     H_    0.863703 0.067771 0.540524 0.126344
H91   H     H_    0.140121 0.086354 0.934396 0.115231
H92   H     H_    0.359878 0.586354 0.065604 0.115231
H93   H     H_    0.640122 0.586354 0.934396 0.115230
H94   H     H_    0.870419 0.042239 0.947659 0.134333
H95   H     H_    0.129581 0.042240 0.052340 0.134333
H96   H     H_    0.370419 0.542239 0.947659 0.134333
H97   H     H_    0.629581 0.542240 0.052340 0.134333
H98   H     H_    0.809254 0.930241 0.947645 0.117276
H99   H     H_    0.190746 0.930242 0.052355 0.117276
H100  H     H_    0.309253 0.430241 0.947645 0.117276
H101  H     H_    0.136296 0.067771 0.459476 0.126344
H102  H     H_    0.690747 0.430241 0.052355 0.117276
H103  H     H_    0.699810 0.924512 0.040204 0.109073
H104  H     H_    0.300190 0.924513 0.959796 0.109074
H105  H     H_    0.199809 0.424513 0.040205 0.109074
H106  H     H_    0.800190 0.424513 0.959796 0.109074
H107  H     H_    0.689035 0.959591 0.918810 0.101092
H108  H     H_    0.310964 0.959591 0.081189 0.101092
H109  H     H_    0.189035 0.459591 0.918811 0.101092
H110  H     H_    0.810965 0.459592 0.081189 0.101092
H111  H     H_    0.692976 0.235691 0.075125 0.120431
H112  H     H_    0.363704 0.567771 0.540524 0.126344
H113  H     H_    0.307023 0.235692 0.924874 0.120431
H114  H     H_    0.192977 0.735692 0.075125 0.120431
H115  H     H_    0.807024 0.735692 0.924875 0.120431
H116  H     H_    0.809137 0.251025 0.976828 0.110950
H117  H     H_    0.190863 0.251025 0.023172 0.110949
H118  H     H_    0.309137 0.751025 0.976827 0.110949
H119  H     H_    0.690862 0.751024 0.023171 0.110950
H120  H     H_    0.721252 0.281420 0.957060 0.126582
H121  H     H_    0.278748 0.281421 0.042939 0.126582
H122  H     H_    0.221252 0.781420 0.957060 0.126582
H123  H     H_    0.636296 0.567770 0.459476 0.126344
H124  H     H_    0.778747 0.781422 0.042940 0.126582
H125  H     H_    0.641313 0.043169 0.053185 0.129800
H126  H     H_    0.358687 0.043171 0.946815 0.129800
H127  H     H_    0.141313 0.543172 0.053185 0.129800
H128  H     H_    0.858687 0.543171 0.946815 0.129800
H129  H     H_    0.687199 0.237340 0.562054 0.138084
H130  H     H_    0.312801 0.237340 0.437946 0.138084
H131  H     H_    0.187199 0.737340 0.562054 0.138084
H132  H     H_    0.812801 0.737340 0.437946 0.138084
H133  H     H_    0.651226 0.102211 0.934681 0.119115
H134  H     H_    0.809104 0.908970 0.469789 0.125231
H135  H     H_    0.348774 0.102212 0.065320 0.119114
H136  H     H_    0.151226 0.602211 0.934680 0.119115
H137  H     H_    0.848774 0.602212 0.065319 0.119115
H138  H     H_    0.034797 0.547493 0.060512 0.133728
H139  H     H_    0.965202 0.547493 0.939488 0.133728
H140  H     H_    0.534797 0.047493 0.060512 0.133728
H141  H     H_    0.465202 0.047493 0.939488 0.133728
H142  H     H_    0.948124 0.512222 0.058626 0.116288
H143  H     H_    0.051876 0.512222 0.941374 0.116288
H144  H     H_    0.448124 0.012222 0.058626 0.116288
O1    O     O_R   0.957210 0.449410 0.665480 -0.533417
O2    O     O_R   0.167480 0.095300 0.164000 -0.534097
O3    O     O_R   0.332520 0.595300 0.836000 -0.534097
O4    O     O_R   0.667480 0.595300 0.164000 -0.534097
O5    O     O_R   0.946380 0.253940 0.826940 -0.513649
O6    O     O_R   0.053620 0.253940 0.173060 -0.513649
O7    O     O_R   0.446380 0.753940 0.826940 -0.513649
O8    O     O_R   0.553620 0.753940 0.173060 -0.513649
O9    O     O_3   0.834560 0.334570 0.748840 -0.271504
O10   O     O_3   0.165440 0.334570 0.251160 -0.271504
O11   O     O_3   0.334560 0.834570 0.748840 -0.271504
O12   O     O_R   0.042790 0.449410 0.334520 -0.533417
O13   O     O_3   0.665440 0.834570 0.251160 -0.271504
O14   O     O_R   0.820730 0.541240 0.668250 -0.515281
O15   O     O_R   0.179270 0.541240 0.331750 -0.515282
O16   O     O_R   0.320730 0.041240 0.668250 -0.515281
O17   O     O_R   0.679270 0.041240 0.331750 -0.515282
O18   O     O_R   0.714240 0.455060 0.663710 -0.533039
O19   O     O_R   0.285760 0.455060 0.336290 -0.533039
O20   O     O_R   0.214240 0.955060 0.663710 -0.533039
O21   O     O_R   0.785760 0.955060 0.336290 -0.533039
O22   O     O_R   0.736780 0.204870 0.675910 -0.515379
O23   O     O_R   0.457210 0.949410 0.665480 -0.533417
O24   O     O_R   0.263220 0.204870 0.324090 -0.515379
O25   O     O_R   0.236780 0.704870 0.675910 -0.515379
O26   O     O_R   0.763220 0.704870 0.324090 -0.515379
O27   O     O_R   0.833070 0.087590 0.673490 -0.530083
O28   O     O_R   0.166930 0.087590 0.326510 -0.530083
O29   O     O_R   0.333070 0.587590 0.673490 -0.530083
O30   O     O_R   0.666930 0.587590 0.326510 -0.530083
O31   O     O_R   0.946890 0.246800 0.676300 -0.512643
O32   O     O_R   0.053110 0.246800 0.323700 -0.512643
O33   O     O_R   0.446890 0.746800 0.676300 -0.512643
O34   O     O_R   0.542790 0.949410 0.334520 -0.533417
O35   O     O_R   0.553110 0.746800 0.323700 -0.512644
O36   O     O_R   0.956650 0.457120 0.827980 -0.532133
O37   O     O_R   0.043350 0.457120 0.172020 -0.532133
O38   O     O_R   0.456650 0.957120 0.827980 -0.532134
O39   O     O_R   0.543350 0.957120 0.172020 -0.532133
O40   O     O_R   0.820220 0.548390 0.818890 -0.510628
O41   O     O_R   0.179780 0.548390 0.181110 -0.510628
O42   O     O_R   0.320220 0.048390 0.818890 -0.510628
O43   O     O_R   0.679780 0.048390 0.181110 -0.510628
O44   O     O_R   0.713680 0.462770 0.826210 -0.533100
O45   O     O_R   0.736260 0.212010 0.826560 -0.510299
O46   O     O_R   0.286320 0.462770 0.173790 -0.533099
O47   O     O_R   0.213680 0.962770 0.826210 -0.533099
O48   O     O_R   0.786320 0.962770 0.173790 -0.533099
O49   O     O_R   0.263740 0.212010 0.173440 -0.510299
O50   O     O_R   0.236260 0.712010 0.826560 -0.510299
O51   O     O_R   0.763740 0.712010 0.173440 -0.510299
O52   O     O_R   0.832520 0.095300 0.836000 -0.534097

loop_
_geom_bond_atom_site_label_1
_geom_bond_atom_site_label_2
_ccdc_geom_bond_type
C19   H23   S    
C73   C82   S    
Cr11  O26   S    
C17   H21   S    
C21   C110  S    
Cr7   O13   S    
C40   H55   S    
C57   H89   S    
C77   H36   S    
Cr8   O18   S    
C48   H71   S    
C6    C85   S    
C1    O18   A    
Cr2   O28   S    
C9    C114  S    
Cr1   O1    S    
C18   H130  S    
C94   H122  S    
Cr3   O3    S    
C45   C48   S    
C22   H27   S    
Cr10  O20   S    
C41   C42   S    
C74   C92   S    
C41   H61   S    
C76   C94   S    
C14   H57   S    
C2    C22   S    
C38   H47   S    
C3    O43   A    
C97   C115  S    
C64   O30   A    
C100  H3    S    
C25   C34   S    
Cr4   O8    S    
Cr12  O5    S    
C29   C64   S    
C67   H99   S    
C37   H112  S    
C96   C114  S    
C11   O8    A    
C106  H10   S    
C84   C93   S    
C112  O23   A    
C27   C31   S    
C28   C32   S    
C38   C99   S    
C35   C66   S    
C118  O44   A    
C119  O41   A    
C71   H126  S    
C13   C33   S    
C39   H59   S    
C78   C82   S    
C40   H60   S    
C85   C90   S    
C119  O46   A    
C43   H65   S    
C66   C110  S    
C97   H143  S    
C33   O19   A    
C98   H144  S    
C103  H20   S    
C65   H98   S    
C74   C79   S    
Cr10  O25   S    
C30   H30   S    
Cr12  O31   S    
Cr6   O38   S    
C75   C93   S    
Cr6   O42   S    
C104  C117  S    
C53   C109  S    
C5    O49   A    
C88   H37   S    
C70   C79   S    
C58   H91   S    
C68   H96   S    
C81   C119  S    
C61   O27   A    
C106  C115  S    
C36   C77   S    
C35   H43   S    
C103  C116  S    
C36   H101  S    
C20   H132  S    
C99   H42   S    
Cr1   O36   S    
C49   C53   S    
C59   H83   S    
C70   H103  S    
C2    C14   S    
C86   C95   S    
C102  H17   S    
C28   C63   S    
C26   C35   S    
C48   C52   S    
C44   O20   A    
C72   H105  S    
C14   H86   S    
C100  C117  S    
C104  C107  S    
C108  H16   S    
Cr7   O39   S    
C112  O33   A    
C96   H142  S    
Cr4   O30   S    
C12   C110  S    
C92   H116  S    
Cr8   O45   S    
C113  O35   A    
C30   H35   S    
C51   H75   S    
C43   C52   S    
C7    C86   S    
Cr9   O19   S    
C4    O52   A    
C13   C23   S    
Cr4   O35   S    
C6    O50   A    
C70   H125  S    
C25   H29   S    
Cr12  O27   S    
C29   C38   S    
C1    O14   A    
C111  O12   A    
C107  H9    S    
C34   H33   S    
Cr11  O48   S    
C18   H22   S    
Cr7   O17   S    
C45   C53   S    
C96   C97   S    
C25   H24   S    
Cr2   O32   S    
C68   C85   S    
C89   H108  S    
C43   H77   S    
C70   C87   S    
C94   H118  S    
C47   C50   S    
C9    O37   A    
C92   H120  S    
C87   H107  S    
Cr11  O13   S    
C31   H46   S    
C66   H39   S    
C59   H92   S    
C39   C40   S    
C5    C84   S    
Cr6   O23   S    
C46   C51   S    
C103  H4    S    
C27   C62   S    
C69   H97   S    
C72   C90   S    
C58   C67   S    
Cr12  O9    S    
C67   H95   S    
C8    O36   A    
C19   C28   S    
Cr5   O15   S    
C21   H134  S    
Cr6   O16   S    
C50   H74   S    
C57   H81   S    
C26   C30   S    
C45   H76   S    
C7    O51   A    
C4    O45   A    
C15   H87   S    
C101  C106  S    
C118  O40   A    
C108  C117  S    
C16   H79   S    
C5    O2    A    
C109  O1    A    
C37   H45   S    
C109  O31   A    
C62   O28   A    
C60   H84   S    
C73   H106  S    
C10   C117  S    
C15   H68   S    
C60   C69   S    
C32   H32   S    
C9    O6    A    
C16   H88   S    
C107  C116  S    
C55   O17   A    
Cr12  O52   S    
C72   H127  S    
C95   H124  S    
C68   H100  S    
C47   C56   S    
C83   C87   S    
C21   H26   S    
C37   C88   S    
C105  H12   S    
C99   H38   S    
Cr1   O40   S    
C15   C19   S    
C50   C54   S    
Cr1   O14   S    
C26   C61   S    
Cr8   O9    S    
C86   C91   S    
C93   H121  S    
C101  H18   S    
C104  H5    S    
C102  C105  S    
C14   C18   S    
Cr5   O41   S    
C102  C115  S    
C42   C56   S    
Cr10  O50   S    
C39   H54   S    
C55   O21   A    
Cr7   O43   S    
Cr8   O44   S    
C12   C17   S    
C72   C81   S    
C58   C80   S    
C38   H123  S    
C101  C114  S    
C6    O3    A    
Cr4   O4    S    
C64   O26   A    
C47   H64   S    
Cr4   O13   S    
C35   H90   S    
C95   H119  S    
C97   H139  S    
C98   H140  S    
C29   C34   S    
C41   H56   S    
C89   H135  S    
C10   O7    A    
C34   H53   S    
C90   H136  S    
C107  H15   S    
Cr11  O51   S    
C91   H110  S    
C78   C95   S    
C46   C54   S    
Cr3   O33   S    
Cr1   O9    S    
C11   C116  S    
Cr2   O6    S    
C3    C79   S    
Cr3   O11   S    
C87   H133  S    
C74   H111  S    
C10   O38   A    
C49   H73   S    
C36   H44   S    
C98   C100  S    
C20   H25   S    
C7    O4    A    
C12   H85   S    
Cr10  O47   S    
C50   H69   S    
Cr7   O34   S    
C48   H72   S    
Cr5   O10   S    
Cr9   O49   S    
C59   C81   S    
C57   C65   S    
Cr10  O11   S    
C101  H6    S    
C27   C36   S    
C21   C30   S    
C113  O34   A    
C23   C32   S    
C2    C77   S    
C4    C83   S    
C77   H40   S    
C65   H94   S    
C17   H129  S    
C19   H131  S    
Cr11  O21   S    
C80   C120  S    
C24   C99   S    
C62   O24   A    
C57   C79   S    
C63   O29   A    
C73   H128  S    
C46   H63   S    
C83   C92   S    
C23   H13   S    
C22   H2    S    
C17   C26   S    
C28   C37   S    
C104  H19   S    
Cr9   O10   S    
C51   C56   S    
C46   H80   S    
C65   C83   S    
C120  O47   A    
C96   H138  S    
C54   C113  S    
C78   H51   S    
C42   H62   S    
C42   H58   S    
C8    C115  S    
C60   C82   S    
C103  C108  S    
C120  O42   A    
C75   C80   S    
C75   H113  S    
C16   C20   S    
C39   C52   S    
Cr5   O12   S    
C67   C84   S    
C16   C24   S    
Cr6   O11   S    
C76   H50   S    
C71   C80   S    
C33   O15   A    
C93   H117  S    
C20   C29   S    
C111  O32   A    
C31   H31   S    
C22   C31   S    
C66   H34   S    
C105  C114  S    
C24   C25   S    
C73   C91   S    
Cr5   O37   S    
C2    C44   S    
C108  H8    S    
C43   C49   S    
C52   C111  S    
C45   H66   S    
C88   H41   S    
C60   H93   S    
C69   H102  S    
C59   C68   S    
C85   C94   S    
C98   C116  S    
C3    O48   A    
C71   C89   S    
C23   H28   S    
C78   H115  S    
C71   H104  S    
C51   H67   S    
C1    C24   S    
C63   O25   A    
C12   H1    S    
C13   C15   S    
C55   C110  S    
C90   H109  S    
C84   C89   S    
C75   H49   S    
C58   H82   S    
C49   H70   S    
C61   O22   A    
C44   O16   A    
C32   H52   S    
C76   H114  S    
C18   C27   S    
C91   H137  S    
C76   C81   S    
C105  H11   S    
Cr8   O22   S    
Cr9   O24   S    
C106  H14   S    
C100  H141  S    
Cr3   O29   S    
Cr9   O46   S    
Cr2   O10   S    
Cr2   O2    S    
Cr3   O7    S    
C8    O5    A    
C11   O39   A    
C13   C88   S    
C41   C54   S    
C102  H7    S    
C74   H48   S    
C40   C53   S    
C47   H78   S    
C82   C118  S    
C56   C112  S    
C69   C86   S    
