data_mof_unit_2692.cif
_audit_creation_date              2012-10-26T18:53:17-0400
_audit_creation_method            fapswitch 2.2
_symmetry_space_group_name_H-M    P1
_symmetry_Int_Tables_number       1
_space_group_crystal_system       triclinic
_cell_length_a                    14.703193
_cell_length_b                    14.679992
_cell_length_c                    15.864703
_cell_angle_alpha                 76.674151
_cell_angle_beta                  102.839426
_cell_angle_gamma                 115.119819
_cell_volume                      2986.72858712

loop_
_atom_site_label
_atom_site_type_symbol
_atom_type_description
_atom_site_fract_x
_atom_site_fract_y
_atom_site_fract_z
_atom_type_partial_charge
C1    C     C_R   0.880236 0.311686 0.514399 0.545553
C2    C     C_R   0.188208 0.795422 0.487700 0.001084
C3    C     C_R   0.784259 0.023019 0.556940 -0.109993
C4    C     C_R   0.999539 0.499619 0.659688 0.553006
C5    C     C_R   0.851142 0.124976 0.543264 0.261458
C6    C     C_R   0.709047 0.175310 0.522116 -0.176782
C7    C     C_R   0.641924 0.073295 0.539717 0.009979
C8    C     C_R   0.680204 0.996816 0.552219 -0.005091
C9    C     C_R   0.536729 0.045158 0.540648 0.029996
C10   C     C_R   0.469093 0.942820 0.533229 -0.005949
C11   C     C_R   0.510058 0.868222 0.546266 -0.125808
C12   C     C_3   0.991341 0.396261 0.069268 -0.285677
C13   C     C_R   0.613983 0.894872 0.558256 -0.131707
C14   C     C_R   0.496392 0.114092 0.551236 0.257429
C15   C     C_R   0.392031 0.088525 0.534319 -0.105133
C16   C     C_R   0.119894 0.687973 0.486459 0.545287
C17   C     C_R   0.325109 0.992177 0.515711 -0.001486
C18   C     C_R   0.362838 0.918004 0.515857 0.017592
C19   C     C_R   0.220172 0.967743 0.500703 -0.133838
C20   C     C_R   0.151936 0.869514 0.487770 -0.132191
C21   C     C_R   0.292730 0.821486 0.497642 -0.114963
C22   C     C_R   0.709223 0.657383 0.345188 -0.162741
C23   C     C_3   0.998337 0.500569 0.082393 0.035668
C24   C     C_R   0.792910 0.631320 0.371749 0.037536
C25   C     C_R   0.717739 0.514888 0.492338 0.036198
C26   C     C_R   0.631168 0.539980 0.470020 0.001526
C27   C     C_R   0.627824 0.611500 0.393624 0.039625
C28   C     C_R   0.000108 0.499825 0.340352 0.542126
C29   C     C_R   0.548019 0.496126 0.519599 0.025030
C30   C     C_R   0.459857 0.519512 0.488336 0.019376
C31   C     C_R   0.460392 0.590656 0.411277 -0.141850
C32   C     C_R   0.543240 0.636411 0.365723 -0.126479
C33   C     C_R   0.551021 0.431517 0.600252 -0.112766
C34   C     C_3   0.097601 0.584228 0.051217 -0.184481
C35   C     C_R   0.468733 0.386286 0.646319 -0.121410
C36   C     C_R   0.379941 0.402816 0.613901 0.033622
C37   C     C_R   0.374466 0.471122 0.535579 -0.000161
C38   C     C_R   0.296814 0.352561 0.660256 -0.153314
C39   C     C_R   0.209249 0.371482 0.630002 0.063294
C40   C     C_3   0.991871 0.396203 0.971887 -0.274388
C41   C     C_R   0.283344 0.488064 0.508989 0.030321
C42   C     C_3   0.904142 0.518111 0.927105 0.213048
C43   C     C_3   0.905553 0.520739 0.025602 0.235022
C44   C     C_1   0.000294 0.499536 0.250803 -0.044682
C45   C     C_3   0.096637 0.586517 0.952839 -0.009622
C46   C     C_3   0.998282 0.500283 0.916777 0.063189
C47   C     C_3   0.980951 0.159922 0.467386 0.032589
C48   C     C_3   0.978746 0.060042 0.451056 -0.285723
C49   C     C_3   0.024166 0.075946 0.368559 -0.486956
C50   C     C_3   0.592983 0.184445 0.673704 -0.000111
C51   C     C_3   0.508124 0.135216 0.731854 -0.272194
C52   C     C_3   0.551038 0.142251 0.828056 -0.482193
C53   C     C_3   0.822651 0.594619 0.806403 0.007160
C54   C     C_3   0.834712 0.695742 0.746864 -0.242718
C55   C     C_3   0.751352 0.681554 0.668210 -0.481560
C56   C     C_1   0.999667 0.499712 0.175068 -0.064487
C57   C     C_3   0.837195 0.608493 0.083514 0.013086
C58   C     C_3   0.737596 0.599217 0.023181 -0.265563
C59   C     C_3   0.659037 0.596974 0.073242 -0.477255
C60   C     C_1   0.998237 0.499189 0.824710 -0.019751
C61   C     C_1   0.998678 0.499163 0.749237 -0.014960
C62   C     C_R   0.813280 0.202414 0.526195 -0.023928
Cu1   Cu    Cu3+1 0.081750 0.475690 0.522550 0.950992
Cu2   Cu    Cu3+1 0.918250 0.524310 0.477450 0.921483
H1    H     H_    0.920673 0.334372 0.091167 0.107829
H2    H     H_    0.680462 0.234737 0.502477 0.196504
H3    H     H_    0.921602 0.333938 0.947228 0.100217
H4    H     H_    0.463949 0.787825 0.550665 0.112876
H5    H     H_    0.190981 0.023908 0.501622 0.106799
H6    H     H_    0.540471 0.691117 0.307210 0.112105
H7    H     H_    0.273265 0.540577 0.451712 0.118386
H8    H     H_    0.145555 0.333977 0.666419 0.147959
H9    H     H_    0.475011 0.338475 0.708592 0.101210
H10   H     H_    0.707989 0.712788 0.286924 0.087337
H11   H     H_    0.855874 0.666773 0.334468 0.122211
H12   H     H_    0.056875 0.379455 0.965677 0.174884
H13   H     H_    0.724840 0.458384 0.547273 0.127371
H14   H     H_    0.397965 0.613554 0.384484 0.094336
H15   H     H_    0.617201 0.416111 0.630676 0.097216
H16   H     H_    0.299898 0.299669 0.719996 0.096379
H17   H     H_    0.834656 0.450698 0.908120 0.022936
H18   H     H_    0.834993 0.456473 0.046342 0.043373
H19   H     H_    0.098122 0.661507 0.916421 0.184551
H20   H     H_    0.163709 0.569359 0.091176 0.144182
H21   H     H_    0.059827 0.218259 0.467251 0.168850
H22   H     H_    0.933260 0.189354 0.412513 0.113517
H23   H     H_    0.056437 0.379795 0.109830 0.146798
H24   H     H_    0.022427 0.029132 0.507998 0.170957
H25   H     H_    0.899204 0.003315 0.443326 0.150677
H26   H     H_    0.980722 0.105644 0.310605 0.148152
H27   H     H_    0.020843 0.002208 0.358317 0.148903
H28   H     H_    0.104743 0.130524 0.375134 0.149091
H29   H     H_    0.646764 0.258715 0.693919 0.141093
H30   H     H_    0.637712 0.136720 0.684983 0.136703
H31   H     H_    0.453844 0.173060 0.711109 0.169249
H32   H     H_    0.465719 0.053588 0.724561 0.161780
H33   H     H_    0.605259 0.104200 0.850139 0.151040
H34   H     H_    0.106584 0.660115 0.061829 0.156133
H35   H     H_    0.488246 0.104011 0.868343 0.155350
H36   H     H_    0.590473 0.223225 0.837976 0.133515
H37   H     H_    0.750026 0.563890 0.833798 0.120520
H38   H     H_    0.820728 0.540183 0.766673 0.120678
H39   H     H_    0.832108 0.749521 0.784557 0.174068
H40   H     H_    0.909612 0.729256 0.723073 0.180926
H41   H     H_    0.753506 0.628588 0.629593 0.155536
H42   H     H_    0.763676 0.756025 0.625573 0.137925
H43   H     H_    0.675620 0.650786 0.689913 0.152543
H44   H     H_    0.866054 0.679091 0.112964 0.150400
H45   H     H_    0.642274 0.835437 0.568572 0.107213
H46   H     H_    0.824359 0.544330 0.139170 0.119923
H47   H     H_    0.752251 0.665034 0.969261 0.185334
H48   H     H_    0.706496 0.528250 0.993916 0.143609
H49   H     H_    0.642183 0.530755 0.126692 0.154448
H50   H     H_    0.587764 0.590121 0.028000 0.167530
H51   H     H_    0.687403 0.668222 0.101646 0.144307
H52   H     H_    0.317595 0.764629 0.490936 0.116236
H53   H     H_    0.071263 0.850977 0.480193 0.124629
H54   H     H_    0.363133 0.143424 0.539769 0.130493
H55   H     H_    0.813785 0.964106 0.570137 0.111524
I1    I     I_    0.234861 0.581199 0.932473 -0.468604
N1    N     N_R   0.795410 0.560790 0.443550 -0.231808
N2    N     N_R   0.204590 0.439170 0.556520 -0.238652
O1    O     O_R   0.977910 0.338120 0.529720 -0.462004
O2    O     O_3   0.555415 0.204422 0.583937 -0.596038
O3    O     O_3   0.905168 0.611423 0.874866 -0.530831
O4    O     O_3   0.911580 0.617376 0.035256 -0.527786
O5    O     O_R   0.839850 0.379180 0.491640 -0.512784
O6    O     O_R   0.069060 0.479460 0.639610 -0.484308
O7    O     O_R   0.931000 0.520530 0.601530 -0.510755
O8    O     O_R   0.160150 0.620820 0.508360 -0.504317
O9    O     O_R   0.022090 0.661880 0.470280 -0.503708
O10   O     O_R   0.069000 0.479470 0.398470 -0.508732
O11   O     O_R   0.930940 0.520540 0.360390 -0.501625
O12   O     O_3   0.953770 0.147486 0.550835 -0.560727

loop_
_geom_bond_atom_site_label_1
_geom_bond_atom_site_label_2
_ccdc_geom_bond_type
C8    C13   A    
C18   C21   A    
C19   C20   A    
C49   H26   S    
C1    C62   S    
C7    C8    A    
C53   C54   S    
C40   C46   S    
C12   C23   S    
C26   C27   A    
C39   N2    A    
C55   H41   S    
C25   H13   S    
C47   H21   S    
C54   H40   S    
C36   C37   A    
C30   C31   A    
Cu2   N1    S    
C29   C33   A    
C52   H33   S    
C23   C43   S    
C15   C17   A    
C42   C46   S    
Cu1   O8    S    
C16   O9    A    
C13   H45   S    
C42   O3    S    
C34   H34   S    
Cu2   O11   S    
C35   C36   A    
C53   H37   S    
C40   H3    S    
C39   H8    S    
C48   H24   S    
C16   O8    A    
C9    C10   A    
Cu1   O6    S    
C51   H32   S    
C41   H7    S    
C23   C34   S    
C45   H19   S    
C42   H17   S    
C34   H20   S    
C49   H27   S    
C21   H52   S    
C43   O4    S    
C20   H53   S    
C50   C51   S    
C5    O12   S    
C14   O2    S    
C4    O6    A    
C55   H42   S    
C2    C20   A    
C28   O11   A    
C47   H22   S    
C54   H39   S    
C23   C56   S    
C50   O2    S    
C3    C8    A    
C57   O4    S    
C50   H30   S    
C32   H6    S    
C58   C59   S    
C45   C46   S    
C4    C61   S    
C28   C44   S    
C58   H47   S    
C30   C37   A    
C55   H43   S    
C60   C61   T    
C28   O10   A    
C41   N2    A    
C12   C40   S    
C9    C14   A    
C1    O1    A    
C29   C30   A    
C44   C56   T    
C47   C48   S    
Cu2   O9    S    
C53   H38   S    
C59   H49   S    
Cu2   O5    S    
C2    C21   A    
C17   C18   A    
C24   H11   S    
C34   C45   S    
Cu1   O10   S    
C4    O7    A    
C53   O3    S    
C50   H29   S    
C45   I1    S    
C48   C49   S    
C48   H25   S    
C47   O12   S    
C58   H48   S    
C19   H5    S    
C42   C43   S    
C22   H10   S    
C49   H28   S    
C17   C19   A    
Cu1   N2    S    
C2    C16   S    
C11   H4    S    
C31   H14   S    
C7    C9    A    
C54   C55   S    
C35   H9    S    
C12   H23   S    
C46   C60   S    
C27   C32   A    
C31   C32   A    
C33   H15   S    
C1    O5    A    
C3    C5    A    
Cu1   O1    S    
C3    H55   S    
C57   H46   S    
C6    C7    A    
C12   H1    S    
C52   H35   S    
C15   H54   S    
C22   C27   A    
C6    C62   A    
C36   C38   A    
C25   C26   A    
C51   C52   S    
C11   C13   A    
C57   C58   S    
C38   C39   A    
C38   H16   S    
C10   C18   A    
C59   H50   S    
C24   N1    A    
C33   C35   A    
C52   H36   S    
C5    C62   A    
C22   C24   A    
C37   C41   A    
C10   C11   A    
Cu1   Cu2   S    
C40   H12   S    
C6    H2    S    
C57   H44   S    
Cu2   O7    S    
C26   C29   A    
C59   H51   S    
C43   H18   S    
C14   C15   A    
C25   N1    A    
C51   H31   S    
