data_mof_unit_1302.cif
_audit_creation_date              2012-12-11T17:29:45-0500
_audit_creation_method            fapswitch 2.2
_symmetry_space_group_name_H-M    P1
_symmetry_Int_Tables_number       1
_space_group_crystal_system       triclinic
_cell_length_a                    19.218179
_cell_length_b                    18.867607
_cell_length_c                    20.350882
_cell_angle_alpha                 107.201499
_cell_angle_beta                  106.674534
_cell_angle_gamma                 111.160174
_cell_volume                      5897.14518017

loop_
_atom_site_label
_atom_site_type_symbol
_atom_type_description
_atom_site_fract_x
_atom_site_fract_y
_atom_site_fract_z
_atom_type_partial_charge
C1    C     C_R   0.029684 0.087096 0.346011 -0.117374
C2    C     C_R   0.747714 0.000477 0.467662 -0.112832
C3    C     C_R   0.772867 0.725008 0.289072 0.107624
C4    C     C_R   0.059614 0.293000 0.555200 0.028400
C5    C     C_R   0.238417 0.199890 0.655284 -0.149163
C6    C     C_R   0.972343 0.795628 0.542544 -0.129648
C7    C     C_R   0.169120 0.932471 0.434120 -0.249131
C8    C     C_R   0.996968 0.055482 0.715737 -0.153333
C9    C     C_R   0.922352 0.914772 0.651964 0.024396
C10   C     C_R   0.239759 0.074107 0.500447 0.579681
C11   C     C_R   0.161226 0.193067 0.719848 -0.103159
C12   C     C_R   0.756079 0.928938 0.455561 -0.241178
C13   C     C_R   0.048684 0.802237 0.477715 -0.119976
C14   C     C_R   0.242378 0.223960 0.728086 0.019775
C15   C     C_R   0.032721 0.776336 0.531294 0.058488
C16   C     C_R   0.242053 0.003378 0.457852 -0.062713
C17   C     C_R   0.957059 0.983977 0.723300 -0.015252
C18   C     C_R   0.127152 0.713890 0.546144 -0.265628
C19   C     C_R   0.070882 0.734246 0.567465 0.107587
C20   C     C_R   0.044910 0.706397 0.617339 -0.207298
C21   C     C_R   0.062738 0.646955 0.634633 0.072964
C22   C     C_R   0.109544 0.617607 0.603904 0.028523
C23   C     C_R   0.847619 0.775238 0.290807 -0.157194
C24   C     C_R   0.145545 0.654531 0.562917 0.162446
C25   C     C_R   0.027840 0.610714 0.675974 -0.382606
C26   C     C_R   0.030030 0.538203 0.678748 0.621913
C27   C     C_R   0.070590 0.504109 0.642081 -0.048335
C28   C     C_R   0.113857 0.546358 0.607923 -0.032040
C29   C     C_R   0.154483 0.512571 0.571004 0.176071
C30   C     C_R   0.197054 0.554800 0.536989 -0.224719
C31   C     C_R   0.192607 0.625584 0.532960 -0.212166
C32   C     C_R   0.061230 0.424185 0.631734 -0.250685
C33   C     C_R   0.091919 0.385377 0.586019 0.096884
C34   C     C_R   0.006735 0.238743 0.573394 -0.095852
C35   C     C_R   0.144535 0.432808 0.561620 -0.252648
C36   C     C_R   0.364023 0.995734 0.515927 -0.299664
C37   C     C_R   0.312948 0.999390 0.454520 0.129616
C38   C     C_R   0.328155 0.996815 0.391259 -0.251860
C39   C     C_R   0.398771 0.993320 0.390488 0.123460
C40   C     C_R   0.452350 0.991693 0.453626 0.027969
C41   C     C_R   0.434303 0.992248 0.516288 0.148706
C42   C     C_R   0.417426 0.992624 0.328720 -0.203213
C43   C     C_R   0.489903 0.991722 0.329930 -0.205203
C44   C     C_R   0.543890 0.991614 0.392951 0.140404
C45   C     C_R   0.771375 0.771134 0.354832 -0.139444
C46   C     C_R   0.524618 0.990960 0.454896 0.023604
C47   C     C_R   0.578531 0.991127 0.518953 0.119627
C48   C     C_R   0.559449 0.990147 0.580090 -0.202710
C49   C     C_R   0.487194 0.990630 0.578722 -0.209766
C50   C     C_R   0.617688 0.993566 0.396224 -0.299744
C51   C     C_R   0.670778 0.996097 0.460927 0.151474
C52   C     C_R   0.651589 0.993742 0.521357 -0.226808
C53   C     C_R   0.318509 0.269390 0.800297 0.084314
C54   C     C_R   0.325927 0.327618 0.867861 0.001170
C55   C     C_R   0.396575 0.362697 0.936295 -0.226338
C56   C     C_R   0.081620 0.244699 0.508250 -0.102545
C57   C     C_R   0.461448 0.344199 0.937967 0.226866
C58   C     C_R   0.455752 0.290254 0.870537 -0.186820
C59   C     C_R   0.384016 0.251675 0.802302 -0.196624
C60   C     C_R   0.679586 0.498295 0.140505 -0.048663
C61   C     C_R   0.737588 0.583134 0.193259 -0.246523
C62   C     C_R   0.596425 0.465704 0.131409 0.005441
C63   C     C_R   0.714691 0.634086 0.238055 0.083162
C64   C     C_R   0.635483 0.597535 0.235106 -0.380368
C65   C     C_R   0.576055 0.513923 0.181573 0.629109
C66   C     C_R   0.918562 0.018288 0.203500 0.006656
C67   C     C_R   0.824823 0.070803 0.521217 0.612163
C68   C     C_R   0.875652 0.942056 0.135015 -0.339708
C69   C     C_R   0.836592 0.938664 0.064501 0.626401
C70   C     C_R   0.847290 0.014470 0.060405 0.040356
C71   C     C_R   0.881358 0.088818 0.127578 -0.311621
C72   C     C_R   0.914195 0.090776 0.199790 0.028113
C73   C     C_R   0.001103 0.051276 0.928704 -0.193534
C74   C     C_R   0.011792 0.035995 0.862344 -0.188548
C75   C     C_R   0.921397 0.021420 0.924543 0.243273
C76   C     C_R   0.942553 0.989116 0.790601 0.135765
C77   C     C_R   0.862101 0.958718 0.785521 -0.182930
C78   C     C_R   0.960845 0.945975 0.282891 -0.125298
C79   C     C_R   0.851314 0.974469 0.852377 -0.161893
C80   C     C_R   0.969048 0.018682 0.274749 0.075413
H1    H     H_    0.052307 0.153759 0.361765 0.119199
H2    H     H_    0.945953 0.783583 0.580259 0.115917
H3    H     H_    0.148907 0.868265 0.394609 0.138355
H4    H     H_    0.017479 0.119817 0.755098 0.115316
H5    H     H_    0.142131 0.200602 0.765164 0.109248
H6    H     H_    0.091660 0.797070 0.454960 0.096945
H7    H     H_    0.151581 0.738280 0.511170 0.119335
H8    H     H_    0.005077 0.724856 0.637748 0.119762
H9    H     H_    0.994548 0.635393 0.702193 0.158905
H10   H     H_    0.707035 0.863614 0.422123 0.142270
H11   H     H_    0.023541 0.389630 0.653631 0.164210
H12   H     H_    0.171144 0.405042 0.528620 0.120652
H13   H     H_    0.229254 0.529968 0.509251 0.131091
H14   H     H_    0.221548 0.654288 0.502276 0.132002
H15   H     H_    0.349135 0.996712 0.563701 0.126980
H16   H     H_    0.285950 0.998688 0.344012 0.138422
H17   H     H_    0.376502 0.993633 0.280064 0.134090
H18   H     H_    0.504207 0.992065 0.282208 0.131238
H19   H     H_    0.634764 0.994848 0.350029 0.132230
H20   H     H_    0.874647 0.754275 0.254488 0.092530
H21   H     H_    0.694410 0.994848 0.570488 0.131468
H22   H     H_    0.600768 0.989966 0.629114 0.130797
H23   H     H_    0.473163 0.990797 0.626681 0.130495
H24   H     H_    0.800623 0.609028 0.199483 0.129683
H25   H     H_    0.506802 0.278132 0.870972 0.129526
H26   H     H_    0.379612 0.207600 0.751012 0.119823
H27   H     H_    0.617902 0.634799 0.271656 0.140696
H28   H     H_    0.403790 0.409216 0.987822 0.140104
H29   H     H_    0.990032 0.257394 0.619392 0.150497
H30   H     H_    0.074263 0.061084 0.866840 0.128358
H31   H     H_    0.055210 0.085817 0.983839 0.127051
H32   H     H_    0.885688 0.146053 0.123352 0.156141
H33   H     H_    0.808179 0.924388 0.730298 0.131253
H34   H     H_    0.788824 0.948716 0.847632 0.125448
H35   H     H_    0.875382 0.884469 0.133931 0.155709
H36   H     H_    0.730159 0.746146 0.378538 0.086554
H37   H     H_    0.130984 0.268276 0.492110 0.102417
H38   H     H_    0.917736 0.881104 0.241162 0.102204
H39   H     H_    0.290150 0.215164 0.641251 0.148782
N1    N     N_R   0.052570 0.055840 0.395080 -0.041746
N2    N     N_R   0.954640 0.834860 0.500130 -0.040937
N3    N     N_R   0.122510 0.958410 0.460270 -0.067777
N4    N     N_R   0.990190 0.031260 0.644790 -0.048219
N5    N     N_R   0.947430 0.944160 0.604920 -0.059513
N6    N     N_R   0.165270 0.045500 0.500140 -0.092090
N7    N     N_R   0.109810 0.150880 0.644800 -0.045509
N8    N     N_R   0.002890 0.838790 0.460260 -0.037878
N9    N     N_2   0.537666 0.392107 0.004613 -0.088271
N10   N     N_2   0.527805 0.396561 0.063301 -0.062995
N11   N     N_2   0.847425 0.019585 0.992889 -0.084030
N12   N     N_R   0.834730 0.954500 0.499860 -0.077059
N13   N     N_2   0.915351 0.029441 0.993525 -0.072852
N14   N     N_R   0.890190 0.849120 0.355200 -0.040240
N15   N     N_R   0.997110 0.161210 0.539740 -0.053112
N16   N     N_R   0.841940 0.845190 0.395070 -0.038252
N17   N     N_R   0.045360 0.165140 0.499870 -0.050940
N18   N     N_R   0.877490 0.041590 0.539730 -0.094426
N19   N     N_R   0.009810 0.968740 0.355210 -0.043808
N20   N     N_R   0.158060 0.154810 0.604930 -0.038303
Ni1   Ni    Ni4+2 0.104370 0.104380 0.500010 0.249134
Ni2   Ni    Ni4+2 0.895630 0.895620 0.499990 0.199325
Ni3   Ni    Ni4+2 0.006290 0.904630 0.408560 0.203442
Ni4   Ni    Ni4+2 0.993710 0.095370 0.591440 0.224756
C81   C     C_R   0.855459 0.828342 0.626998 0.084491
C82   C     C_R   0.860266 0.788469 0.675345 -0.168552
C83   C     C_R   0.798440 0.705823 0.650840 -0.110509
C84   C     C_R   0.731506 0.662214 0.577932 -0.083292
C85   C     C_R   0.726363 0.701191 0.529414 -0.117639
C86   C     C_R   0.788083 0.783814 0.553765 -0.149972
H40   H     H_    0.912546 0.820619 0.731412 0.125431
H41   H     H_    0.802701 0.675402 0.688225 0.112567
H42   H     H_    0.683759 0.598178 0.558973 0.103637
H43   H     H_    0.674578 0.667379 0.472873 0.111346
H44   H     H_    0.782860 0.812999 0.515709 0.118329
O1    O     O_3   0.285357 0.156598 0.512276 -0.629480
C87   C     C_3   0.371432 0.186620 0.550874 -0.300264
H45   H     H_    0.395924 0.167881 0.509390 0.177521
H46   H     H_    0.387318 0.165790 0.596333 0.119560
H47   H     H_    0.403560 0.257059 0.579756 0.173944
O2    O     O_3   0.992486 0.500426 0.717056 -0.618518
C88   C     C_3   0.905469 0.456038 0.672361 -0.272653
H48   H     H_    0.880521 0.500632 0.670963 0.142687
H49   H     H_    0.887078 0.410827 0.612957 0.121558
H50   H     H_    0.876342 0.418214 0.698981 0.180576
C89   C     C_R   0.706238 0.445120 0.095298 0.182453
C90   C     C_R   0.682059 0.361732 0.086388 -0.138714
C91   C     C_R   0.706442 0.311287 0.043431 -0.125374
C92   C     C_R   0.755173 0.343516 0.009085 -0.093683
C93   C     C_R   0.779641 0.426277 0.017646 -0.114595
C94   C     C_R   0.755432 0.477000 0.060556 -0.162861
H51   H     H_    0.644588 0.335896 0.112915 0.116075
H52   H     H_    0.687589 0.247187 0.036822 0.113235
H53   H     H_    0.773945 0.304349 0.975809 0.105833
H54   H     H_    0.817203 0.451084 0.990824 0.114332
H55   H     H_    0.774107 0.540597 0.065713 0.113109
O3    O     O_3   0.495758 0.478398 0.174799 -0.611592
C95   C     C_3   0.456743 0.524606 0.154759 -0.259551
H56   H     H_    0.469257 0.542278 0.110074 0.122700
H57   H     H_    0.475701 0.582156 0.206295 0.145167
H58   H     H_    0.388497 0.483982 0.130618 0.173194
C96   C     C_R   0.264946 0.358377 0.868014 0.116804
C97   C     C_R   0.244287 0.394116 0.818820 -0.140939
C98   C     C_R   0.186045 0.422050 0.818389 -0.114831
C99   C     C_R   0.148447 0.415142 0.867312 -0.078747
C100  C     C_R   0.169413 0.380740 0.917106 -0.122477
C101  C     C_R   0.227693 0.352754 0.917793 -0.181661
H59   H     H_    0.273078 0.400063 0.780709 0.118024
H60   H     H_    0.170223 0.449235 0.780261 0.132779
H61   H     H_    0.103272 0.436698 0.866806 0.125377
H62   H     H_    0.140390 0.375624 0.955108 0.114177
H63   H     H_    0.242953 0.325705 0.956296 0.122485
C102  C     C_R   0.938680 0.167302 0.268183 0.133637
C103  C     C_R   0.995995 0.248270 0.282131 -0.177454
C104  C     C_R   0.012972 0.320977 0.342774 -0.121514
C105  C     C_R   0.972132 0.313461 0.389153 -0.079291
C106  C     C_R   0.915734 0.233218 0.376166 -0.103634
C107  C     C_R   0.899054 0.160274 0.316046 -0.155273
H64   H     H_    0.026873 0.255028 0.245671 0.119245
H65   H     H_    0.057000 0.383218 0.353241 0.117609
H66   H     H_    0.984150 0.369812 0.435184 0.117802
H67   H     H_    0.884655 0.227700 0.412497 0.106774
H68   H     H_    0.854062 0.098540 0.305785 0.112451
O4    O     O_3   0.804420 0.864570 0.999021 -0.609596
C108  C     C_3   0.717934 0.831901 0.959764 -0.265111
H69   H     H_    0.703577 0.874234 0.936864 0.135955
H70   H     H_    0.686801 0.820830 0.997039 0.129429
H71   H     H_    0.691567 0.769680 0.910140 0.178420
O5    O     O_3   0.842158 0.152628 0.564091 -0.638427
C109  C     C_3   0.800437 0.181374 0.518194 -0.285500
H72   H     H_    0.739631 0.167299 0.519316 0.174187
H73   H     H_    0.791901 0.154832 0.457970 0.118700
H74   H     H_    0.838297 0.251407 0.543235 0.160644

loop_
_geom_bond_atom_site_label_1
_geom_bond_atom_site_label_2
_ccdc_geom_bond_type
C66   C68   A    
O4    C108  S    
C89   C90   A    
C6    H2    S    
C12   N12   A    
C56   H37   S    
C3    C23   A    
C19   C20   A    
C36   H15   S    
C43   H18   S    
N17   Ni1   S    
C2    C12   A    
N9    N10   D    
C9    N5    A    
C57   N9    S    
C88   H48   S    
C53   C59   A    
N4    N5    A    
C96   C97   A    
C40   C46   A    
C50   H19   S    
C81   C86   A    
C74   C76   A    
C5    H39   S    
C18   C24   A    
C12   H10   S    
C28   C29   A    
C78   H38   S    
N2    N8    A    
C30   H13   S    
C82   C83   A    
C38   C39   A    
C11   C14   A    
C78   C80   A    
C32   H11   S    
O3    C95   S    
C34   N15   A    
C1    H1    S    
C103  H64   S    
N7    Ni4   S    
C70   N11   S    
C109  H74   S    
C99   C100  A    
C60   C62   A    
C18   C19   A    
C73   C74   A    
C101  H63   S    
C61   C63   A    
C97   C98   A    
C56   N17   A    
C6    C15   A    
C46   C47   A    
C66   C72   A    
C100  C101  A    
C84   C85   A    
O5    C109  S    
C95   H57   S    
C13   H6    S    
C17   C76   S    
C93   H54   S    
C26   O2    S    
C70   C71   A    
N1    Ni1   S    
C83   H41   S    
C10   N6    A    
C82   H40   S    
N12   Ni2   S    
C16   C37   S    
C35   H12   S    
C104  C105  A    
N18   Ni4   S    
C90   H51   S    
C22   C28   A    
C21   C22   A    
C4    C56   A    
C73   C75   A    
C62   N10   S    
C36   C41   A    
C77   H33   S    
C78   N19   A    
C5    N20   A    
C41   C49   A    
C88   H49   S    
C9    C81   S    
C44   C46   A    
C73   H31   S    
C39   C42   A    
C57   C58   A    
C94   H55   S    
C77   C79   A    
N6    Ni1   S    
C92   H53   S    
C52   H21   S    
C4    C34   A    
N7    N20   A    
C45   N16   A    
C59   H26   S    
C23   N14   A    
C51   C52   A    
C93   C94   A    
N2    Ni2   S    
C100  H62   S    
C11   N7    A    
C76   C77   A    
C109  H72   S    
C2    C67   A    
N19   Ni3   S    
C42   H17   S    
C39   C40   A    
C68   C69   A    
N15   N17   A    
C58   C59   A    
C53   C54   A    
C3    C45   A    
C105  C106  A    
C32   C33   A    
C60   C61   A    
N8    Ni3   S    
C87   H45   S    
C15   C19   S    
C86   H44   S    
C98   C99   A    
C74   H30   S    
C37   C38   A    
N12   N18   A    
C104  H65   S    
C108  H71   S    
N20   Ni1   S    
C95   H58   S    
C48   H22   S    
C71   H32   S    
C61   H24   S    
C50   C51   A    
N14   Ni3   S    
C54   C96   S    
C107  H68   S    
C102  C107  A    
C85   C86   A    
C5    C14   A    
C47   C52   A    
C83   C84   A    
C95   H56   S    
C9    C17   A    
C40   C41   A    
C108  H70   S    
C69   O4    S    
C55   C57   A    
C43   C44   A    
C26   C27   A    
C90   C91   A    
C22   C24   A    
N5    Ni2   S    
N1    N19   A    
C42   C43   A    
N3    Ni3   S    
C7    N3    A    
N4    Ni4   S    
C20   C21   A    
C91   C92   A    
C88   H50   S    
C75   N13   S    
C64   H27   S    
C105  H66   S    
C44   C50   A    
C89   C94   A    
C1    C80   A    
C4    C33   S    
C21   C25   A    
C54   C55   A    
C92   C93   A    
C62   C65   A    
C27   C32   A    
C8    H4    S    
C87   H47   S    
C7    C16   A    
C18   H7    S    
C106  C107  A    
C47   C48   A    
C10   O1    S    
C49   H23   S    
C96   C101  A    
C8    N4    A    
C91   H52   S    
C3    C63   S    
C31   H14   S    
C66   C80   S    
C29   C35   A    
C25   H9    S    
C60   C89   S    
C55   H28   S    
C81   C82   A    
N11   N13   D    
C102  C103  A    
C58   H25   S    
N3    N6    A    
C13   C15   A    
C84   H42   S    
C25   C26   A    
C24   C31   A    
C71   C72   A    
C65   O3    S    
C10   C16   A    
C98   H60   S    
C64   C65   A    
C8    C17   A    
C45   H36   S    
C7    H3    S    
C30   C31   A    
C11   H5    S    
C48   C49   A    
C20   H8    S    
C87   H46   S    
C33   C35   A    
C72   C102  S    
C23   H20   S    
C97   H59   S    
C69   C70   A    
C67   N18   A    
O2    C88   S    
C2    C51   S    
C68   H35   S    
C29   C30   A    
C63   C64   A    
C13   N8    A    
N16   Ni2   S    
C14   C53   S    
C108  H69   S    
C36   C37   A    
C103  C104  A    
C85   H43   S    
C79   H34   S    
C38   H16   S    
C27   C28   A    
N14   N16   A    
C34   H29   S    
C109  H73   S    
C99   H61   S    
N15   Ni4   S    
C6    N2    A    
C106  H67   S    
O1    C87   S    
C75   C79   A    
C1    N1    A    
C67   O5    S    
