data_mof_unit_1954.cif
_audit_creation_date              2012-12-11T17:36:14-0500
_audit_creation_method            fapswitch 2.2
_symmetry_space_group_name_H-M    P1
_symmetry_Int_Tables_number       1
_space_group_crystal_system       triclinic
_cell_length_a                    25.857551
_cell_length_b                    6.903866
_cell_length_c                    21.694896
_cell_angle_alpha                 90.071178
_cell_angle_beta                  96.062359
_cell_angle_gamma                 90.086072
_cell_volume                      3851.24195242

loop_
_atom_site_label
_atom_site_type_symbol
_atom_type_description
_atom_site_fract_x
_atom_site_fract_y
_atom_site_fract_z
_atom_type_partial_charge
O1    O     O_R   0.208650 0.594520 0.175450 -0.534467
O2    O     O_R   0.791350 0.405480 0.824550 -0.534467
O3    O     O_R   0.291350 0.094520 0.324550 -0.534396
O4    O     O_R   0.708650 0.905480 0.675450 -0.534396
O5    O     O_R   0.192980 0.260780 0.300160 -0.541066
O6    O     O_R   0.807020 0.739220 0.699840 -0.541067
O7    O     O_R   0.307020 0.760780 0.199840 -0.540817
O8    O     O_R   0.692980 0.239220 0.800160 -0.540817
C1    C     C_R   0.178791 0.432852 0.318427 0.683993
C2    C     C_R   0.821209 0.567148 0.681573 0.683994
C3    C     C_R   0.321201 0.932896 0.181573 0.683066
C4    C     C_R   0.678799 0.067104 0.818427 0.683065
O9    O     O_R   0.202550 0.264660 0.174420 -0.537194
O10   O     O_R   0.797450 0.735340 0.825580 -0.537194
O11   O     O_R   0.297450 0.764660 0.325580 -0.535813
O12   O     O_R   0.702550 0.235340 0.674420 -0.535813
O13   O     O_R   0.300990 0.096480 0.197920 -0.539489
O14   O     O_R   0.699010 0.903520 0.802080 -0.539489
O15   O     O_R   0.199010 0.596480 0.302080 -0.539411
O16   O     O_R   0.800990 0.403520 0.697920 -0.539412
C5    C     C_R   0.191046 0.433106 0.151091 0.699653
C6    C     C_R   0.808954 0.566894 0.848909 0.699652
C7    C     C_R   0.308920 0.933615 0.348857 0.701001
C8    C     C_R   0.691080 0.066385 0.651143 0.701001
O17   O     O_3   0.282290 0.427760 0.257860 -0.364280
O18   O     O_3   0.717710 0.572240 0.742140 -0.364280
O19   O     O_3   0.217710 0.927760 0.242140 -0.365371
O20   O     O_3   0.782290 0.072240 0.757860 -0.365371
V1    V     V_3+5 0.244010 0.152080 0.248540 1.416827
V2    V     V_3+5 0.755990 0.847920 0.751460 1.416827
V3    V     V_3+5 0.255990 0.652080 0.251460 1.419220
V4    V     V_3+5 0.744010 0.347920 0.748540 1.419220
C9    C     C_R   0.657589 0.059161 0.591828 -0.045919
C10   C     C_R   0.342411 0.940838 0.408172 -0.045919
C11   C     C_R   0.842417 0.562442 0.908385 -0.048344
C12   C     C_R   0.157583 0.437558 0.091615 -0.048343
C13   C     C_R   0.648443 0.096466 0.480705 -0.100347
C14   C     C_R   0.351558 0.903525 0.519294 -0.100347
C15   C     C_R   0.853730 0.637026 0.017666 -0.105917
C16   C     C_R   0.146270 0.362981 0.982334 -0.105918
C17   C     C_R   0.679624 0.089791 0.536914 -0.184053
C18   C     C_R   0.320376 0.910202 0.463085 -0.184053
C19   C     C_R   0.822426 0.628656 0.961582 -0.183836
C20   C     C_R   0.177574 0.371350 0.038417 -0.183835
C21   C     C_R   0.603763 0.029197 0.590078 -0.197995
C22   C     C_R   0.396237 0.970805 0.409922 -0.197995
C23   C     C_R   0.895118 0.510803 0.911186 -0.202339
C24   C     C_R   0.104881 0.489194 0.088815 -0.202338
C25   C     C_R   0.570659 0.032385 0.533022 0.076317
C26   C     C_R   0.429342 0.967614 0.466978 0.076317
C27   C     C_R   0.928986 0.526070 0.967530 0.074329
C28   C     C_R   0.071013 0.473930 0.032470 0.074329
C29   C     C_R   0.593832 0.075858 0.477824 0.104593
C30   C     C_R   0.406168 0.924136 0.522176 0.104594
C31   C     C_R   0.906607 0.581860 0.022192 0.103425
C32   C     C_R   0.093393 0.418144 0.977808 0.103425
C33   C     C_R   0.515606 0.994985 0.529192 0.061150
C34   C     C_R   0.484394 0.005013 0.470808 0.061150
C35   C     C_R   0.984140 0.491174 0.971047 0.059508
C36   C     C_R   0.015860 0.508827 0.028953 0.059509
C37   C     C_R   0.508888 0.056852 0.418135 -0.250997
C38   C     C_R   0.491112 0.943142 0.581864 -0.250998
C39   C     C_R   0.991289 0.555191 0.082045 -0.259188
C40   C     C_R   0.008711 0.444812 0.917956 -0.259188
C41   C     C_R   0.562117 0.094585 0.420909 -0.027558
C42   C     C_R   0.437883 0.905406 0.579090 -0.027556
C43   C     C_R   0.937878 0.587841 0.079728 -0.033837
C44   C     C_R   0.062122 0.412165 0.920271 -0.033836
H1    H     H_    0.410752 0.991655 0.365695 0.094129
H2    H     H_    0.589247 0.008353 0.634305 0.094128
H3    H     H_    0.091766 0.536638 0.131787 0.096592
H4    H     H_    0.908234 0.463353 0.868214 0.096593
H5    H     H_    0.278746 0.889844 0.462404 0.113716
H6    H     H_    0.721254 0.110147 0.537596 0.113716
H7    H     H_    0.217735 0.324866 0.040367 0.115979
H8    H     H_    0.782266 0.675143 0.959632 0.115980
H9    H     H_    0.668072 0.115763 0.439622 0.171852
H10   H     H_    0.331929 0.884224 0.560377 0.171852
H11   H     H_    0.836111 0.694018 0.056816 0.172040
H12   H     H_    0.163889 0.305993 0.943184 0.172040
H13   H     H_    0.487099 0.075938 0.373503 0.114756
H14   H     H_    0.512901 0.924053 0.626496 0.114756
H15   H     H_    0.012625 0.561996 0.127330 0.115007
H16   H     H_    0.987375 0.438010 0.872670 0.115007
C45   C     C_R   0.427294 0.793725 0.079344 -0.125490
C46   C     C_R   0.572706 0.206275 0.920656 -0.125490
C47   C     C_R   0.072766 0.293562 0.420797 -0.124841
C48   C     C_R   0.927234 0.706438 0.579202 -0.124841
H17   H     H_    0.445457 0.663191 0.064230 0.107093
H18   H     H_    0.554543 0.336809 0.935770 0.107093
H19   H     H_    0.054659 0.162981 0.436028 0.106852
H20   H     H_    0.945341 0.837019 0.563972 0.106852
C49   C     C_R   0.388040 0.778775 0.119301 -0.164967
C50   C     C_R   0.611960 0.221225 0.880699 -0.164967
C51   C     C_R   0.112019 0.278601 0.380838 -0.166064
C52   C     C_R   0.887981 0.721399 0.619162 -0.166065
H21   H     H_    0.376825 0.636400 0.134030 0.118775
H22   H     H_    0.623175 0.363600 0.865970 0.118775
H23   H     H_    0.123292 0.136180 0.366227 0.118144
H24   H     H_    0.876708 0.863820 0.633773 0.118144
C53   C     C_R   0.363556 0.945878 0.139705 -0.058139
C54   C     C_R   0.636444 0.054121 0.860295 -0.058140
C55   C     C_R   0.136432 0.445770 0.360289 -0.057511
C56   C     C_R   0.863568 0.554230 0.639711 -0.057510
C57   C     C_R   0.379656 0.127857 0.119011 -0.165461
C58   C     C_R   0.620344 0.872143 0.880989 -0.165461
C59   C     C_R   0.120263 0.627815 0.380838 -0.165213
C60   C     C_R   0.879737 0.372185 0.619162 -0.165213
H25   H     H_    0.361901 0.260064 0.133392 0.122571
H26   H     H_    0.638099 0.739936 0.866608 0.122571
H27   H     H_    0.137959 0.760081 0.366341 0.122042
H28   H     H_    0.862041 0.239919 0.633659 0.122042
C61   C     C_R   0.418791 0.142307 0.079187 -0.130459
C62   C     C_R   0.581209 0.857693 0.920813 -0.130459
C63   C     C_R   0.081132 0.642274 0.420663 -0.130478
C64   C     C_R   0.918868 0.357726 0.579337 -0.130478
H29   H     H_    0.430209 0.284051 0.064009 0.107138
H30   H     H_    0.569791 0.715949 0.935991 0.107138
H31   H     H_    0.069663 0.784076 0.435724 0.106820
H32   H     H_    0.930337 0.215924 0.564276 0.106820
C65   C     C_R   0.442836 0.975644 0.058998 0.130066
C66   C     C_R   0.557164 0.024356 0.941002 0.130066
C67   C     C_R   0.057157 0.475557 0.440999 0.130999
C68   C     C_R   0.942843 0.524443 0.559001 0.130999
C69   C     C_1   0.483180 0.992355 0.017390 -0.049479
C70   C     C_1   0.516820 0.007645 0.982609 -0.049479
C71   C     C_1   0.016818 0.492319 0.482609 -0.048477
C72   C     C_1   0.983182 0.507681 0.517391 -0.048477
C73   C     C_2   0.581823 0.160162 0.362440 0.369197
H33   H     H_    0.564414 0.103178 0.318371 0.057679
O21   O     O_2   0.614751 0.287033 0.362303 -0.523011
C74   C     C_2   0.418178 0.839824 0.637559 0.369196
H34   H     H_    0.435586 0.896805 0.681628 0.057680
O22   O     O_2   0.385250 0.712951 0.637695 -0.523012
C75   C     C_2   0.916936 0.622786 0.140000 0.372000
H35   H     H_    0.940614 0.698506 0.176758 0.054338
O23   O     O_2   0.875022 0.556756 0.150830 -0.518645
C76   C     C_2   0.083064 0.377225 0.859999 0.372000
H36   H     H_    0.059386 0.301505 0.823242 0.054338
O24   O     O_2   0.124977 0.443257 0.849170 -0.518646

loop_
_geom_bond_atom_site_label_1
_geom_bond_atom_site_label_2
_ccdc_geom_bond_type
O17   V3    S    
C48   C52   A    
O1    C5    A    
C47   H19   S    
O19   V1    S    
C9    C21   A    
O3    C7    A    
C10   C18   A    
C48   C68   A    
C11   C23   A    
C25   C33   A    
C75   H35   S    
C5    C12   S    
O7    C3    A    
C6    C11   S    
O5    C1    A    
C26   C30   A    
C58   C62   A    
C36   C39   A    
C40   C44   A    
C57   C61   A    
C44   C76   S    
C14   C18   A    
C58   H26   S    
O4    C8    A    
C51   H23   S    
C50   H22   S    
O1    V3    S    
O13   V1    S    
C31   C43   A    
O2    V4    S    
O3    V1    S    
C40   H16   S    
C22   H1    S    
C46   C50   A    
C17   H6    S    
C45   C49   A    
C1    O15   A    
C15   C31   A    
C48   H20   S    
C2    O16   A    
C74   H34   S    
C16   C32   A    
C47   C51   A    
O2    C6    A    
C16   H12   S    
C45   C65   A    
C10   C22   A    
C11   C19   A    
C16   C20   A    
O5    V1    S    
C1    C55   S    
C68   C72   S    
C13   C29   A    
C34   C37   A    
O11   C7    A    
C38   H14   S    
O15   V3    S    
C35   C36   A    
O12   C8    A    
C53   C57   A    
O10   V2    S    
C51   C55   A    
C42   C74   S    
O17   V1    S    
C39   C43   A    
C63   C67   A    
C38   C42   A    
O19   V3    S    
O8    V4    S    
O20   V4    S    
O7    V3    S    
C46   H18   S    
C49   C53   A    
C45   H17   S    
O18   V4    S    
C15   C19   A    
C14   H10   S    
C33   C38   A    
C32   C44   A    
C13   H9    S    
C60   H28   S    
C39   H15   S    
C26   C34   A    
C66   C70   S    
C20   H7    S    
C43   C75   S    
C4    C54   S    
C37   C41   A    
C41   C73   S    
C14   C30   A    
C21   C25   A    
O8    C4    A    
C7    C10   S    
C35   C40   A    
O9    C5    A    
C3    C53   S    
C59   C63   A    
C62   H30   S    
C76   O24   D    
C61   H29   S    
C74   O22   D    
O6    V2    S    
C65   C69   S    
O18   V2    S    
C63   H31   S    
C52   C56   A    
C69   C70   T    
C12   C20   A    
C27   C35   A    
C24   H3    S    
C71   C72   T    
C49   H21   S    
C67   C71   S    
C56   C60   A    
C29   C41   A    
C73   H33   S    
O16   V4    S    
O9    V1    S    
C19   H8    S    
C75   O23   D    
C57   H25   S    
C3    O13   A    
C18   H5    S    
C64   C68   A    
C21   H2    S    
C59   H27   S    
O6    C2    A    
C23   C27   A    
O11   V3    S    
C30   C42   A    
O12   V4    S    
C22   C26   A    
C8    C9    S    
C9    C17   A    
O10   C6    A    
C2    C56   S    
C37   H13   S    
C47   C67   A    
C60   C64   A    
C33   C34   A    
C25   C29   A    
C52   H24   S    
O20   V2    S    
C12   C24   A    
C27   C31   A    
C13   C17   A    
C46   C66   A    
C23   H4    S    
C76   H36   S    
O14   V2    S    
C62   C66   A    
C64   H32   S    
C24   C28   A    
C61   C65   A    
C50   C54   A    
C28   C36   A    
C54   C58   A    
C4    O14   A    
C55   C59   A    
O4    V2    S    
C28   C32   A    
C15   H11   S    
C73   O21   D    
