data_mof_unit_1077.cif
_audit_creation_date              2013-03-05T16:02:48-0500
_audit_creation_method            fapswitch 2.2
_symmetry_space_group_name_H-M    P1
_symmetry_Int_Tables_number       1
_space_group_crystal_system       triclinic
_cell_length_a                    23.625747
_cell_length_b                    11.81198
_cell_length_c                    10.446106
_cell_angle_alpha                 90.158111
_cell_angle_beta                  90.02496
_cell_angle_gamma                 89.978504
_cell_volume                      2915.15032698

loop_
_atom_site_label
_atom_site_type_symbol
_atom_site_description
_atom_site_fract_x
_atom_site_fract_y
_atom_site_fract_z
_atom_type_partial_charge
O1    O     O_R   0.500000 0.337200 0.605810 -0.570982
O2    O     O_R   0.500000 0.662800 0.394190 -0.575365
O3    O     O_R   0.500000 0.662800 0.605810 -0.562207
O4    O     O_R   0.500000 0.337200 0.394190 -0.571478
C1    C     C_R   0.500024 0.283169 0.499859 0.807320
C2    C     C_R   0.500017 0.716832 0.500138 0.819933
O5    O     O_R   0.417880 0.500000 0.605840 -0.513717
O6    O     O_R   0.582120 0.500000 0.394160 -0.569359
O7    O     O_R   0.582120 0.500000 0.605840 -0.517510
O8    O     O_R   0.417880 0.500000 0.394160 -0.571074
C3    C     C_R   0.390300 0.502487 0.499914 0.896807
C4    C     C_R   0.609405 0.498081 0.500032 0.894447
Cu1   Cu    Cu3+1 0.500000 0.500000 0.625300 1.075271
Cu2   Cu    Cu3+1 0.500000 0.500000 0.374700 1.039711
C5    C     C_R   0.880273 0.596310 0.466437 0.746584
C6    C     C_R   0.118856 0.398011 0.513391 0.742941
C7    C     C_R   0.880196 0.399759 0.516713 0.759004
C8    C     C_R   0.118939 0.596360 0.471364 0.755301
N1    N     N_R   0.852033 0.498343 0.492546 -0.422790
N2    N     N_R   0.146941 0.497258 0.493534 -0.421791
C9    C     C_R   0.939730 0.395409 0.508137 -0.151303
C10   C     C_R   0.059407 0.597794 0.461737 -0.161824
C11   C     C_R   0.939882 0.600055 0.473533 -0.158198
C12   C     C_R   0.059241 0.396575 0.520752 -0.166519
C13   C     C_R   0.969675 0.497584 0.490827 -0.081555
C14   C     C_R   0.029523 0.497298 0.491023 -0.081471
C15   C     C_R   0.970220 0.293362 0.521456 0.257604
C16   C     C_R   0.028665 0.697143 0.431114 0.292982
C17   C     C_R   0.970579 0.701781 0.459581 0.255636
C18   C     C_R   0.028275 0.297309 0.550401 0.291709
O9    O     O_2   0.850545 0.687942 0.429218 -0.421593
O10   O     O_2   0.148914 0.301272 0.520557 -0.424188
O11   O     O_2   0.850504 0.308159 0.554025 -0.424393
O12   O     O_2   0.148961 0.693142 0.464789 -0.423750
C19   C     C_R   0.238133 0.503146 0.379901 0.365842
C20   C     C_R   0.760736 0.452906 0.390228 0.390850
C21   C     C_R   0.236720 0.496110 0.614292 0.314603
C22   C     C_R   0.762062 0.543253 0.601952 0.311352
C23   C     C_R   0.296963 0.517298 0.382816 0.239871
C24   C     C_R   0.701731 0.443033 0.397705 0.260697
C25   C     C_R   0.296626 0.491436 0.614950 0.269958
C26   C     C_R   0.702192 0.547864 0.599888 0.273221
C27   C     C_R   0.327146 0.505515 0.499471 -0.295918
C28   C     C_R   0.672029 0.494636 0.500045 -0.308910
C29   C     C_R   0.207704 0.497623 0.495918 -0.026425
C30   C     C_R   0.791218 0.498896 0.494575 -0.038142
C31   C     C_1   0.500051 0.161761 0.499656 -0.130355
C32   C     C_1   0.500038 0.838241 0.500330 -0.128949
C33   C     C_1   0.500060 0.059737 0.499820 0.044729
C34   C     C_1   0.500054 0.940266 0.500159 0.044650
N3    N     N_1   0.500000 0.500000 0.186410 -0.126712
N4    N     N_1   0.500000 0.500000 0.813590 -0.121648
C35   C     C_1   0.499994 0.500000 0.071999 0.156466
C36   C     C_1   0.499995 0.500000 0.928002 0.164714
S1    S     S_3+6 0.941780 0.164208 0.463089 0.185972
O13   O     O_2   0.912849 0.102098 0.569926 -0.081012
O14   O     O_2   0.899630 0.186158 0.358335 -0.190585
O15   O     O_3   0.994065 0.084177 0.402205 -0.386745
H1    H     H_    0.009547 0.128835 0.330157 0.346353
S2    S     S_3+6 0.058109 0.805264 0.332768 0.141069
O16   O     O_2   0.088972 0.890322 0.414049 -0.146935
O17   O     O_2   0.098741 0.753528 0.238602 -0.198696
O18   O     O_3   0.006784 0.871110 0.249984 -0.444361
H2    H     H_    0.026801 0.926953 0.195842 0.386900
S3    S     S_3+6 0.942350 0.831706 0.516371 0.180170
O19   O     O_2   0.913512 0.892979 0.408699 -0.078308
O20   O     O_2   0.900190 0.811197 0.621377 -0.202246
O21   O     O_3   0.994753 0.911910 0.576340 -0.385905
H3    H     H_    0.010254 0.867710 0.648785 0.343187
S4    S     S_3+6 0.057260 0.188462 0.648505 0.139675
O22   O     O_2   0.088197 0.103610 0.567095 -0.146046
O23   O     O_2   0.097708 0.239323 0.743722 -0.200482
O24   O     O_3   0.005597 0.122628 0.730035 -0.443504
H4    H     H_    0.025409 0.067143 0.785102 0.386468
S5    S     S_3+6 0.203876 0.498146 0.228058 0.143288
O25   O     O_2   0.144899 0.451232 0.236086 -0.248485
O26   O     O_2   0.201136 0.616018 0.174488 -0.183557
O27   O     O_3   0.241625 0.415114 0.128353 -0.422159
H5    H     H_    0.262300 0.467415 0.071118 0.407531
S6    S     S_3+6 0.794993 0.400694 0.250396 0.134031
O28   O     O_2   0.854112 0.445717 0.236015 -0.267958
O29   O     O_2   0.796797 0.273720 0.257692 -0.184765
O30   O     O_3   0.757105 0.438526 0.121023 -0.411763
H6    H     H_    0.768468 0.384444 0.052919 0.402919
S7    S     S_3+6 0.199135 0.504007 0.762357 0.081642
O31   O     O_2   0.195027 0.386896 0.817434 -0.213422
O32   O     O_2   0.231281 0.578342 0.854018 -0.222551
O33   O     O_3   0.133572 0.557467 0.746061 -0.524441
H7    H     H_    0.114974 0.544447 0.829690 0.404121
S8    S     S_3+6 0.799286 0.589850 0.741080 0.081020
O34   O     O_2   0.802857 0.716807 0.738043 -0.211547
O35   O     O_2   0.767028 0.554895 0.858466 -0.213137
O36   O     O_3   0.864997 0.535853 0.750994 -0.524735
H8    H     H_    0.883775 0.579624 0.819957 0.399733
O37   O     O_3   0.323931 0.543122 0.269710 -0.653282
H9    H     H_    0.348531 0.609408 0.287031 0.345126
O38   O     O_3   0.674325 0.381352 0.303811 -0.615001
H10   H     H_    0.642198 0.340752 0.343685 0.329629
O39   O     O_3   0.326362 0.475320 0.727360 -0.650063
H11   H     H_    0.303867 0.426710 0.785105 0.375349
O40   O     O_3   0.671813 0.603792 0.693819 -0.649467
H12   H     H_    0.694522 0.667954 0.726524 0.382902

loop_
_geom_bond_atom_site_label_1
_geom_bond_atom_site_label_2
_geom_bond_distance
_ccdc_geom_bond_type
S1    O13   1.502163 D    
O36   H8    0.990417 S    
O24   H4    0.990526 S    
O37   H9    0.991484 S    
O3    C2    1.276614 A    
O38   H10   0.990585 S    
N1    C30   1.436977 S    
C31   C33   1.205112 T    
C35   C36   1.504204 S    
C5    N1    1.364218 A    
C1    C31   1.434061 S    
C19   S5    1.781255 S    
O40   H12   0.988773 S    
C7    O11   1.348267 S    
S2    O18   1.680828 S    
O1    C1    1.276077 A    
C11   C17   1.411651 A    
C21   S7    1.786009 S    
C16   C17   1.405321 A    
C12   C14   1.416370 A    
C22   C26   1.415651 A    
C15   S1    1.773655 S    
S2    O17   1.503219 D    
O7    Cu1   1.950855 S    
Cu2   N3    1.966897 S    
O21   H3    0.990552 S    
S3    O20   1.502204 D    
C25   O39   1.381697 S    
C20   C30   1.413582 A    
S4    O22   1.502420 D    
N2    C29   1.435766 S    
O3    Cu1   1.934297 S    
C6    N2    1.363693 A    
C32   C34   1.205117 T    
C9    C15   1.411162 A    
C6    C12   1.410693 A    
C10   C16   1.417110 A    
Cu1   Cu2   2.617794 S    
C15   C18   1.405158 A    
O4    Cu2   1.934297 S    
C25   C27   1.415879 A    
O2    C2    1.276052 A    
C26   C28   1.409611 A    
S6    O30   1.682072 S    
C18   S4    1.782745 S    
N4    C36   1.195161 T    
O5    C3    1.284263 A    
C16   S2    1.782942 S    
S7    O32   1.503261 D    
C20   C24   1.401177 A    
S6    O29   1.502552 D    
O8    Cu2   1.950857 S    
C24   O38   1.381279 S    
O27   H5    0.990063 S    
S6    O28   1.502464 D    
C23   C27   1.418777 A    
C13   C14   1.413957 A    
S7    O31   1.502846 D    
C7    C9    1.410335 A    
S2    O16   1.502450 D    
N3    C35   1.195151 T    
C19   C23   1.400291 A    
S5    O25   1.502182 D    
Cu1   N4    1.966898 S    
S5    O26   1.503343 D    
S8    O35   1.502925 D    
O30   H6    0.991872 S    
O5    Cu1   1.950681 S    
O6    C4    1.280113 A    
S3    O21   1.679192 S    
S4    O24   1.680811 S    
C3    C27   1.492495 S    
C8    O12   1.347519 S    
C23   O37   1.377591 S    
C2    C32   1.434079 S    
C17   S3    1.773831 S    
C33   C34   1.411203 S    
O8    C3    1.283070 A    
S1    O14   1.502251 D    
C20   S6    1.778974 S    
O1    Cu1   1.933179 S    
C21   C29   1.413756 A    
C19   C29   1.411064 A    
C26   O40   1.382398 S    
S8    O36   1.681424 S    
S7    O33   1.681265 S    
C9    C13   1.411286 A    
O6    Cu2   1.950679 S    
C8    C10   1.410122 A    
O4    C1    1.276577 A    
C5    O9    1.348142 S    
C6    O10   1.347381 S    
C22   S8    1.784213 S    
O39   H11   0.989150 S    
O15   H1    0.990490 S    
C4    C28   1.480081 S    
S8    O34   1.502441 D    
C5    C11   1.410910 A    
C7    N1    1.365049 A    
C8    N2    1.364688 A    
C11   C13   1.411943 A    
C21   C25   1.416380 A    
O2    Cu2   1.933179 S    
S5    O27   1.684229 S    
C12   C18   1.417327 A    
C22   C30   1.415735 A    
O7    C4    1.279912 A    
O18   H2    0.990525 S    
C24   C28   1.415477 A    
O33   H7    0.990464 S    
S3    O19   1.502181 D    
C10   C14   1.415629 A    
S1    O15   1.679446 S    
S4    O23   1.503246 D    
