data_mof_unit_220.cif
_audit_creation_date              2012-12-11T16:48:33-0500
_audit_creation_method            fapswitch 2.2
_symmetry_space_group_name_H-M    P1
_symmetry_Int_Tables_number       1
_space_group_crystal_system       triclinic
_cell_length_a                    17.27139
_cell_length_b                    24.302549
_cell_length_c                    14.882148
_cell_angle_alpha                 90.363626
_cell_angle_beta                  125.156653
_cell_angle_gamma                 90.248719
_cell_volume                      5106.76516624

loop_
_atom_site_label
_atom_site_type_symbol
_atom_type_description
_atom_site_fract_x
_atom_site_fract_y
_atom_site_fract_z
_atom_type_partial_charge
C1    C     C_R   0.313047 0.372624 0.910258 -0.141285
C2    C     C_R   0.550224 0.498782 0.723721 0.070928
C3    C     C_R   0.057797 0.847086 0.908932 -0.144531
C4    C     C_R   0.315288 0.358229 0.001424 0.072388
C5    C     C_R   0.620617 0.316453 0.001401 0.077539
C6    C     C_R   0.815292 0.858228 0.001434 0.072404
C7    C     C_R   0.120623 0.816455 0.001403 0.077544
C8    C     C_3   0.863156 0.415474 0.554001 -0.427439
C9    C     C_3   0.910839 0.404074 0.676293 -0.227284
C10   C     C_3   0.859089 0.358534 0.692639 -0.937362
C11   C     C_3   0.031741 0.402971 0.522747 -0.404058
C12   C     C_3   0.054790 0.420288 0.441425 -0.226785
C13   C     C_R   0.066559 0.999256 0.368235 0.083216
C14   C     C_3   0.064172 0.370169 0.386110 -0.944742
C15   C     C_3   0.363065 0.915544 0.554019 -0.427376
C16   C     C_3   0.410801 0.904089 0.676304 -0.227444
C17   C     C_3   0.358866 0.858667 0.692634 -0.937029
C18   C     C_3   0.531756 0.902892 0.522999 -0.404191
C19   C     C_3   0.554639 0.920119 0.441494 -0.226700
C20   C     C_3   0.564482 0.869928 0.386699 -0.944915
C21   C     C_R   0.050223 0.998782 0.723721 0.070915
C22   C     C_R   0.175906 0.496084 0.670742 0.141836
C23   C     C_R   0.797305 0.501489 0.367051 0.141464
C24   C     C_R   0.675905 0.996074 0.670754 0.141830
C25   C     C_R   0.297314 0.001494 0.367038 0.141463
C26   C     C_2   0.916751 0.460230 0.539746 0.136515
C27   C     C_2   0.014395 0.452110 0.572841 0.145739
C28   C     C_2   0.416739 0.960249 0.539772 0.136616
C29   C     C_R   0.648448 0.348745 0.091541 -0.141291
C30   C     C_2   0.514397 0.952086 0.572957 0.145767
C31   C     C_2   0.873968 0.505710 0.482562 -0.274385
C32   C     C_2   0.076490 0.493918 0.629397 -0.274491
C33   C     C_2   0.374022 0.005719 0.482513 -0.274531
C34   C     C_2   0.576494 0.993904 0.629440 -0.274528
C35   C     C_R   0.267511 0.691731 0.107107 0.162497
C36   C     C_R   0.606253 0.767882 0.900830 0.171734
C37   C     C_R   0.767499 0.191726 0.107101 0.162443
C38   C     C_R   0.106284 0.267854 0.900783 0.171795
C39   C     C_R   0.244385 0.668672 0.007999 0.035965
C40   C     C_R   0.813044 0.872624 0.910262 -0.141271
C41   C     C_R   0.636552 0.742220 0.999845 0.027784
C42   C     C_R   0.744380 0.168671 0.007992 0.035978
C43   C     C_R   0.136543 0.242216 0.999806 0.027779
C44   C     C_R   0.156152 0.681497 0.910965 -0.203855
C45   C     C_R   0.699833 0.771409 0.098326 -0.203621
C46   C     C_R   0.656150 0.181498 0.910957 -0.203843
C47   C     C_R   0.199780 0.271425 0.098273 -0.203617
C48   C     C_R   0.606266 0.226929 0.909977 -0.203527
C49   C     C_R   0.250685 0.316240 0.097908 -0.200090
C50   C     C_R   0.106270 0.726929 0.909984 -0.203530
C51   C     C_R   0.148452 0.848746 0.091542 -0.141277
C52   C     C_R   0.750738 0.816224 0.097960 -0.200088
C53   C     C_R   0.644765 0.258731 0.006322 0.033746
C54   C     C_R   0.238525 0.331135 0.999275 0.032108
C55   C     C_R   0.144774 0.758733 0.006327 0.033738
C56   C     C_R   0.738538 0.831137 0.999312 0.032138
C57   C     C_R   0.402796 0.623762 0.093204 -0.148447
C58   C     C_R   0.555708 0.651755 0.910319 -0.162696
C59   C     C_R   0.902795 0.123762 0.093202 -0.148447
C60   C     C_R   0.055706 0.151753 0.910312 -0.162696
C61   C     C_R   0.718103 0.236245 0.106231 0.158790
C62   C     C_R   0.316097 0.640469 0.003274 0.071082
C63   C     C_R   0.157261 0.311546 0.900427 0.161595
C64   C     C_R   0.218117 0.736250 0.106237 0.158827
C65   C     C_R   0.657235 0.811572 0.900473 0.161537
C66   C     C_3   0.805519 0.262490 0.203574 -0.524918
C67   C     C_3   0.141087 0.292310 0.794884 -0.531102
C68   C     C_3   0.305535 0.762498 0.203574 -0.525027
C69   C     C_3   0.640966 0.792368 0.794862 -0.531078
C70   C     C_3   0.359649 0.713886 0.204375 -0.519594
C71   C     C_3   0.584729 0.745060 0.794928 -0.518699
C72   C     C_3   0.859636 0.213880 0.204375 -0.519476
C73   C     C_R   0.618026 0.683715 0.001414 0.078154
C74   C     C_3   0.084859 0.244998 0.794953 -0.518755
C75   C     C_R   0.606649 0.448051 0.625673 0.171224
C76   C     C_R   0.610927 0.448402 0.535879 0.151783
C77   C     C_R   0.106641 0.948052 0.625667 0.171112
C78   C     C_R   0.110915 0.948403 0.535871 0.151645
C79   C     C_R   0.597667 0.497481 0.667902 0.033734
C80   C     C_R   0.605299 0.498082 0.485299 0.032366
C81   C     C_R   0.097663 0.997482 0.667900 0.033802
C82   C     C_R   0.105290 0.998083 0.485294 0.032389
C83   C     C_R   0.619294 0.546778 0.637096 -0.201484
C84   C     C_R   0.816096 0.140469 0.003271 0.071075
C85   C     C_R   0.622620 0.547133 0.545234 -0.200013
C86   C     C_R   0.119291 0.046779 0.637095 -0.201475
C87   C     C_R   0.122614 0.047134 0.545231 -0.199982
C88   C     C_3   0.554081 0.396303 0.489869 -0.529358
C89   C     C_3   0.548789 0.396017 0.587403 -0.523702
C90   C     C_3   0.054070 0.896304 0.489862 -0.529312
C91   C     C_3   0.048782 0.896017 0.587399 -0.523688
C92   C     C_R   0.551063 0.453877 0.303858 -0.162702
C93   C     C_R   0.521515 0.453189 0.753408 -0.146412
C94   C     C_R   0.051061 0.953878 0.303857 -0.162688
C95   C     C_R   0.118021 0.183714 0.001401 0.078138
C96   C     C_R   0.021516 0.953189 0.753408 -0.146398
C97   C     C_R   0.231476 0.543280 0.716620 -0.157330
C98   C     C_R   0.752670 0.546322 0.302492 -0.144792
C99   C     C_R   0.731470 0.043274 0.716625 -0.157324
C100  C     C_R   0.252675 0.046325 0.302482 -0.144763
C101  C     C_R   0.549217 0.545043 0.304320 -0.137210
C102  C     C_R   0.519600 0.545196 0.749959 -0.124504
C103  C     C_R   0.049214 0.045044 0.304318 -0.137206
C104  C     C_R   0.019599 0.045197 0.749958 -0.124508
C105  C     C_R   0.235821 0.452094 0.714847 -0.129328
C106  C     C_R   0.566564 0.499255 0.368238 0.083237
C107  C     C_R   0.752558 0.454695 0.303516 -0.123488
C108  C     C_R   0.735831 0.952089 0.714844 -0.129212
C109  C     C_R   0.252564 0.954698 0.303513 -0.123599
C110  C     C_R   0.313336 0.628549 0.909987 -0.121991
C111  C     C_R   0.649824 0.651479 0.092701 -0.121930
C112  C     C_R   0.813336 0.128550 0.909986 -0.121980
C113  C     C_R   0.149820 0.151482 0.092694 -0.121935
C114  C     C_R   0.404305 0.372706 0.093366 -0.126534
C115  C     C_R   0.557795 0.347085 0.908932 -0.144522
C116  C     C_R   0.904311 0.872705 0.093371 -0.126539
H1    H     H_    0.255191 0.367050 0.826650 0.102390
H2    H     H_    0.719731 0.755856 0.176780 0.125782
H3    H     H_    0.466838 0.876951 0.475778 0.179102
H4    H     H_    0.631630 0.161433 0.833647 0.124626
H5    H     H_    0.219644 0.255887 0.176723 0.125786
H6    H     H_    0.545072 0.240476 0.831894 0.124652
H7    H     H_    0.307292 0.333691 0.176079 0.126622
H8    H     H_    0.045074 0.740474 0.831903 0.124654
H9    H     H_    0.807373 0.833658 0.176135 0.126613
H10   H     H_    0.826041 0.301616 0.183778 0.203793
H11   H     H_    0.096851 0.321226 0.726475 0.187580
H12   H     H_    0.326058 0.801623 0.183777 0.203896
H13   H     H_    0.683340 0.335632 0.175507 0.098552
H14   H     H_    0.596714 0.821307 0.726508 0.187512
H15   H     H_    0.803641 0.264319 0.276969 0.187508
H16   H     H_    0.206435 0.278011 0.804227 0.199505
H17   H     H_    0.303662 0.764329 0.276972 0.187515
H18   H     H_    0.706274 0.778058 0.804109 0.199489
H19   H     H_    0.410798 0.725568 0.184955 0.202386
H20   H     H_    0.508056 0.747103 0.727137 0.191737
H21   H     H_    0.910788 0.225565 0.184960 0.202377
H22   H     H_    0.008204 0.247010 0.727109 0.191686
H23   H     H_    0.388957 0.687876 0.278296 0.191059
H24   H     H_    0.755181 0.867055 0.826652 0.102372
H25   H     H_    0.618737 0.704822 0.803585 0.197210
H26   H     H_    0.888940 0.187867 0.278292 0.191039
H27   H     H_    0.118911 0.204767 0.803708 0.197239
H28   H     H_    0.621102 0.585845 0.673496 0.126376
H29   H     H_    0.626565 0.586441 0.514399 0.124391
H30   H     H_    0.121101 0.085845 0.673497 0.126368
H31   H     H_    0.126560 0.086442 0.514396 0.124380
H32   H     H_    0.483576 0.402063 0.411021 0.201354
H33   H     H_    0.587482 0.361120 0.643657 0.192830
H34   H     H_    0.983564 0.902063 0.411015 0.201356
H35   H     H_    0.183346 0.835634 0.175509 0.098556
H36   H     H_    0.087477 0.861120 0.643653 0.192826
H37   H     H_    0.596335 0.361778 0.490334 0.190093
H38   H     H_    0.475126 0.401772 0.562702 0.200117
H39   H     H_    0.096326 0.861780 0.490327 0.190136
H40   H     H_    0.975120 0.901771 0.562701 0.200128
H41   H     H_    0.428331 0.625186 0.178392 0.110868
H42   H     H_    0.504553 0.665859 0.827810 0.104078
H43   H     H_    0.928328 0.125186 0.178390 0.110864
H44   H     H_    0.004556 0.165854 0.827800 0.104084
H45   H     H_    0.574419 0.412457 0.331896 0.099260
H46   H     H_    0.915505 0.542773 0.498128 0.122662
H47   H     H_    0.536877 0.410675 0.750260 0.111413
H48   H     H_    0.074418 0.912457 0.331897 0.099271
H49   H     H_    0.036878 0.910676 0.750260 0.111411
H50   H     H_    0.207380 0.584856 0.692199 0.091152
H51   H     H_    0.762362 0.588674 0.330187 0.092506
H52   H     H_    0.707364 0.084849 0.692207 0.091146
H53   H     H_    0.262379 0.088679 0.330167 0.092513
H54   H     H_    0.568164 0.587139 0.333128 0.082828
H55   H     H_    0.530423 0.587827 0.739602 0.092897
H56   H     H_    0.068160 0.087139 0.333126 0.082825
H57   H     H_    0.054004 0.528937 0.654657 0.122822
H58   H     H_    0.030421 0.087827 0.739598 0.092898
H59   H     H_    0.221141 0.410075 0.687961 0.093301
H60   H     H_    0.763220 0.412663 0.331020 0.086344
H61   H     H_    0.721186 0.910073 0.687948 0.093356
H62   H     H_    0.263242 0.912666 0.331015 0.086388
H63   H     H_    0.258512 0.639607 0.827003 0.087161
H64   H     H_    0.688592 0.665185 0.177346 0.084123
H65   H     H_    0.758514 0.139608 0.827001 0.087160
H66   H     H_    0.188590 0.165192 0.177337 0.084125
H67   H     H_    0.431372 0.367712 0.178699 0.092862
H68   H     H_    0.415598 0.042750 0.498009 0.122720
H69   H     H_    0.512039 0.331952 0.825295 0.086449
H70   H     H_    0.931385 0.867712 0.178705 0.092854
H71   H     H_    0.012043 0.831952 0.825296 0.086449
H72   H     H_    0.784922 0.370673 0.657219 0.264271
H73   H     H_    0.858995 0.319744 0.652700 0.255937
H74   H     H_    0.895609 0.351077 0.781856 0.254563
H75   H     H_    0.985349 0.391374 0.715060 0.196016
H76   H     H_    0.911240 0.442177 0.718315 0.200677
H77   H     H_    0.789020 0.428547 0.517421 0.198375
H78   H     H_    0.859857 0.376947 0.511586 0.168033
H79   H     H_    0.554000 0.028949 0.654628 0.122828
H80   H     H_    0.122007 0.343286 0.448710 0.260920
H81   H     H_    0.996729 0.346255 0.339262 0.265719
H82   H     H_    0.081129 0.383840 0.328178 0.253787
H83   H     H_    0.997138 0.446735 0.377077 0.200400
H84   H     H_    0.122007 0.444156 0.483712 0.200963
H85   H     H_    0.085668 0.375397 0.586769 0.165391
H86   H     H_    0.966769 0.377080 0.475345 0.179216
H87   H     H_    0.284823 0.870998 0.657511 0.264254
H88   H     H_    0.358362 0.819876 0.652388 0.255882
H89   H     H_    0.395530 0.851109 0.781856 0.254504
H90   H     H_    0.131628 0.661429 0.833656 0.124628
H91   H     H_    0.485218 0.891237 0.714921 0.195990
H92   H     H_    0.411486 0.942206 0.718484 0.200686
H93   H     H_    0.288982 0.928693 0.517533 0.198472
H94   H     H_    0.359615 0.877022 0.511503 0.167932
H95   H     H_    0.622698 0.843329 0.449571 0.260866
H96   H     H_    0.497328 0.845739 0.340280 0.265840
H97   H     H_    0.581124 0.883537 0.328464 0.253814
H98   H     H_    0.496725 0.946338 0.376867 0.200332
H99   H     H_    0.621630 0.944199 0.483521 0.201018
H100  H     H_    0.585760 0.875381 0.587089 0.165517
N1    N     N_R   0.395410 0.396350 0.944340 -0.039647
N2    N     N_R   0.474920 0.471030 0.794350 -0.041747
N3    N     N_R   0.025080 0.971030 0.205650 -0.035587
N4    N     N_R   0.974920 0.971030 0.794350 -0.041746
N5    N     N_R   0.320260 0.527820 0.794570 -0.038034
N6    N     N_R   0.679740 0.527820 0.205430 -0.040398
N7    N     N_R   0.820260 0.027820 0.794570 -0.038037
N8    N     N_R   0.179740 0.027820 0.205430 -0.040400
N9    N     N_R   0.524590 0.527840 0.205200 -0.037223
N10   N     N_R   0.475410 0.527840 0.794800 -0.041026
N11   N     N_R   0.024590 0.027840 0.205200 -0.037221
N12   N     N_R   0.604590 0.396350 0.055660 -0.038542
N13   N     N_R   0.975410 0.027840 0.794800 -0.041022
N14   N     N_R   0.320750 0.471000 0.795020 -0.042746
N15   N     N_R   0.679250 0.471000 0.204980 -0.042912
N16   N     N_R   0.820750 0.971000 0.795020 -0.042767
N17   N     N_R   0.179250 0.971000 0.204980 -0.042907
N18   N     N_R   0.393620 0.602490 0.942710 -0.038754
N19   N     N_R   0.606380 0.602490 0.057290 -0.039607
N20   N     N_R   0.893620 0.102490 0.942710 -0.038752
N21   N     N_R   0.106380 0.102490 0.057290 -0.039610
N22   N     N_R   0.451720 0.396350 0.057510 -0.039662
N23   N     N_R   0.895410 0.896350 0.944340 -0.039654
N24   N     N_R   0.548280 0.396350 0.942490 -0.038731
N25   N     N_R   0.951720 0.896350 0.057510 -0.039662
N26   N     N_R   0.048280 0.896350 0.942490 -0.038734
N27   N     N_R   0.104590 0.896350 0.055660 -0.038546
N28   N     N_R   0.449930 0.602500 0.055880 -0.040734
N29   N     N_R   0.550070 0.602500 0.944120 -0.038794
N30   N     N_R   0.949930 0.102500 0.055880 -0.040733
N31   N     N_R   0.050070 0.102500 0.944120 -0.038794
N32   N     N_R   0.525080 0.471030 0.205650 -0.035590
Ni1   Ni    Ni4+2 0.435420 0.434270 0.870230 0.207397
Ni2   Ni    Ni4+2 0.564580 0.434270 0.129770 0.203879
Ni3   Ni    Ni4+2 0.935420 0.934270 0.870230 0.207394
Ni4   Ni    Ni4+2 0.064580 0.934270 0.129770 0.203876
Ni5   Ni    Ni4+2 0.563430 0.564580 0.128740 0.207130
Ni6   Ni    Ni4+2 0.436570 0.564580 0.871260 0.210936
Ni7   Ni    Ni4+2 0.063430 0.064580 0.128740 0.207128
Ni8   Ni    Ni4+2 0.936570 0.064580 0.871260 0.210946

loop_
_geom_bond_atom_site_label_1
_geom_bond_atom_site_label_2
_ccdc_geom_bond_type
C92   H45   S    
C45   H2    S    
C74   H27   S    
C88   H37   S    
C69   H18   S    
C107  N15   A    
C24   C99   A    
C8    C26   S    
C46   C48   A    
C67   H16   S    
C7    C55   S    
C90   H34   S    
C16   H91   S    
C92   N32   A    
C57   C62   A    
C47   C49   A    
C77   C78   A    
C78   C90   S    
C72   H26   S    
C14   H82   S    
C26   C27   S    
C10   H74   S    
C22   C32   S    
N4    N13   A    
C100  N8    A    
N26   Ni3   S    
C64   C68   S    
C4    C114  A    
C68   H17   S    
C85   H29   S    
C99   H52   S    
C57   N28   A    
C3    C7    A    
C48   H6    S    
C83   H28   S    
C115  H69   S    
N2    N10   A    
C47   H5    S    
C16   C17   S    
C107  H60   S    
C2    C102  A    
C103  N11   A    
C56   C65   A    
C49   H7    S    
C80   C106  S    
C102  N10   A    
N21   N31   A    
C17   H87   S    
C18   C19   S    
C42   C46   A    
C20   H95   S    
C37   C42   A    
C69   C71   S    
C99   N7    A    
C54   C63   A    
C94   N3    A    
C57   H41   S    
C2    C79   S    
C109  H62   S    
C21   C104  A    
C53   C61   A    
C61   C66   S    
C66   C72   S    
C19   C20   S    
C35   C70   S    
C1    N1    A    
C69   H14   S    
N5    N14   A    
C10   H72   S    
C8    H78   S    
C35   C64   A    
C24   C108  A    
C77   C81   A    
C13   C103  A    
C9    H76   S    
C9    C10   S    
N18   Ni6   S    
C38   C43   A    
N12   Ni2   S    
C98   H51   S    
C36   C71   S    
C25   C109  A    
C71   H25   S    
C68   H12   S    
N31   Ni8   S    
N9    N32   A    
C113  N21   A    
C70   H19   S    
C100  H53   S    
C31   H46   S    
C51   H35   S    
N24   Ni1   S    
C22   C97   A    
N1    N22   A    
C5    C115  A    
C97   H50   S    
N25   Ni4   S    
C59   H43   S    
N7    Ni8   S    
N32   Ni2   S    
C73   C111  A    
C5    C29   A    
C58   N29   A    
C88   H32   S    
C48   C53   A    
C14   H81   S    
C29   H13   S    
C89   H33   S    
C10   H73   S    
C15   C16   S    
C30   C34   D    
N23   Ni3   S    
N20   N30   A    
C101  H54   S    
C101  C106  A    
C50   H8    S    
C59   C84   A    
N19   Ni5   S    
C58   H42   S    
C71   H20   S    
C67   C74   S    
C36   C65   A    
C8    C9    S    
N11   Ni7   S    
C45   C52   A    
C110  N18   A    
C96   N4    A    
C116  H70   S    
C13   C82   S    
C24   C34   S    
C76   C88   S    
C66   H10   S    
C3    H71   S    
C93   N2    A    
C11   H86   S    
C23   C31   S    
N28   Ni5   S    
C17   H88   S    
C35   C39   A    
C75   C76   A    
C63   C67   S    
C80   C85   A    
C67   H11   S    
C74   H22   S    
C78   C82   A    
C25   C100  A    
C43   C95   S    
C113  H66   S    
C62   C110  A    
C42   C84   S    
C11   C27   S    
C11   C12   S    
C23   C107  A    
C55   C64   A    
C15   H93   S    
C33   H68   S    
C44   H90   S    
C82   C87   A    
C12   H84   S    
C70   H23   S    
C8    H77   S    
N23   N25   A    
N16   Ni3   S    
C84   C112  A    
N20   Ni8   S    
C6    C116  A    
C103  H56   S    
C112  H65   S    
C87   H31   S    
C18   C30   S    
C92   C106  A    
C72   H21   S    
C83   C85   A    
C12   C14   S    
N6    N15   A    
C18   H100  S    
C111  N19   A    
N8    N17   A    
C111  H64   S    
N2    Ni1   S    
C6    C40   A    
C37   C72   S    
C76   C80   A    
C90   C91   S    
N14   Ni1   S    
C94   H48   S    
C91   H36   S    
C86   H30   S    
N13   Ni8   S    
N7    N16   A    
C86   C87   A    
C5    C53   S    
C38   C63   A    
C38   C74   S    
N6    Ni5   S    
C44   C50   A    
C102  H55   S    
C39   C62   S    
C14   H80   S    
C116  N25   A    
C77   C91   S    
C21   C81   S    
C41   C45   A    
N27   Ni4   S    
C4    C54   S    
C27   C32   D    
N5    Ni6   S    
C26   C31   D    
N21   Ni7   S    
C2    C93   A    
C51   N27   A    
C81   C86   A    
C6    C56   S    
C16   H92   S    
C46   H4    S    
C108  N16   A    
C1    H1    S    
C28   C33   D    
C104  H58   S    
C52   H9    S    
N12   N24   A    
C39   C44   A    
C21   C96   A    
C58   C73   A    
C40   N23   A    
C22   C105  A    
N29   Ni6   S    
C3    N26   A    
C50   C55   A    
C114  N22   A    
C13   C94   A    
N3    Ni4   S    
C1    C4    A    
N3    N11   A    
C20   H97   S    
C19   H98   S    
C17   H89   S    
C37   C61   A    
N26   N27   A    
C7    C51   A    
C91   H40   S    
N30   Ni7   S    
C34   H79   S    
C112  N20   A    
C105  N14   A    
C79   C83   A    
C104  N13   A    
C115  N24   A    
C32   H57   S    
C43   C47   A    
C110  H63   S    
C95   C113  A    
C65   C69   S    
C98   N6    A    
C28   C30   S    
C66   H15   S    
C12   H83   S    
C97   N5    A    
C108  H61   S    
C40   H24   S    
C59   N30   A    
C19   H99   S    
C20   H96   S    
C75   C89   S    
C41   C73   S    
C15   C28   S    
C60   C95   A    
C52   C56   A    
N10   Ni6   S    
C23   C98   A    
C88   C89   S    
N8    Ni7   S    
C60   N31   A    
N9    Ni5   S    
C114  H67   S    
C105  H59   S    
N4    Ni3   S    
C36   C41   A    
C15   H94   S    
C68   C70   S    
C93   H47   S    
C96   H49   S    
C101  N9    A    
C11   H85   S    
N1    Ni1   S    
C29   N12   A    
C60   H44   S    
C90   H39   S    
C9    H75   S    
N15   Ni2   S    
C75   C79   A    
C18   H3    S    
N19   N29   A    
C89   H38   S    
N22   Ni2   S    
C49   C54   A    
N17   Ni4   S    
C25   C33   S    
N18   N28   A    
C109  N17   A    
