data_mof_unit_1800.cif
_audit_creation_date              2012-12-11T18:05:01-0500
_audit_creation_method            fapswitch 2.2
_symmetry_space_group_name_H-M    P1
_symmetry_Int_Tables_number       1
_space_group_crystal_system       triclinic
_cell_length_a                    8.270413
_cell_length_b                    12.703895
_cell_length_c                    22.798959
_cell_angle_alpha                 96.610875
_cell_angle_beta                  89.08372
_cell_angle_gamma                 98.325409
_cell_volume                      2354.40237783

loop_
_atom_site_label
_atom_site_type_symbol
_atom_type_description
_atom_site_fract_x
_atom_site_fract_y
_atom_site_fract_z
_atom_type_partial_charge
Ba1   Ba    Ba6+2 0.856210 0.551220 0.472190 1.696315
Ba2   Ba    Ba6+2 0.333620 0.448870 0.527810 1.683539
C1    C     C_3   0.870843 0.867630 0.259813 -0.291336
C2    C     C_R   0.081923 0.583366 0.942848 -0.027735
C3    C     C_R   0.037909 0.578714 0.882447 0.591310
C4    C     C_3   0.260401 0.801112 0.320996 0.314629
C5    C     C_R   0.997878 0.386650 0.873758 0.590201
C6    C     C_R   0.039683 0.388662 0.933923 -0.021998
C7    C     C_R   0.081729 0.487597 0.968668 -0.051594
C8    C     C_R   0.124818 0.681579 0.978305 -0.072521
C9    C     C_R   0.166384 0.684629 0.037909 -0.073975
C10   C     C_R   0.166493 0.589574 0.064268 -0.020927
C11   C     C_R   0.123779 0.490660 0.029461 -0.051821
C12   C     C_3   0.794063 0.815457 0.312478 0.711266
C13   C     C_R   0.040084 0.293563 0.960183 -0.075069
C14   C     C_R   0.080651 0.296554 0.019766 -0.071823
C15   C     C_R   0.122888 0.394740 0.055207 -0.029411
C16   C     C_3   0.324999 0.856016 0.267674 0.546519
C17   C     C_R   0.165142 0.399086 0.115611 0.591689
C18   C     C_R   0.208308 0.591218 0.124537 0.588114
C19   C     C_2   0.800472 0.417554 0.767654 -0.088950
C20   C     C_3   0.765034 0.390948 0.702215 -0.068592
C21   C     C_1   0.007779 0.520052 0.685058 0.042925
C22   C     C_2   0.053174 0.529199 0.741646 -0.081808
C23   C     C_3   0.481318 0.286119 0.349179 0.358676
C24   C     C_2   0.944189 0.476113 0.786663 0.222843
C25   C     C_R   0.416293 0.541609 0.230011 -0.109876
C26   C     C_R   0.460861 0.546421 0.289759 -0.002620
C27   C     C_R   0.188035 0.470891 0.314007 0.038507
C28   C     C_3   0.227368 0.780645 0.599978 0.287912
C29   C     C_R   0.142093 0.462052 0.254014 -0.074185
C30   C     C_R   0.255390 0.499923 0.211383 0.217799
C31   C     C_2   0.872034 0.460691 0.664016 -0.265034
C32   C     C_R   0.761015 0.180221 0.524349 -0.218239
C33   C     C_R   0.429616 0.812225 0.481073 -0.263666
C34   C     C_3   0.456245 0.250492 0.283544 -0.287707
C35   C     C_R   0.402731 0.990737 0.462351 0.001284
C36   C     C_R   0.338736 0.883270 0.460668 -0.010255
C37   C     C_R   0.577245 0.849022 0.509848 0.098655
C38   C     C_R   0.640719 0.960074 0.516234 -0.026294
C39   C     C_R   0.552369 0.031354 0.490660 -0.025870
C40   C     C_3   0.235031 0.900860 0.615364 -0.353501
C41   C     C_R   0.615736 0.141174 0.494176 0.136834
C42   C     C_R   0.851706 0.111321 0.547859 -0.040820
C43   C     C_R   0.790626 0.002034 0.545235 -0.084589
C44   C     C_3   0.989972 0.212409 0.399052 0.850676
C45   C     C_3   0.956760 0.140144 0.683331 0.288333
C46   C     C_3   0.074837 0.114064 0.390004 -0.176683
C47   C     C_3   0.712747 0.686392 0.646057 0.291051
C48   C     C_3   0.734124 0.714374 0.712427 -0.356315
C49   C     C_3   0.989608 0.106599 0.743331 -0.294361
C50   C     C_3   0.488832 0.175571 0.686028 0.400156
C51   C     C_3   0.480424 0.100618 0.733727 -0.375978
C52   C     C_R   0.345770 0.514318 0.331145 -0.307345
Cl1   Cl    Cl    0.726261 0.914882 0.364657 -0.627152
F1    F     F_    0.825723 0.177373 0.398821 -0.709654
F2    F     F_    0.405997 0.957306 0.285941 -0.661583
H1    H     H_    0.886125 0.777108 0.333549 0.064035
H2    H     H_    0.611255 0.619244 0.637767 0.087539
H3    H     H_    0.975722 0.929383 0.273828 0.107835
H4    H     H_    0.840741 0.777812 0.721918 0.128716
H5    H     H_    0.754484 0.642677 0.733211 0.076542
H6    H     H_    0.622551 0.743465 0.731943 0.132700
H7    H     H_    0.779371 0.906037 0.237906 0.162654
H8    H     H_    0.366627 0.312144 0.367563 -0.068163
H9    H     H_    0.582314 0.354318 0.354826 0.037871
H10   H     H_    0.354064 0.183165 0.276822 0.163309
H11   H     H_    0.426263 0.317568 0.260637 0.039806
H12   H     H_    0.303966 0.926830 0.657049 0.116448
H13   H     H_    0.569447 0.223933 0.263935 0.153637
H14   H     H_    0.914634 0.805836 0.227392 0.072397
H15   H     H_    0.411104 0.808512 0.242595 0.057354
H16   H     H_    0.922639 0.221864 0.689676 0.024152
H17   H     H_    0.853975 0.082087 0.663001 -0.033157
H18   H     H_    0.092449 0.162224 0.765342 0.172742
H19   H     H_    0.878679 0.108080 0.771328 0.107793
H20   H     H_    0.021694 0.024081 0.738004 0.096159
H21   H     H_    0.617997 0.188331 0.670863 -0.146735
H22   H     H_    0.413588 0.135833 0.647682 0.075873
H23   H     H_    0.297181 0.944135 0.580009 0.056933
H24   H     H_    0.551871 0.140941 0.772917 0.124334
H25   H     H_    0.533064 0.027321 0.716897 0.070301
H26   H     H_    0.193104 0.720752 0.305519 -0.072016
H27   H     H_    0.351641 0.077527 0.746958 0.126007
H28   H     H_    0.078963 0.221347 0.038001 0.125589
H29   H     H_    0.008431 0.216084 0.934701 0.120451
H30   H     H_    0.198497 0.762072 0.063376 0.123086
H31   H     H_    0.504990 0.572216 0.198442 0.098834
H32   H     H_    0.126255 0.756752 0.960062 0.123332
H33   H     H_    0.171247 0.573408 0.755455 0.112529
H34   H     H_    0.109493 0.921649 0.621148 0.132742
H35   H     H_    0.718594 0.377961 0.798647 0.096964
H36   H     H_    0.019636 0.426113 0.240586 0.107243
H37   H     H_    0.380768 0.521251 0.377142 0.075386
H38   H     H_    0.368188 0.791041 0.347323 0.023388
H39   H     H_    0.847270 0.447079 0.616951 0.072331
H40   H     H_    0.333401 0.041185 0.441657 0.090190
H41   H     H_    0.862585 0.951655 0.565345 0.091041
H42   H     H_    0.809457 0.264373 0.526105 0.049011
H43   H     H_    0.380807 0.727898 0.476905 0.052242
H44   H     H_    0.223106 0.862702 0.237959 0.018155
H45   H     H_    0.027485 0.257953 0.442368 -0.038823
H46   H     H_    0.352520 0.761488 0.592319 0.001081
H47   H     H_    0.151477 0.755724 0.559617 0.049276
H48   H     H_    0.020055 0.059194 0.352072 0.160695
H49   H     H_    0.060988 0.072880 0.430308 0.097748
H50   H     H_    0.205460 0.136292 0.379943 0.053894
H51   H     H_    0.826899 0.661595 0.627038 0.011602
N1    N     N_R   0.995050 0.480946 0.848483 -0.423760
N2    N     N_R   0.207912 0.496638 0.149659 -0.424597
O1    O     O_2   0.890290 0.440320 0.360790 -0.456325
O2    O     O_2   0.187619 0.117068 0.539942 -0.506831
O3    O     O_3   0.098821 0.139497 0.648982 -0.583872
O4    O     O_3   0.130840 0.441440 0.431840 -0.509050
O5    O     O_3   0.574800 0.630800 0.528960 -0.495551
O6    O     O_2   0.344900 0.234690 0.472540 -0.513911
O7    O     O_3   0.520450 0.199760 0.376533 -0.522801
O8    O     O_2   0.468325 0.478255 0.707535 -0.484660
O9    O     O_3   0.427199 0.270118 0.708757 -0.561084
O10   O     O_2   0.035593 0.661764 0.860469 -0.595287
O11   O     O_2   0.964783 0.300424 0.843707 -0.622587
O12   O     O_3   0.677511 0.776716 0.621707 -0.649305
O13   O     O_2   0.165507 0.315905 0.137688 -0.586696
O14   O     O_2   0.244017 0.677057 0.154741 -0.633225
O15   O     O_3   0.672400 0.637930 0.395560 -0.465421
O16   O     O_2   0.807187 0.573754 0.289911 -0.518463
O17   O     O_3   0.024618 0.269395 0.350501 -0.645110
O18   O     O_3   0.657707 0.743238 0.292134 -0.643046
O19   O     O_2   0.844800 0.765340 0.527490 -0.470958
O20   O     O_3   0.090520 0.693800 0.424220 -0.487511
O21   O     O_2   0.000063 0.885596 0.454306 -0.458424
O22   O     O_3   0.153453 0.863224 0.352954 -0.624190
O23   O     O_2   0.299410 0.559720 0.639240 -0.455836
O24   O     O_3   0.058870 0.558650 0.568170 -0.502238
O25   O     O_3   0.517310 0.362160 0.604450 -0.479166
O26   O     O_3   0.160052 0.730842 0.647945 -0.630809
O27   O     O_3   0.614910 0.369290 0.471050 -0.482594
O28   O     O_3   0.099190 0.306290 0.575790 -0.462942
P1    P     P_3+3 0.057140 0.408270 0.369700 1.006150
P2    P     P_3+3 0.667360 0.749400 0.544670 0.973805
P3    P     P_3+3 0.142677 0.831852 0.425648 0.967326
P4    P     P_3+3 0.132580 0.591820 0.630310 0.989036
P5    P     P_3+3 0.056371 0.167294 0.577920 0.953532
P6    P     P_3+3 0.655512 0.618628 0.317942 0.943117
P7    P     P_3+3 0.527444 0.235118 0.453042 1.055700
P8    P     P_3+3 0.545057 0.379221 0.681208 0.974588

loop_
_geom_bond_atom_site_label_1
_geom_bond_atom_site_label_2
_ccdc_geom_bond_type
C19   C24   D    
C40   H23   S    
C33   C37   A    
C35   H40   S    
C34   H10   S    
O1    P1    D    
C5    C6    A    
C1    H7    S    
C42   C43   A    
O9    P8    S    
C44   H45   S    
C17   O13   D    
O23   P4    D    
Ba2   O24   S    
C30   N2    S    
C51   H27   S    
O2    P5    D    
C51   H24   S    
Ba1   O15   S    
C40   H34   S    
Ba1   O19   S    
O28   P5    S    
O6    P7    D    
C46   H50   S    
C27   C52   A    
O15   P6    S    
C13   C14   A    
C12   O18   S    
O7    P7    S    
Ba1   Ba2   S    
C8    H32   S    
O20   P3    S    
C7    C11   A    
O26   P4    S    
Ba2   O6    S    
C46   H49   S    
C20   P8    S    
C12   H1    S    
C9    H30   S    
C6    C7    A    
C21   C31   D    
C28   H46   S    
C21   C22   D    
C21   P4    S    
C26   P6    S    
C50   H22   S    
O21   P3    D    
C1    H3    S    
C12   Cl1   S    
C19   C20   S    
C48   H6    S    
C39   C41   A    
O17   P1    S    
C5    O11   D    
C50   H21   S    
C34   H13   S    
C47   H51   S    
C16   H15   S    
C38   C43   A    
C27   P1    S    
C4    C16   S    
C44   C46   S    
Ba2   O23   S    
C52   H37   S    
C23   H9    S    
C3    O10   D    
Ba2   O28   S    
C44   O17   S    
O8    P8    D    
C33   C36   A    
C23   H8    S    
C49   H19   S    
C45   H16   S    
C4    O22   S    
Ba1   O20   S    
C37   C38   A    
C26   C52   A    
C14   C15   A    
C45   C49   S    
C29   H36   S    
C40   H12   S    
O3    P5    S    
C23   O7    S    
C51   H25   S    
C16   H44   S    
C1    H14   S    
C49   H20   S    
C35   C36   A    
C41   P7    S    
O24   P4    S    
Ba2   O5    S    
C16   F2    S    
C46   H48   S    
O25   P8    S    
C10   C18   A    
C32   H42   S    
C32   C42   A    
O4    P1    S    
O5    P2    S    
O18   P6    S    
C24   N1    S    
Ba1   P2    S    
C13   H29   S    
C18   N2    Am   
C38   C39   A    
C47   C48   S    
C6    C13   A    
C28   O26   S    
C14   H28   S    
Ba2   P4    S    
C36   P3    S    
Ba1   O4    S    
C28   H47   S    
C33   H43   S    
C31   H39   S    
C49   H18   S    
Ba1   O27   S    
C50   C51   S    
Ba1   P1    S    
C17   N2    Am   
O27   P7    S    
O22   P3    S    
C45   O3    S    
C20   C31   S    
C37   P2    S    
C4    H26   S    
C25   C30   A    
Ba2   O27   S    
C29   C30   A    
C32   C41   A    
C45   H17   S    
C22   C24   S    
C2    C3    A    
C22   H33   S    
C9    C10   A    
C34   H11   S    
C1    C12   S    
Ba2   O25   S    
C47   H2    S    
C11   C15   A    
C43   H41   S    
O12   P2    S    
C27   C29   A    
Ba1   O1    S    
Ba2   O4    S    
O19   P2    D    
C3    N1    Am   
C42   P5    S    
C48   H5    S    
C47   O12   S    
O16   P6    D    
C15   C17   A    
C35   C39   A    
C25   H31   S    
C18   O14   D    
C8    C9    A    
C23   C34   S    
C50   O9    S    
C5    N1    Am   
C10   C11   A    
C4    H38   S    
C44   F1    S    
C25   C26   A    
C48   H4    S    
C28   C40   S    
Ba1   O5    S    
C2    C7    A    
C2    C8    A    
Ba1   O24   S    
C19   H35   S    
