data_mof_unit_1414.cif
_audit_creation_date              2012-12-10T19:00:14-0500
_audit_creation_method            fapswitch 2.2
_symmetry_space_group_name_H-M    P1
_symmetry_Int_Tables_number       1
_space_group_crystal_system       triclinic
_cell_length_a                    9.570639
_cell_length_b                    10.847396
_cell_length_c                    13.440986
_cell_angle_alpha                 90.942574
_cell_angle_beta                  72.941495
_cell_angle_gamma                 90.192094
_cell_volume                      1333.82471797

loop_
_atom_site_label
_atom_site_type_symbol
_atom_type_description
_atom_site_fract_x
_atom_site_fract_y
_atom_site_fract_z
_atom_type_partial_charge
C1    C     C_R   0.500523 0.737036 0.499292 0.811758
C2    C     C_R   0.448402 0.458743 0.974521 -0.049120
C3    C     C_R   0.492784 0.449472 0.864650 0.019444
C4    C     C_R   0.554762 0.485303 0.026619 0.057978
C5    C     C_R   0.704292 0.470274 0.970939 0.036702
C6    C     C_R   0.746123 0.437393 0.865978 -0.148721
C7    C     C_R   0.642005 0.425356 0.813847 -0.084158
C8    C     C_R   0.519419 0.529517 0.130911 0.032927
C9    C     C_R   0.771700 0.496053 0.128897 0.570427
C10   C     C_R   0.384631 0.457531 0.811162 -0.114174
C11   C     C_R   0.374664 0.936778 0.531813 0.071632
C12   C     C_R   0.423582 0.486673 0.699007 0.828522
C13   C     C_R   0.502485 0.869306 0.495868 -0.084018
C14   C     C_R   0.633913 0.934736 0.456137 -0.196292
C15   C     C_R   0.632632 0.064188 0.456311 -0.205287
C16   C     C_R   0.500435 0.129716 0.497626 -0.090754
C17   C     C_R   0.373052 0.061146 0.534464 0.070777
C18   C     C_3   0.213037 0.065860 0.592314 -0.159143
C19   C     C_3   0.217326 0.923479 0.589257 -0.392024
C20   C     C_R   0.959352 0.445971 0.419925 0.229086
C21   C     C_R   0.896363 0.566411 0.572044 0.543575
C22   C     C_R   0.044834 0.565744 0.572454 0.545247
C23   C     C_R   0.499495 0.262658 0.500419 0.768522
C24   C     C_R   0.106656 0.447084 0.419372 0.134478
C25   C     C_3   0.128085 0.316251 0.383646 -0.436871
C26   C     C_3   0.968569 0.314000 0.386155 -0.440551
C27   C     C_R   0.577966 0.505613 0.300145 0.819723
C28   C     C_R   0.811037 0.484621 0.021357 -0.272965
C29   C     C_R   0.623694 0.511498 0.185722 -0.221540
C30   C     C_R   0.238262 0.436707 0.867058 -0.311079
C31   C     C_R   0.201066 0.411171 0.972984 -0.186130
C32   C     C_R   0.302989 0.426566 0.027444 0.598544
Cu1   Cu    Cu3+1 0.359330 0.500020 0.500010 0.986211
Cu2   Cu    Cu3+1 0.640670 0.499980 0.499990 1.012547
H1    H     H_    0.734474 0.112232 0.423960 0.154083
H2    H     H_    0.145422 0.103387 0.545734 0.158651
H3    H     H_    0.201202 0.879591 0.665996 0.230884
H4    H     H_    0.154362 0.881379 0.539847 0.200239
H5    H     H_    0.205148 0.306108 0.304294 0.267675
H6    H     H_    0.152447 0.256518 0.442067 0.187966
H7    H     H_    0.952671 0.301192 0.307979 0.249400
H8    H     H_    0.859807 0.420012 0.823940 0.142152
H9    H     H_    0.901683 0.253522 0.447851 0.178321
H10   H     H_    0.924447 0.481283 0.976987 0.159077
H11   H     H_    0.154291 0.434600 0.827891 0.186693
H12   H     H_    0.093206 0.379234 0.014282 0.194121
H13   H     H_    0.680907 0.388392 0.735661 0.157668
H14   H     H_    0.736811 0.886483 0.424988 0.166693
N1    N     N_R   0.852320 0.499070 0.499340 -0.290164
N2    N     N_R   0.148230 0.499110 0.499340 -0.279367
O1    O     O_R   0.381190 0.680360 0.500000 -0.551510
O2    O     O_R   0.618780 0.680320 0.499990 -0.544889
O3    O     O_R   0.323230 0.500000 0.650990 -0.529066
O4    O     O_R   0.560820 0.499960 0.650980 -0.542539
O5    O     O_R   0.381220 0.319680 0.500010 -0.593861
O6    O     O_R   0.618810 0.319640 0.500000 -0.601037
O7    O     O_R   0.439180 0.500040 0.349020 -0.583917
O8    O     O_R   0.676770 0.500000 0.349010 -0.517938
F1    F     F_    0.878802 0.493493 0.176379 -0.658813
C33   C     C_3   0.179637 0.122818 0.702322 -0.358737
C34   C     C_3   0.016683 0.109415 0.761167 -0.339965
C35   C     C_3   0.982275 0.156885 0.873197 -0.834021
H15   H     H_    0.046919 0.105724 0.915531 0.263081
H16   H     H_    0.007386 0.256435 0.874663 0.239077
H17   H     H_    0.864231 0.143891 0.913672 0.250699
H18   H     H_    0.950455 0.162018 0.720754 0.208492
H19   H     H_    0.984182 0.010848 0.762493 0.248522
H20   H     H_    0.247140 0.077745 0.746176 0.211767
H21   H     H_    0.208360 0.222364 0.695848 0.203096
F2    F     F_    0.797634 0.633957 0.645369 -0.615258
F3    F     F_    0.083483 0.630989 0.647053 -0.635271
C36   C     C_3   0.388105 0.615511 0.174901 -0.278572
C37   C     C_3   0.433248 0.741902 0.209246 -0.391947
C38   C     C_3   0.299851 0.822383 0.259534 -0.813049
H22   H     H_    0.236381 0.838313 0.203731 0.258302
H23   H     H_    0.228603 0.777399 0.330044 0.253801
H24   H     H_    0.335847 0.912855 0.283114 0.245173
H25   H     H_    0.495308 0.731727 0.266532 0.213222
H26   H     H_    0.504743 0.789698 0.140358 0.227531
H27   H     H_    0.333022 0.635014 0.114812 0.200103
H28   H     H_    0.304875 0.572021 0.240107 0.262625
F4    F     F_    0.262125 0.397775 0.129580 -0.704466

loop_
_geom_bond_atom_site_label_1
_geom_bond_atom_site_label_2
_ccdc_geom_bond_type
Cu1   O5    S    
Cu2   O6    S    
C27   C29   S    
C37   C38   S    
C30   H11   S    
C4    C8    A    
C21   N1    A    
C23   O6    A    
C11   C19   S    
C20   N1    A    
C38   H23   S    
C8    C29   A    
C3    C7    A    
C25   H6    S    
C5    C6    A    
C15   C16   A    
C2    C32   A    
C18   C19   S    
C10   C30   A    
C35   H16   S    
C19   H3    S    
C34   H18   S    
C20   C24   A    
C16   C17   A    
C38   H24   S    
C37   H25   S    
C12   O3    A    
C9    C29   A    
C22   N2    A    
C21   C22   A    
C24   N2    A    
C15   H1    S    
C26   H9    S    
Cu1   Cu2   S    
Cu1   O3    S    
C8    C36   S    
C38   H22   S    
C24   C25   S    
C27   O7    A    
C36   C37   S    
C14   H14   S    
C25   C26   S    
C28   H10   S    
C33   C34   S    
C9    F1    S    
C7    H13   S    
C2    C4    A    
C35   H15   S    
C19   H4    S    
C5    C28   A    
C34   H19   S    
C31   C32   A    
C17   C18   S    
C37   H26   S    
C1    O1    A    
C33   H20   S    
C10   C12   S    
C18   C33   S    
Cu2   O4    S    
C16   C23   S    
C1    C13   S    
C22   F3    S    
C11   C17   A    
Cu2   N1    S    
Cu1   O7    S    
C35   H17   S    
C36   H28   S    
C4    C5    A    
C27   O8    A    
C23   O5    A    
C6    C7    A    
Cu1   O1    S    
C32   F4    S    
Cu2   O2    S    
C21   F2    S    
C2    C3    A    
Cu1   N2    S    
C36   H27   S    
C3    C10   A    
C25   H5    S    
C11   C13   A    
C30   C31   A    
C20   C26   S    
C33   H21   S    
C34   C35   S    
C1    O2    A    
C31   H12   S    
C6    H8    S    
Cu2   O8    S    
C14   C15   A    
C13   C14   A    
C18   H2    S    
C9    C28   A    
C12   O4    A    
C26   H7    S    
