data_mof_unit_2563.cif
_audit_creation_date              2012-10-26T21:21:03-0400
_audit_creation_method            fapswitch 2.2
_symmetry_space_group_name_H-M    P1
_symmetry_Int_Tables_number       1
_space_group_crystal_system       triclinic
_cell_length_a                    10.790799
_cell_length_b                    10.904265
_cell_length_c                    9.697569
_cell_angle_alpha                 90.553791
_cell_angle_beta                  89.919119
_cell_angle_gamma                 89.748426
_cell_volume                      1141.00604852

loop_
_atom_site_label
_atom_site_type_symbol
_atom_type_description
_atom_site_fract_x
_atom_site_fract_y
_atom_site_fract_z
_atom_type_partial_charge
C1    C     C_R   0.502589 0.265401 0.499156 0.540196
C2    C     C_2   0.511436 0.132942 0.495561 0.078136
C3    C     C_2   0.427310 0.430913 0.921489 -0.007402
C4    C     C_R   0.262802 0.497230 0.500087 0.537267
C5    C     C_2   0.429552 0.428648 0.077156 0.000025
C6    C     C_R   0.488336 0.734065 0.500707 0.571692
C7    C     C_R   0.737469 0.498787 0.499864 0.534214
C8    C     C_R   0.129395 0.294337 0.624052 -0.104295
C9    C     C_R   0.064379 0.198981 0.685158 -0.115965
C10   C     C_R   0.935542 0.200603 0.686632 -0.117346
C11   C     C_R   0.871028 0.297346 0.626541 -0.106661
C12   C     C_R   0.065798 0.394216 0.564073 0.016716
C13   C     C_R   0.934856 0.395622 0.564445 0.010404
C14   C     C_2   0.385338 0.887830 0.265164 0.240611
C15   C     C_R   0.129417 0.491194 0.500190 -0.030759
C16   C     C_R   0.065709 0.585488 0.434832 -0.086361
C17   C     C_R   0.937680 0.588060 0.434213 0.065316
C18   C     C_R   0.871602 0.493722 0.499710 0.010083
C19   C     C_2   0.432208 0.936091 0.398867 -0.000593
C20   C     C_2   0.465226 0.865486 0.506448 -0.068549
C21   C     C_2   0.431132 0.070359 0.415818 -0.133259
Cu1   Cu    Cu3+1 0.500020 0.500020 0.638630 0.935959
Cu2   Cu    Cu3+1 0.499980 0.499980 0.361370 0.976381
H1    H     H_    0.116177 0.659208 0.386072 0.187325
H2    H     H_    0.475029 0.906782 0.608097 0.129330
H3    H     H_    0.362582 0.120948 0.356566 0.096948
H4    H     H_    0.695417 0.106758 0.520491 0.230242
H5    H     H_    0.611699 0.101187 0.667931 0.229061
H6    H     H_    0.817138 0.731412 0.441862 0.239211
H7    H     H_    0.824918 0.657617 0.286747 0.255399
H8    H     H_    0.400583 0.940076 0.172005 0.095395
H9    H     H_    0.361954 0.370952 0.869578 0.135507
H10   H     H_    0.562928 0.553574 0.894438 0.209189
H11   H     H_    0.368427 0.364461 0.127901 0.133113
H12   H     H_    0.554607 0.561865 0.106654 0.208117
H13   H     H_    0.229400 0.287863 0.622732 0.124854
H14   H     H_    0.114186 0.123093 0.730633 0.117316
H15   H     H_    0.885252 0.126024 0.733421 0.120197
H16   H     H_    0.771121 0.293230 0.628230 0.134021
N1    N     N_2   0.498640 0.498660 0.846910 -0.343252
N2    N     N_2   0.498610 0.498630 0.153040 -0.332133
N3    N     N_3   0.613346 0.074480 0.564105 -0.660158
N4    N     N_3   0.876908 0.689957 0.370185 -0.617846
O1    O     O_R   0.500020 0.321960 0.617040 -0.514051
O2    O     O_R   0.499980 0.321920 0.382900 -0.504805
O3    O     O_R   0.319670 0.500020 0.617100 -0.497947
O4    O     O_R   0.319630 0.499980 0.382950 -0.475769
O5    O     O_R   0.500020 0.678080 0.617100 -0.502345
O6    O     O_R   0.499980 0.678040 0.382960 -0.446516
O7    O     O_R   0.680370 0.500020 0.617050 -0.502020
O8    O     O_R   0.680330 0.499980 0.382900 -0.504993
O9    O     O_2   0.322104 0.795372 0.258819 -0.489198

loop_
_geom_bond_atom_site_label_1
_geom_bond_atom_site_label_2
_ccdc_geom_bond_type
Cu1   O5    S    
C21   H3    S    
C17   N4    S    
Cu2   O2    S    
C6    C20   S    
C9    C10   A    
C1    O1    A    
Cu2   O8    S    
C19   C20   D    
Cu2   N2    S    
C12   C15   A    
C8    C12   A    
C14   H8    S    
C10   H15   S    
C7    C18   S    
Cu1   N1    S    
C5    H11   S    
C2    C21   D    
C9    H14   S    
C17   C18   A    
C7    O8    A    
C4    C15   S    
C16   H1    S    
C4    O3    A    
H6    N4    S    
C11   H16   S    
C11   C13   A    
H4    N3    S    
C1    O2    A    
C6    O5    A    
C13   C18   A    
C2    N3    S    
H5    N3    S    
C19   C21   S    
C3    N1    D    
C6    O6    A    
C8    H13   S    
C3    H9    S    
H12   N2    S    
Cu1   O1    S    
H7    N4    S    
Cu2   O6    S    
H10   N1    S    
Cu2   O4    S    
C20   H2    S    
C15   C16   A    
Cu1   O7    S    
C12   C13   A    
C1    C2    S    
C10   C11   A    
C5    N2    D    
Cu1   Cu2   S    
C8    C9    A    
Cu1   O3    S    
C14   C19   S    
C14   O9    D    
C7    O7    A    
C16   C17   A    
C3    C5    S    
C4    O4    A    
