data_mof_unit_780.cif
_audit_creation_date              2012-12-10T19:47:58-0500
_audit_creation_method            fapswitch 2.2
_symmetry_space_group_name_H-M    P1
_symmetry_Int_Tables_number       1
_space_group_crystal_system       triclinic
_cell_length_a                    15.053538
_cell_length_b                    14.125156
_cell_length_c                    10.610356
_cell_angle_alpha                 89.336745
_cell_angle_beta                  91.731453
_cell_angle_gamma                 90.258223
_cell_volume                      2254.91721598

loop_
_atom_site_label
_atom_site_type_symbol
_atom_type_description
_atom_site_fract_x
_atom_site_fract_y
_atom_site_fract_z
_atom_type_partial_charge
C1    C     C_R   0.327875 0.499868 0.508604 0.911942
C2    C     C_R   0.672580 0.500259 0.495796 0.916451
C3    C     C_R   0.048613 0.495808 0.540749 0.060069
C4    C     C_R   0.952184 0.493074 0.536335 0.072764
C5    C     C_R   0.463176 0.105612 0.398645 -0.441387
C6    C     C_R   0.561432 0.893872 0.575378 -0.453251
C7    C     C_R   0.538145 0.104778 0.601714 -0.447131
C8    C     C_R   0.437561 0.894688 0.426655 -0.455704
C9    C     C_R   0.458231 0.205836 0.402624 0.548756
C10   C     C_R   0.558567 0.793514 0.578558 0.544882
C11   C     C_R   0.542834 0.204842 0.596311 0.522486
C12   C     C_R   0.440325 0.794169 0.422965 0.550061
C13   C     C_R   0.500252 0.053287 0.500668 0.127865
C14   C     C_R   0.499670 0.946039 0.501036 0.139966
C15   C     C_R   0.512813 0.500820 0.260493 0.872931
C16   C     C_R   0.485999 0.499204 0.738948 0.868590
C17   C     C_R   0.533587 0.678706 0.106826 -0.096446
C18   C     C_R   0.460905 0.321921 0.892160 -0.051376
C19   C     C_R   0.434132 0.668050 0.882658 -0.116099
C20   C     C_R   0.562049 0.331722 0.114898 -0.069869
C21   C     C_R   0.503875 0.761421 0.046501 -0.172990
C22   C     C_R   0.491201 0.238932 0.951241 -0.145651
C23   C     C_R   0.450556 0.755811 0.937470 -0.181609
C24   C     C_R   0.545241 0.244145 0.059603 -0.164488
C25   C     C_R   0.470385 0.584402 0.937574 0.069270
C26   C     C_R   0.525270 0.415600 0.061189 0.066801
C27   C     C_R   0.510543 0.588631 0.057864 0.070424
C28   C     C_R   0.484659 0.411619 0.941272 0.061569
C29   C     C_R   0.470032 0.497309 0.873955 -0.253786
C30   C     C_R   0.526258 0.502803 0.124893 -0.256472
C31   C     C_R   0.092006 0.579187 0.506127 -0.320836
C32   C     C_R   0.907850 0.415946 0.481794 -0.323264
C33   C     C_R   0.905667 0.573752 0.568731 -0.321637
C34   C     C_R   0.097256 0.416118 0.578533 -0.295398
C35   C     C_R   0.183781 0.584215 0.511385 0.419360
C36   C     C_R   0.815067 0.417299 0.463694 0.422461
C37   C     C_R   0.816251 0.581373 0.537494 0.414932
C38   C     C_R   0.189491 0.416086 0.569458 0.404803
C39   C     C_R   0.232615 0.499813 0.528879 -0.265016
C40   C     C_R   0.769274 0.500154 0.497168 -0.255267
H1    H     H_    0.571731 0.180165 0.103147 0.126459
H2    H     H_    0.424405 0.819616 0.893027 0.129396
H3    H     H_    0.474471 0.170778 0.911169 0.126424
H4    H     H_    0.520730 0.829764 0.085888 0.122796
H5    H     H_    0.576162 0.686071 0.190140 0.142627
H6    H     H_    0.418363 0.315323 0.808635 0.170780
H7    H     H_    0.393148 0.665796 0.797166 0.141157
H8    H     H_    0.603763 0.333451 0.199776 0.170069
H9    H     H_    0.055117 0.641852 0.477389 0.145905
H10   H     H_    0.946750 0.357566 0.448979 0.128733
H11   H     H_    0.939781 0.634188 0.609831 0.147796
H12   H     H_    0.063435 0.354448 0.615639 0.148698
N1    N     N_R   0.500000 0.252470 0.500000 -0.156334
N2    N     N_R   0.500000 0.747530 0.500000 -0.167923
O1    O     O_R   0.369060 0.579480 0.500010 -0.538793
O2    O     O_R   0.630940 0.420520 0.499990 -0.568614
O3    O     O_R   0.630940 0.579480 0.499990 -0.545751
O4    O     O_R   0.369060 0.420520 0.500010 -0.580904
O5    O     O_R   0.499990 0.579480 0.316780 -0.603057
O6    O     O_R   0.500010 0.420520 0.683220 -0.573501
O7    O     O_R   0.500010 0.579480 0.683220 -0.598782
O8    O     O_R   0.499990 0.420520 0.316780 -0.565467
Zn1   Zn    Zn3+2 0.500000 0.606140 0.500000 1.038919
Zn2   Zn    Zn3+2 0.500000 0.393860 0.500000 1.042712
O9    O     O_3   0.225394 0.671698 0.501829 -0.563700
C41   C     C_3   0.207396 0.724331 0.611152 0.123203
H13   H     H_    0.217245 0.680916 0.699067 0.118711
H14   H     H_    0.138049 0.751335 0.606047 0.123198
C42   C     C_3   0.269637 0.809036 0.621366 -0.822237
H15   H     H_    0.262607 0.854465 0.535698 0.247532
H16   H     H_    0.252989 0.851610 0.704685 0.190956
H17   H     H_    0.339267 0.784599 0.633725 0.246339
O10   O     O_3   0.767874 0.346942 0.398272 -0.599356
C43   C     C_3   0.804765 0.255660 0.414205 0.115652
H18   H     H_    0.822343 0.240302 0.515107 0.127402
H19   H     H_    0.864173 0.248281 0.355455 0.133633
C44   C     C_3   0.736943 0.182593 0.368455 -0.849860
H20   H     H_    0.722278 0.192877 0.265995 0.244039
H21   H     H_    0.763464 0.110119 0.384991 0.200542
H22   H     H_    0.674393 0.190001 0.419716 0.257388
O11   O     O_3   0.775768 0.669136 0.541267 -0.552816
C45   C     C_3   0.808742 0.726278 0.442168 0.129477
H23   H     H_    0.810580 0.686946 0.351568 0.117507
H24   H     H_    0.876763 0.752347 0.467402 0.118762
C46   C     C_3   0.749256 0.811760 0.419539 -0.807410
H25   H     H_    0.745743 0.853710 0.506967 0.248345
H26   H     H_    0.776838 0.857476 0.344259 0.186002
H27   H     H_    0.681685 0.788271 0.388596 0.249105
O12   O     O_3   0.238364 0.341235 0.620452 -0.599567
C47   C     C_3   0.224274 0.259563 0.546978 0.126227
H28   H     H_    0.248512 0.271975 0.450409 0.163120
H29   H     H_    0.152997 0.238509 0.540877 0.110026
C48   C     C_3   0.275849 0.177611 0.607408 -0.834175
H30   H     H_    0.247715 0.158942 0.700063 0.242986
H31   H     H_    0.271616 0.114831 0.545402 0.198697
H32   H     H_    0.346628 0.197704 0.622470 0.255761
H33   H     H_    0.439119 0.068778 0.315979 0.138224
H34   H     H_    0.612937 0.930959 0.627703 0.135853
H35   H     H_    0.563500 0.068201 0.684978 0.144580
H36   H     H_    0.386418 0.932847 0.374569 0.132079
O13   O     O_3   0.416692 0.260802 0.308426 -0.564418
C49   C     C_3   0.350435 0.212594 0.236811 0.067831
H37   H     H_    0.306569 0.169198 0.297584 0.113675
H38   H     H_    0.381596 0.166889 0.166099 0.144672
C50   C     C_3   0.293068 0.285134 0.165733 -0.808358
H39   H     H_    0.334669 0.329030 0.102982 0.269347
H40   H     H_    0.241246 0.248430 0.107570 0.198503
H41   H     H_    0.260295 0.332234 0.233156 0.239266
O14   O     O_3   0.617613 0.737685 0.650228 -0.523073
C51   C     C_3   0.652555 0.782466 0.759333 0.130632
H42   H     H_    0.599983 0.819920 0.810590 0.119231
H43   H     H_    0.706165 0.832912 0.733930 0.125189
C52   C     C_3   0.693505 0.707765 0.847381 -0.761449
H44   H     H_    0.750644 0.673799 0.802267 0.263747
H45   H     H_    0.717172 0.741083 0.936601 0.181267
H46   H     H_    0.643544 0.652513 0.869271 0.262608
O15   O     O_3   0.584691 0.257799 0.690269 -0.569327
C53   C     C_3   0.666014 0.217705 0.733481 0.095422
H47   H     H_    0.703197 0.185094 0.655946 0.126635
H48   H     H_    0.653599 0.163656 0.807929 0.128390
C54   C     C_3   0.723990 0.295324 0.791191 -0.792368
H49   H     H_    0.689377 0.328841 0.870089 0.261516
H50   H     H_    0.787664 0.264811 0.827786 0.189161
H51   H     H_    0.738462 0.350183 0.718781 0.255161
O16   O     O_3   0.382740 0.737944 0.349982 -0.532871
C55   C     C_3   0.329226 0.787771 0.260445 0.130464
H52   H     H_    0.370265 0.833768 0.199173 0.111624
H53   H     H_    0.278706 0.830537 0.308322 0.136900
C56   C     C_3   0.279972 0.716703 0.177034 -0.768908
H54   H     H_    0.234966 0.672489 0.234517 0.266401
H55   H     H_    0.239918 0.754666 0.102991 0.181680
H56   H     H_    0.327980 0.669789 0.131105 0.263171

loop_
_geom_bond_atom_site_label_1
_geom_bond_atom_site_label_2
_ccdc_geom_bond_type
C41   H14   S    
C48   H30   S    
O15   C53   S    
O10   C43   S    
C19   C23   A    
O11   C45   S    
C2    O3    A    
C44   H20   S    
C7    C11   A    
C50   H40   S    
C38   O12   S    
O13   C49   S    
C23   H2    S    
C43   H19   S    
C49   C50   S    
C6    H34   S    
C28   C29   A    
C17   H5    S    
C56   H54   S    
C37   C40   A    
C38   C39   A    
C49   H38   S    
N1    Zn2   S    
C19   H7    S    
C46   H27   S    
C41   C42   S    
N2    Zn1   S    
C35   O9    S    
C10   O14   S    
C42   H16   S    
C16   O6    A    
O7    Zn1   S    
C53   H47   S    
C54   H51   S    
O8    Zn2   S    
C51   H42   S    
C20   C24   A    
C43   C44   S    
O1    Zn1   S    
C55   H53   S    
O2    Zn2   S    
C5    C13   A    
C15   C30   S    
C11   N1    A    
C56   H56   S    
C44   H21   S    
C41   H13   S    
C48   H31   S    
C34   C38   A    
C13   C14   S    
C27   C30   A    
C25   C29   A    
C24   H1    S    
C37   O11   S    
C49   H37   S    
C31   H9    S    
C10   N2    A    
C18   H6    S    
C26   C28   A    
O3    Zn1   S    
C51   H43   S    
C46   H26   S    
O4    Zn2   S    
C50   H41   S    
C43   H18   S    
C17   C27   A    
C36   C40   A    
C18   C28   A    
C12   O16   S    
C3    C34   A    
C16   C29   S    
C46   H25   S    
C33   C37   A    
C53   C54   S    
C42   H17   S    
C35   C39   A    
C5    C9    A    
C6    C14   A    
C21   H4    S    
C47   H29   S    
C22   H3    S    
C8    C12   A    
C20   H8    S    
C3    C31   A    
C51   C52   S    
C32   H10   S    
C54   H49   S    
C4    C32   A    
C7    H35   S    
C5    H33   S    
C26   C30   A    
C48   H32   S    
C45   H24   S    
C21   C23   A    
O16   C55   S    
C22   C24   A    
O5    Zn1   S    
C33   H11   S    
C16   O7    A    
C3    C4    S    
C11   O15   S    
C32   C36   A    
C47   C48   S    
C52   H44   S    
C44   H22   S    
C4    C33   A    
C8    C14   A    
C18   C22   A    
C15   O5    A    
C6    C10   A    
C25   C27   A    
C45   C46   S    
C50   H39   S    
C34   H12   S    
C55   C56   S    
O6    Zn2   S    
C52   H46   S    
C8    H36   S    
C2    O2    A    
C1    O4    A    
C47   H28   S    
C20   C26   A    
C55   H52   S    
C15   O8    A    
C31   C35   A    
O9    C41   S    
C1    O1    A    
C42   H15   S    
C19   C25   A    
C53   H48   S    
C54   H50   S    
C36   O10   S    
C1    C39   S    
C2    C40   S    
C7    C13   A    
C9    N1    A    
C9    O13   S    
C45   H23   S    
C52   H45   S    
O12   C47   S    
O14   C51   S    
C12   N2    A    
C56   H55   S    
C17   C21   A    
