data_mof_unit_4383.cif
_audit_creation_date              2012-12-10T21:27:23-0500
_audit_creation_method            fapswitch 2.2
_symmetry_space_group_name_H-M    P1
_symmetry_Int_Tables_number       1
_space_group_crystal_system       triclinic
_cell_length_a                    10.798654
_cell_length_b                    16.125059
_cell_length_c                    16.739651
_cell_angle_alpha                 87.247545
_cell_angle_beta                  91.388638
_cell_angle_gamma                 106.136408
_cell_volume                      2796.60980823

loop_
_atom_site_label
_atom_site_type_symbol
_atom_type_description
_atom_site_fract_x
_atom_site_fract_y
_atom_site_fract_z
_atom_type_partial_charge
C1    C     C_R   0.500556 0.488793 0.653262 0.922709
C2    C     C_R   0.500551 0.511569 0.346820 0.919433
C3    C     C_R   0.403962 0.403195 0.772616 -0.389903
C4    C     C_R   0.412726 0.571819 0.228903 -0.381751
C5    C     C_R   0.415771 0.748098 0.480151 -0.125703
C6    C     C_R   0.529332 0.241020 0.553507 -0.132859
C7    C     C_R   0.416214 0.834885 0.486061 0.332425
C8    C     C_R   0.522969 0.152682 0.553529 0.329237
C9    C     C_R   0.526537 0.894768 0.518339 0.147828
C10   C     C_R   0.476667 0.105529 0.484082 0.152511
C11   C     C_R   0.627128 0.862794 0.549821 0.314329
C12   C     C_R   0.429931 0.148217 0.419760 0.314749
C13   C     C_R   0.619024 0.774091 0.544940 -0.144733
C14   C     C_R   0.434719 0.236376 0.424414 -0.152821
C15   C     C_R   0.743473 0.535774 0.499165 0.933906
C16   C     C_R   0.256478 0.464648 0.496008 0.947412
C17   C     C_2   0.880796 0.556716 0.490342 -0.375311
C18   C     C_2   0.119063 0.445376 0.485359 -0.358528
C19   C     C_2   0.931520 0.494805 0.469557 -0.132031
C20   C     C_2   0.068398 0.510839 0.470472 -0.153267
C21   C     C_R   0.483486 0.480216 0.739274 -0.280935
C22   C     C_R   0.484037 0.517292 0.260690 -0.270845
C23   C     C_R   0.523838 0.554145 0.785108 0.339725
C24   C     C_R   0.526636 0.462985 0.210840 0.330714
C25   C     C_R   0.468755 0.553993 0.859154 0.401504
C26   C     C_R   0.485891 0.457667 0.131160 0.386985
C27   C     C_R   0.394799 0.474293 0.895473 0.085337
C28   C     C_R   0.418211 0.515619 0.098851 0.101787
C29   C     C_R   0.361886 0.399350 0.851413 0.408496
C30   C     C_R   0.382670 0.572964 0.147448 0.417274
H1    H     H_    0.127462 0.577592 0.465707 0.176109
H2    H     H_    0.872401 0.429675 0.458480 0.194916
H3    H     H_    0.695792 0.748932 0.569139 0.156932
H4    H     H_    0.398883 0.269501 0.375235 0.159510
H5    H     H_    0.059531 0.378808 0.490487 0.162943
H6    H     H_    0.940200 0.621369 0.501709 0.154151
H7    H     H_    0.372200 0.346683 0.736861 0.185852
H8    H     H_    0.380003 0.613334 0.267528 0.192041
H9    H     H_    0.568473 0.277679 0.605214 0.171755
H10   H     H_    0.333635 0.703213 0.453237 0.158052
N1    N     N_2   0.372445 0.462648 0.978822 -0.104938
N2    N     N_2   0.410561 0.530086 0.015800 -0.058496
N3    N     N_R   0.515370 0.719110 0.509820 -0.120420
N4    N     N_R   0.484630 0.280890 0.490180 -0.122237
N5    N     N_2   0.537995 0.985324 0.524506 -0.074818
N6    N     N_2   0.468797 0.015602 0.477001 -0.072250
O1    O     O_R   0.494500 0.421750 0.612630 -0.620598
O2    O     O_R   0.505500 0.578250 0.387370 -0.602098
O3    O     O_R   0.504370 0.562470 0.618930 -0.595043
O4    O     O_R   0.495630 0.437530 0.381070 -0.612729
O5    O     O_R   0.679100 0.455920 0.498020 -0.609874
O6    O     O_R   0.320900 0.544080 0.501980 -0.626333
O7    O     O_R   0.688960 0.596630 0.504320 -0.619734
O8    O     O_R   0.311040 0.403370 0.495680 -0.606520
Zn1   Zn    Zn3+2 0.493410 0.406040 0.495790 0.951069
Zn2   Zn    Zn3+2 0.506590 0.593960 0.504210 0.953422
O9    O     O_3   0.611582 0.416902 0.236697 -0.736639
H11   H     H_    0.662542 0.445626 0.282629 0.341068
O10   O     O_3   0.613992 0.628731 0.758545 -0.726687
H12   H     H_    0.671546 0.613157 0.720227 0.330585
O11   O     O_3   0.530871 0.405805 0.082171 -0.587360
C31   C     C_3   0.439468 0.323630 0.078242 0.142539
H13   H     H_    0.443572 0.301150 0.016919 0.205045
H14   H     H_    0.337812 0.325045 0.086979 0.125703
C32   C     C_3   0.473250 0.258085 0.138090 -0.335449
H15   H     H_    0.577001 0.261440 0.133114 0.268475
H16   H     H_    0.454715 0.273415 0.199862 0.240663
C33   C     C_3   0.392273 0.166225 0.122845 -0.937523
H17   H     H_    0.288147 0.160995 0.128996 0.271174
H18   H     H_    0.418841 0.120377 0.167104 0.293034
H19   H     H_    0.409986 0.148010 0.061870 0.273090
O12   O     O_3   0.497761 0.631329 0.897715 -0.577964
C34   C     C_3   0.394575 0.669367 0.886644 0.140598
H20   H     H_    0.396760 0.710790 0.938108 0.202718
H21   H     H_    0.297872 0.620905 0.887435 0.121488
C35   C     C_3   0.410911 0.726409 0.809320 -0.331363
H22   H     H_    0.509070 0.772330 0.808274 0.265706
H23   H     H_    0.399520 0.685439 0.756677 0.237748
C36   C     C_3   0.311187 0.777491 0.802429 -0.977759
H24   H     H_    0.212184 0.732808 0.802170 0.276286
H25   H     H_    0.325439 0.817464 0.745697 0.260589
H26   H     H_    0.321936 0.821003 0.853152 0.275871
O13   O     O_3   0.288646 0.323050 0.887154 -0.762717
H27   H     H_    0.274953 0.276353 0.848684 0.334966
O14   O     O_3   0.319211 0.629658 0.113463 -0.741865
H28   H     H_    0.301822 0.666044 0.155569 0.342090
O15   O     O_3   0.565399 0.114863 0.620777 -0.600602
C37   C     C_3   0.458632 0.070541 0.668443 0.123050
H29   H     H_    0.482362 0.013719 0.698287 0.180293
H30   H     H_    0.368065 0.044339 0.633234 0.099804
C38   C     C_3   0.435702 0.128778 0.732932 -0.381569
H31   H     H_    0.526590 0.154776 0.767217 0.247273
H32   H     H_    0.405952 0.183968 0.704410 0.208433
C39   C     C_3   0.330694 0.079141 0.790475 -0.924116
H33   H     H_    0.238211 0.053996 0.757610 0.268585
H34   H     H_    0.316512 0.122888 0.836506 0.269565
H35   H     H_    0.358854 0.024277 0.820973 0.268327
O16   O     O_3   0.308826 0.859537 0.459615 -0.602729
C40   C     C_3   0.233476 0.866182 0.525946 0.132564
H36   H     H_    0.190574 0.920432 0.512007 0.180271
H37   H     H_    0.290097 0.881989 0.582681 0.096358
C41   C     C_3   0.124201 0.783050 0.538580 -0.388715
H38   H     H_    0.065555 0.770401 0.482718 0.238001
H39   H     H_    0.165074 0.727845 0.552393 0.213394
C42   C     C_3   0.037573 0.790034 0.607155 -0.939549
H40   H     H_    0.093771 0.800406 0.664043 0.271598
H41   H     H_    0.958127 0.729401 0.614072 0.263881
H42   H     H_    0.995046 0.844620 0.594584 0.263542
O17   O     O_3   0.732023 0.919360 0.584911 -0.719215
H43   H     H_    0.792537 0.886753 0.605263 0.328860
O18   O     O_3   0.380475 0.102546 0.353053 -0.720128
H44   H     H_    0.351123 0.141303 0.313796 0.330379

loop_
_geom_bond_atom_site_label_1
_geom_bond_atom_site_label_2
_ccdc_geom_bond_type
O15   C37   S    
C1    C21   S    
C7    O16   S    
C11   O17   S    
N1    N2    D    
C37   H30   S    
C14   N4    A    
C19   C20   S    
C35   C36   S    
O14   H28   S    
C23   O10   S    
C42   H41   S    
C15   O7    A    
O1    Zn1   S    
C26   O11   S    
C24   C26   A    
C29   O13   S    
C27   C29   A    
C41   C42   S    
C15   C17   S    
C34   H20   S    
C3    C29   A    
C31   H14   S    
C2    O4    A    
C33   H17   S    
O18   H44   S    
C24   O9    S    
C32   H16   S    
C2    C22   S    
C17   H6    S    
C15   O5    A    
C18   H5    S    
O5    Zn1   S    
O11   C31   S    
C5    N3    A    
O10   H12   S    
C6    N4    A    
C13   H3    S    
C34   H21   S    
C41   H38   S    
C19   H2    S    
C42   H42   S    
C35   H22   S    
C38   H31   S    
C5    C7    A    
C1    O1    A    
C6    C8    A    
C39   H35   S    
C2    O2    A    
N5    N6    D    
C41   H39   S    
C10   N6    S    
C31   H13   S    
C38   H32   S    
C4    C22   A    
C27   N1    S    
O13   H27   S    
C37   C38   S    
C32   C33   S    
C25   O12   S    
C30   O14   S    
C39   H34   S    
C9    C11   A    
C10   C12   A    
C16   C18   S    
C40   H37   S    
C12   C14   A    
O16   C40   S    
C21   C23   A    
C34   C35   S    
C22   C24   A    
C3    C21   A    
C13   N3    A    
C36   H25   S    
O7    Zn2   S    
O2    Zn2   S    
O8    Zn1   S    
C31   C32   S    
C16   O6    A    
C35   H23   S    
O12   C34   S    
C14   H4    S    
C36   H26   S    
C25   C27   A    
O3    Zn2   S    
C42   H40   S    
C26   C28   A    
O4    Zn1   S    
C40   H36   S    
C8    O15   S    
C28   C30   A    
O17   H43   S    
C38   C39   S    
C11   C13   A    
N4    Zn1   S    
O9    H11   S    
C33   H19   S    
C9    N5    S    
C28   N2    S    
C17   C19   D    
C18   C20   D    
C23   C25   A    
C39   H33   S    
C16   O8    A    
C36   H24   S    
C7    C9    A    
N3    Zn2   S    
C40   C41   S    
C37   H29   S    
C3    H7    S    
C8    C10   A    
C32   H15   S    
C5    H10   S    
C33   H18   S    
C6    H9    S    
C4    H8    S    
C1    O3    A    
C12   O18   S    
C4    C30   A    
O6    Zn2   S    
C20   H1    S    
