data_mof_unit_71.cif
_audit_creation_date              2012-12-10T18:15:12-0500
_audit_creation_method            fapswitch 2.2
_symmetry_space_group_name_H-M    P1
_symmetry_Int_Tables_number       1
_space_group_crystal_system       triclinic
_cell_length_a                    12.563002
_cell_length_b                    13.03718
_cell_length_c                    23.130412
_cell_angle_alpha                 89.420708
_cell_angle_beta                  103.193358
_cell_angle_gamma                 81.667842
_cell_volume                      3645.84404141

loop_
_atom_site_label
_atom_site_type_symbol
_atom_type_description
_atom_site_fract_x
_atom_site_fract_y
_atom_site_fract_z
_atom_type_partial_charge
C1    C     C_R   0.437942 0.692656 0.486547 0.954104
C2    C     C_R   0.480211 0.365045 0.877353 0.518402
C3    C     C_R   0.606191 0.403308 0.767854 -0.033865
C4    C     C_R   0.501152 0.500515 0.610822 1.009918
C5    C     C_R   0.596918 0.421860 0.707980 -0.210615
C6    C     C_R   0.508451 0.491054 0.674511 -0.175411
C7    C     C_R   0.428115 0.544978 0.701745 0.387155
C8    C     C_R   0.433633 0.520187 0.762340 -0.140165
C9    C     C_R   0.525272 0.451159 0.795074 0.160602
C10   C     C_R   0.431657 0.480516 0.222095 -0.149544
C11   C     C_R   0.417655 0.506927 0.278657 0.303999
C12   C     C_R   0.711972 0.506782 0.058012 0.443787
C13   C     C_R   0.506240 0.476052 0.328388 -0.146132
C14   C     C_R   0.604918 0.418093 0.320662 -0.229436
C15   C     C_R   0.617099 0.391842 0.264468 -0.072689
C16   C     C_R   0.561513 0.308349 0.501946 0.845229
C17   C     C_R   0.531261 0.424036 0.215040 0.233847
C18   C     C_R   0.738849 0.047900 0.493374 -0.046096
C19   C     C_R   0.598171 0.200373 0.488926 -0.194802
C20   C     C_R   0.290283 0.856137 0.463658 0.494383
C21   C     C_R   0.269206 0.964004 0.464228 -0.164400
C22   C     C_R   0.351961 0.022914 0.465154 -0.195325
C23   C     C_R   0.703346 0.514967 0.996877 -0.188212
C24   C     C_R   0.456663 0.976783 0.459157 0.150209
C25   C     C_R   0.479601 0.867892 0.455861 -0.046923
C26   C     C_R   0.542110 0.036872 0.461079 0.136488
C27   C     C_R   0.652905 0.988271 0.471485 0.005205
C28   C     C_R   0.499620 0.497508 0.389290 0.843170
C29   C     C_R   0.670945 0.884515 0.456100 -0.230145
C30   C     C_R   0.582104 0.827771 0.442061 0.010304
C31   C     C_R   0.520999 0.144896 0.454768 -0.094610
C32   C     C_R   0.708541 0.152085 0.506715 -0.155767
C33   C     C_R   0.400098 0.805052 0.466381 -0.275254
C34   C     C_R   0.626754 0.466840 0.957111 -0.100506
C35   C     C_R   0.109660 0.309790 0.450455 -0.227542
C36   C     C_R   0.793650 0.650648 0.551361 0.535082
C37   C     C_R   0.874440 0.699900 0.535385 -0.274654
C38   C     C_R   0.945525 0.646897 0.504507 -0.134597
C39   C     C_R   0.947187 0.540145 0.497798 0.002706
C40   C     C_R   0.488008 0.344834 0.120507 0.515419
C41   C     C_R   0.860018 0.494110 0.511647 0.094654
C42   C     C_R   0.035840 0.476548 0.481921 -0.012538
C43   C     C_R   0.025968 0.371851 0.470176 0.120840
C44   C     C_R   0.941607 0.327610 0.487026 -0.311082
C45   C     C_R   0.561472 0.403559 0.978653 -0.006391
C46   C     C_R   0.874896 0.385733 0.519697 0.354633
C47   C     C_R   0.138937 0.509117 0.484442 0.097807
C48   C     C_R   0.206802 0.348891 0.449621 0.054541
C49   C     C_R   0.622205 0.460630 0.138278 0.581423
C50   C     C_R   0.635887 0.454077 0.079683 -0.161891
C51   C     C_R   0.565538 0.396598 0.039994 -0.046273
C52   C     C_R   0.496370 0.335157 0.061004 -0.076550
C53   C     C_2   0.858105 0.003221 0.505838 0.451760
C54   C     C_2   0.439397 0.196313 0.401380 0.370932
C55   C     C_2   0.591126 0.738035 0.403872 0.501897
C56   C     C_R   0.489464 0.350085 0.938488 -0.048009
C57   C     C_2   0.376765 0.190207 0.040261 0.539225
C58   C     C_2   0.345768 0.563113 0.792601 0.607451
C59   C     C_R   0.428737 0.282932 0.959921 -0.092742
C60   C     C_R   0.433601 0.272004 0.020774 -0.047946
C61   C     C_R   0.613899 0.480615 0.895740 0.555308
H1    H     H_    0.672823 0.392190 0.358437 0.175206
H2    H     H_    0.103474 0.229771 0.439830 0.163593
H3    H     H_    0.157627 0.580488 0.503538 0.205924
H4    H     H_    0.004037 0.687973 0.490598 0.211673
H5    H     H_    0.886328 0.776981 0.549415 0.170933
H6    H     H_    0.378276 0.237297 0.929119 0.230448
H7    H     H_    0.675996 0.350344 0.793324 0.173098
H8    H     H_    0.658818 0.381009 0.687567 0.208452
H9    H     H_    0.366499 0.505695 0.183054 0.200138
H10   H     H_    0.837249 0.693754 0.157890 0.406801
H11   H     H_    0.213432 0.445056 0.288883 0.358346
H12   H     H_    0.694228 0.348404 0.259057 0.168275
H13   H     H_    0.885092 0.925617 0.493975 0.071860
H14   H     H_    0.432765 0.278774 0.391792 0.088628
H15   H     H_    0.999312 0.834052 0.422347 0.373341
H16   H     H_    0.517040 0.708055 0.381785 0.072034
H17   H     H_    0.798924 0.848659 0.628640 0.356086
H18   H     H_    0.785672 0.268645 0.639134 0.369676
H19   H     H_    0.409430 0.149149 0.083042 0.124371
H20   H     H_    0.359703 0.781670 0.611839 0.401583
H21   H     H_    0.367053 0.579763 0.839354 0.040224
H22   H     H_    0.770924 0.196495 0.528247 0.227328
H23   H     H_    0.750700 0.849870 0.450033 0.163791
H24   H     H_    0.332722 0.105337 0.470611 0.159820
H25   H     H_    0.188383 0.003768 0.466283 0.215336
H26   H     H_    0.757158 0.559456 0.980134 0.239885
H27   H     H_    0.273095 0.299133 0.437302 0.130293
H28   H     H_    0.945393 0.244089 0.487230 0.215892
N1    N     N_R   0.549014 0.407546 0.156724 -0.348512
N2    N     N_R   0.539769 0.431740 0.857472 -0.364465
N3    N     N_R   0.222200 0.444670 0.469780 -0.103037
N4    N     N_R   0.776960 0.554790 0.529910 -0.152979
O1    O     O_R   0.366740 0.627150 0.485570 -0.515492
O2    O     O_R   0.410990 0.482290 0.406510 -0.570919
O3    O     O_R   0.589070 0.517660 0.425810 -0.630877
O4    O     O_2   0.415961 0.296719 0.141798 -0.552738
O5    O     O_2   0.880040 0.484475 0.155276 -0.226806
O6    O     O_2   0.905783 0.580402 0.069377 -0.254360
O7    O     O_3   0.772831 0.672101 0.130052 -0.473707
O8    O     O_2   0.314749 0.669198 0.325268 -0.260724
O9    O     O_2   0.224857 0.625511 0.225147 -0.227871
O10   O     O_3   0.217032 0.506082 0.314029 -0.473304
O11   O     O_2   0.929323 0.053720 0.529581 -0.505522
O12   O     O_2   0.675575 0.524463 0.176021 -0.444127
O13   O     O_2   0.383131 0.146358 0.365410 -0.531615
O14   O     O_2   0.174552 0.705127 0.420166 -0.261732
O15   O     O_2   0.180196 0.755381 0.523642 -0.296438
O16   O     O_3   0.057283 0.877517 0.437420 -0.568189
O17   O     O_2   0.680242 0.698688 0.395315 -0.557163
O18   O     O_2   0.628858 0.757454 0.595693 -0.298470
O19   O     O_2   0.746997 0.610537 0.656081 -0.175444
O20   O     O_3   0.827565 0.779774 0.649213 -0.478249
O21   O     O_2   0.960510 0.231362 0.602990 -0.251400
O22   O     O_2   0.954619 0.409058 0.635375 -0.194859
O23   O     O_2   0.673641 0.543530 0.874260 -0.495031
O24   O     O_3   0.772792 0.332487 0.613364 -0.560641
O25   O     O_2   0.294223 0.165369 0.007749 -0.513300
O26   O     O_2   0.229230 0.610861 0.630022 -0.207413
O27   O     O_2   0.302299 0.731333 0.704249 -0.238216
O28   O     O_3   0.388074 0.706569 0.612827 -0.547264
O29   O     O_2   0.248353 0.574741 0.766639 -0.431191
O30   O     O_2   0.411541 0.314652 0.838022 -0.503254
O31   O     O_R   0.544830 0.662520 0.504870 -0.606962
O32   O     O_R   0.410930 0.482340 0.574190 -0.588608
O33   O     O_R   0.589010 0.517710 0.593490 -0.518315
O34   O     O_R   0.455170 0.337480 0.495130 -0.656272
O35   O     O_R   0.633260 0.372850 0.514430 -0.581883
S1    S     S_3+6 0.822905 0.559628 0.104096 0.111358
S2    S     S_3+6 0.291360 0.581453 0.284975 0.095801
S3    S     S_3+6 0.174798 0.793413 0.461475 0.018806
S4    S     S_3+6 0.744247 0.698928 0.613383 0.112070
S5    S     S_3+6 0.892867 0.337800 0.594243 0.069755
S6    S     S_3+6 0.332106 0.650633 0.662268 0.114503
Zn1   Zn    Zn3+2 0.381090 0.476380 0.487110 1.064422
Zn2   Zn    Zn3+2 0.618910 0.523620 0.512890 1.067232

loop_
_geom_bond_atom_site_label_1
_geom_bond_atom_site_label_2
_ccdc_geom_bond_type
O20   S4    S    
C27   C29   A    
C47   N3    A    
C53   H13   S    
C49   N1    A    
N4    Zn2   S    
C19   C31   A    
C9    N2    S    
H15   O16   S    
C1    C33   S    
C7    C8    A    
C39   C41   A    
C2    O30   S    
C12   C23   A    
C26   C27   A    
C29   C30   A    
C4    O32   A    
C28   O2    A    
C36   C37   A    
O34   Zn1   S    
C58   H21   S    
C38   C39   A    
C55   H16   S    
C45   C51   A    
C53   O11   D    
C14   H1    S    
C22   H24   S    
O15   S3    D    
C5    H8    S    
C52   C60   A    
C18   C53   S    
C8    C58   S    
C36   N4    A    
C41   N4    A    
C3    H7    S    
C45   C56   A    
C8    C9    A    
O16   S3    S    
C41   C46   A    
C48   H27   S    
C13   C28   S    
O28   S6    S    
C35   C43   A    
C59   H6    S    
O8    S2    D    
O32   Zn1   S    
O24   S5    S    
C59   C60   A    
C23   H26   S    
C13   C14   A    
C57   H19   S    
C35   C48   A    
O10   S2    S    
C44   C46   A    
O1    Zn1   S    
C39   C42   A    
C58   O29   D    
O26   S6    D    
C12   S1    S    
O31   Zn2   S    
C51   C52   A    
C24   C25   A    
C29   H23   S    
O3    Zn2   S    
C47   H3    S    
C54   O13   D    
O7    S1    S    
C1    O1    A    
C57   C60   S    
C49   O12   S    
O22   S5    D    
C40   C52   A    
C34   C61   A    
H20   O28   S    
C43   C44   A    
C37   C38   A    
C3    C9    A    
C38   H4    S    
C23   C34   A    
C19   C32   A    
C37   H5    S    
C61   O23   S    
O2    Zn1   S    
C50   C51   A    
C34   C45   A    
O19   S4    D    
C16   O35   A    
C7    S6    S    
C20   C33   A    
C10   H9    S    
C4    C6    S    
C15   H12   S    
O35   Zn2   S    
C55   O17   D    
C22   C24   A    
H17   O20   S    
C18   C32   A    
C42   C43   A    
C20   S3    S    
C11   S2    S    
C40   O4    S    
C30   C55   S    
C25   C30   A    
C15   C17   A    
C32   H22   S    
C21   H25   S    
C18   C27   A    
O9    S2    D    
C24   C26   A    
C3    C5    A    
C12   C50   A    
C6    C7    A    
H11   O10   S    
C4    O33   A    
H10   O7    S    
C56   C59   A    
O6    S1    D    
C28   O3    A    
O14   S3    D    
C36   S4    S    
C1    O31   A    
C2    C56   A    
C46   S5    S    
C17   N1    S    
C11   C13   A    
C5    C6    A    
C16   C19   S    
H18   O24   S    
O5    S1    D    
O21   S5    D    
O27   S6    D    
C42   C47   A    
C31   C54   S    
C2    N2    A    
C16   O34   A    
C10   C11   A    
O33   Zn2   S    
C54   H14   S    
N3    Zn1   S    
O18   S4    D    
C26   C31   A    
C20   C21   A    
C49   C50   A    
C48   N3    A    
C14   C15   A    
C35   H2    S    
C10   C17   A    
C40   N1    A    
C21   C22   A    
C44   H28   S    
C61   N2    A    
C25   C33   A    
C57   O25   D    
