data_mof_unit_114.cif
_audit_creation_date              2012-12-11T15:21:44-0500
_audit_creation_method            fapswitch 2.2
_symmetry_space_group_name_H-M    P1
_symmetry_Int_Tables_number       1
_space_group_crystal_system       triclinic
_cell_length_a                    19.2166
_cell_length_b                    7.142357
_cell_length_c                    17.676822
_cell_angle_alpha                 90.0
_cell_angle_beta                  108.924259
_cell_angle_gamma                 90.000014
_cell_volume                      2295.03659481

loop_
_atom_site_label
_atom_site_type_symbol
_atom_type_description
_atom_site_fract_x
_atom_site_fract_y
_atom_site_fract_z
_atom_type_partial_charge
O1    O     O_R   0.562310 0.505770 0.439670 -0.532401
O2    O     O_R   0.437690 0.005770 0.560330 -0.532400
O3    O     O_R   0.411650 0.169150 0.405330 -0.537037
O4    O     O_R   0.588350 0.669150 0.594670 -0.537037
C1    C     C_R   0.384293 0.346232 0.383288 0.637411
C2    C     C_R   0.615707 0.846232 0.616712 0.637412
O5    O     O_R   0.560140 0.175610 0.430010 -0.534558
O6    O     O_R   0.439860 0.675610 0.569990 -0.534558
O7    O     O_R   0.587240 0.012100 0.585200 -0.538093
O8    O     O_R   0.412760 0.512100 0.414800 -0.538093
C3    C     C_R   0.579313 0.345238 0.412926 0.723565
C4    C     C_R   0.420686 0.845238 0.587074 0.723563
O9    O     O_3   0.508720 0.341420 0.550890 -0.363465
O10   O     O_3   0.491280 0.841420 0.449110 -0.363465
V1    V     V_3+5 0.498380 0.063930 0.490560 1.500762
V2    V     V_3+5 0.501620 0.563930 0.509440 1.500761
C5    C     C_R   0.180596 0.059680 0.868733 -0.209425
C6    C     C_R   0.819404 0.559680 0.131267 -0.209425
C7    C     C_R   0.130188 0.915714 0.865490 -0.074015
C8    C     C_R   0.869812 0.415714 0.134509 -0.074015
C9    C     C_R   0.128305 0.759173 0.816586 -0.210456
C10   C     C_R   0.871695 0.259173 0.183414 -0.210456
C11   C     C_R   0.176179 0.744818 0.770678 0.078110
C12   C     C_R   0.823821 0.244817 0.229322 0.078110
C13   C     C_R   0.227453 0.890671 0.775427 0.025156
C14   C     C_R   0.772546 0.390671 0.224573 0.025156
C15   C     C_R   0.229291 0.047887 0.824595 0.108343
C16   C     C_R   0.770709 0.547887 0.175404 0.108343
C17   C     C_R   0.174326 0.589002 0.720230 0.140947
C18   C     C_R   0.825674 0.089001 0.279769 0.140947
C19   C     C_R   0.224105 0.579954 0.677023 -0.164698
C20   C     C_R   0.775895 0.079953 0.322977 -0.164697
C21   C     C_R   0.275047 0.723599 0.681853 0.040213
C22   C     C_R   0.724952 0.223599 0.318146 0.040213
C23   C     C_R   0.276877 0.880140 0.730945 0.041470
C24   C     C_R   0.723123 0.380140 0.269054 0.041469
C25   C     C_R   0.328140 0.025966 0.735870 0.064061
C26   C     C_R   0.671860 0.525966 0.264129 0.064061
C27   C     C_R   0.328521 0.181393 0.785383 -0.179905
C28   C     C_R   0.671478 0.681392 0.214616 -0.179904
C29   C     C_R   0.279836 0.191785 0.829003 -0.172561
C30   C     C_R   0.720163 0.691784 0.170996 -0.172561
C31   C     C_R   0.323260 0.713449 0.636982 -0.161888
C32   C     C_R   0.676740 0.213448 0.363017 -0.161886
C33   C     C_R   0.373820 0.857609 0.639795 -0.116856
C34   C     C_R   0.626180 0.357610 0.360205 -0.116854
C35   C     C_R   0.377488 0.013140 0.691238 -0.089218
C36   C     C_R   0.622512 0.513140 0.308761 -0.089219
H1    H     H_    0.182644 0.180302 0.906592 0.123576
H2    H     H_    0.817355 0.680301 0.093407 0.123576
H3    H     H_    0.088689 0.649913 0.814312 0.137563
H4    H     H_    0.911311 0.149912 0.185688 0.137562
H5    H     H_    0.222782 0.460413 0.638745 0.155220
H6    H     H_    0.777217 0.960412 0.361254 0.155220
H7    H     H_    0.320320 0.594017 0.598182 0.159463
H8    H     H_    0.679680 0.094017 0.401818 0.159463
H9    H     H_    0.366104 0.297189 0.790519 0.142421
H10   H     H_    0.633894 0.797188 0.209480 0.142421
H11   H     H_    0.281551 0.313628 0.866135 0.134394
H12   H     H_    0.718448 0.813626 0.133863 0.134394
C37   C     C_3   0.753000 0.790161 0.835065 0.032302
C38   C     C_3   0.247000 0.290161 0.164935 0.032302
H13   H     H_    0.775030 0.644929 0.842245 0.171437
H14   H     H_    0.224970 0.144928 0.157755 0.171437
C39   C     C_3   0.678554 0.786797 0.764517 -0.370438
C40   C     C_3   0.321446 0.286797 0.235483 -0.370439
H15   H     H_    0.635381 0.867679 0.779743 0.158786
H16   H     H_    0.364619 0.367679 0.220257 0.158785
H17   H     H_    0.658485 0.639773 0.754076 0.154568
H18   H     H_    0.341514 0.139772 0.245923 0.154567
H19   H     H_    0.858785 0.682403 0.762637 0.149018
H20   H     H_    0.141215 0.182403 0.237363 0.149017
H21   H     H_    0.744898 0.611259 0.676331 0.129893
H22   H     H_    0.255101 0.111259 0.323669 0.129893
C41   C     C_3   0.827448 0.814102 0.741808 -0.439563
C42   C     C_3   0.172552 0.314102 0.258192 -0.439563
C43   C     C_3   0.778155 0.109769 0.781118 -0.178745
C44   C     C_3   0.221845 0.609769 0.218882 -0.178746
C45   C     C_3   0.811587 0.915001 0.813218 0.042554
C46   C     C_3   0.188413 0.415002 0.186782 0.042555
H23   H     H_    0.821246 0.190236 0.765323 0.102519
H24   H     H_    0.178754 0.690236 0.234677 0.102519
C47   C     C_3   0.688073 0.869694 0.687140 -0.017996
C48   C     C_3   0.311927 0.369694 0.312860 -0.017996
C49   C     C_3   0.754519 0.764406 0.673632 -0.162646
C50   C     C_3   0.245480 0.264406 0.326368 -0.162647
C51   C     C_3   0.708727 0.084640 0.705752 -0.169395
C52   C     C_3   0.291273 0.584640 0.294248 -0.169395
H25   H     H_    0.660806 0.154447 0.716325 0.126693
H26   H     H_    0.339194 0.654447 0.283675 0.126693
H27   H     H_    0.863400 0.905115 0.719065 0.153421
H28   H     H_    0.136599 0.405115 0.280935 0.153421
O11   O     O_R   0.087220 0.271820 0.085230 -0.543281
O12   O     O_R   0.912780 0.771820 0.914770 -0.543281
O13   O     O_R   0.939860 0.595540 0.069990 -0.544352
O14   O     O_R   0.060140 0.095540 0.930010 -0.544353
C53   C     C_R   0.919198 0.426442 0.085250 0.720722
C54   C     C_R   0.080801 0.926442 0.914750 0.720723
O15   O     O_R   0.088340 0.601930 0.094680 -0.536824
O16   O     O_R   0.911660 0.101930 0.905320 -0.536824
O17   O     O_R   0.062310 0.765410 0.939660 -0.535254
O18   O     O_R   0.937690 0.265410 0.060340 -0.535254
C55   C     C_R   0.116212 0.432207 0.117119 0.671593
C56   C     C_R   0.883788 0.932207 0.882881 0.671593
O19   O     O_3   0.991270 0.429630 0.949130 -0.376034
O20   O     O_3   0.008730 0.929630 0.050870 -0.376034
V3    V     V_3+5 0.001620 0.707150 0.009440 1.411404
V4    V     V_3+5 0.998380 0.207150 0.990560 1.411404
C57   C     C_3   0.740619 0.836042 0.914965 -0.764933
H29   H     H_    0.710790 0.718283 0.931749 0.223074
H30   H     H_    0.793485 0.854338 0.963989 0.198005
H31   H     H_    0.706572 0.963106 0.910691 0.233476
C58   C     C_3   0.259381 0.336042 0.085035 -0.764933
H32   H     H_    0.289210 0.218283 0.068251 0.223074
H33   H     H_    0.206515 0.354338 0.036011 0.198005
H34   H     H_    0.293428 0.463106 0.089309 0.233476
C59   C     C_1   0.760778 0.223906 0.842436 0.290895
N1    N     N_1   0.747311 0.313006 0.890598 -0.387255
C60   C     C_1   0.239221 0.723906 0.157564 0.290895
N2    N     N_1   0.252689 0.813006 0.109402 -0.387255
C61   C     C_1   0.720421 0.185250 0.637502 0.308698
N3    N     N_1   0.729539 0.264312 0.584333 -0.367092
C62   C     C_1   0.279579 0.685250 0.362498 0.308698
N4    N     N_1   0.270461 0.764312 0.415667 -0.367092
C63   C     C_1   0.761499 0.799133 0.594100 0.337270
N5    N     N_1   0.766895 0.825753 0.531655 -0.361692
C64   C     C_1   0.238501 0.299133 0.405900 0.337269
N6    N     N_1   0.233105 0.325753 0.468345 -0.361692
C65   C     C_3   0.119214 0.432881 0.710338 -0.764932
H35   H     H_    0.125199 0.368794 0.769199 0.206329
H36   H     H_    0.062606 0.489183 0.684194 0.210626
H37   H     H_    0.126879 0.320560 0.670281 0.220254
C66   C     C_3   0.880784 0.932879 0.289661 -0.764933
H38   H     H_    0.874799 0.868793 0.230799 0.206329
H39   H     H_    0.937393 0.989180 0.315804 0.210626
H40   H     H_    0.873120 0.820558 0.329717 0.220255
C67   C     C_1   0.433870 0.154971 0.701296 0.291330
N7    N     N_1   0.478860 0.268162 0.709689 -0.352534
C68   C     C_1   0.566131 0.654974 0.298705 0.291330
N8    N     N_1   0.521142 0.768168 0.290313 -0.352533

loop_
_geom_bond_atom_site_label_1
_geom_bond_atom_site_label_2
_ccdc_geom_bond_type
O17   V3    S    
O15   C55   A    
C40   H16   S    
O1    C3    A    
H20   C42   S    
C37   C57   S    
O11   C55   A    
C2    O7    A    
C62   N4    T    
C27   C29   A    
O5    C3    A    
C11   C17   A    
C38   C46   S    
C7    C9    A    
C12   C14   A    
C58   H32   S    
C43   C59   S    
C57   H30   S    
O11   V4    S    
C44   C46   S    
C39   C47   S    
O20   V3    S    
C27   H9    S    
O16   C56   A    
C6    C8    A    
C37   H13   S    
C32   H8    S    
C38   H14   S    
C5    C7    A    
C49   C63   S    
C41   C49   S    
C17   C65   S    
C8    C53   S    
C15   C29   A    
C39   H15   S    
O14   C54   A    
C66   H40   S    
C19   C21   A    
O18   V4    S    
C25   C35   A    
C26   C36   A    
C53   O18   A    
C41   H27   S    
C65   H37   S    
C43   C45   S    
C63   N5    T    
O14   V4    S    
O2    C4    A    
O6    V2    S    
C26   C28   A    
C52   C62   S    
C20   H6    S    
C7    C54   S    
C32   C34   A    
C33   C35   A    
O19   V4    S    
C34   C36   A    
O12   V3    S    
O16   V4    S    
C28   H10   S    
C38   C40   S    
C46   C55   S    
C5    C15   A    
C42   C46   S    
C6    C16   A    
C29   H11   S    
C38   C58   S    
O4    C2    A    
C57   H31   S    
C30   H12   S    
C51   C61   S    
C1    C48   S    
O5    V1    S    
C40   C48   S    
C19   H5    S    
C20   C22   A    
O4    V2    S    
C18   C20   A    
C44   H24   S    
C28   C30   A    
C43   H23   S    
O6    C4    A    
C18   C66   S    
C35   C67   S    
C22   C32   A    
O1    V2    S    
H22   C50   S    
O2    V1    S    
C31   C33   A    
H21   C49   S    
C61   N3    T    
O13   V3    S    
C42   H28   S    
C14   C24   A    
C47   C49   S    
C52   H26   S    
C9    C11   A    
C66   H38   S    
C10   C12   A    
C45   C56   S    
C5    H1    S    
C64   N6    T    
C42   C50   S    
C9    H3    S    
O3    V1    S    
C6    H2    S    
C10   H4    S    
C65   H35   S    
C44   C52   S    
C2    C47   S    
C36   C68   S    
C23   C25   A    
C50   C64   S    
C48   C52   S    
C8    C10   A    
C4    C33   S    
O3    C1    A    
C47   C51   S    
C60   N2    T    
O13   C53   A    
C31   H7    S    
C13   C15   A    
C54   O17   A    
O15   V3    S    
C67   N7    T    
C14   C16   A    
C58   H34   S    
C51   H25   S    
C44   C60   S    
O7    V1    S    
C1    O8    A    
C17   C19   A    
O8    V2    S    
C59   N1    T    
C24   C26   A    
H19   C41   S    
C68   N8    T    
C40   H18   S    
C37   C45   S    
C39   H17   S    
C16   C30   A    
C21   C23   A    
C22   C24   A    
C11   C13   A    
C12   C18   A    
C13   C23   A    
O12   C56   A    
C37   C39   S    
C43   C51   S    
C25   C27   A    
O9    V2    S    
C66   H39   S    
O10   V1    S    
C48   C50   S    
C3    C34   S    
C58   H33   S    
C57   H29   S    
C21   C31   A    
C41   C45   S    
C65   H36   S    
