data_mof_unit_993.cif
_audit_creation_date              2012-12-10T16:59:20-0500
_audit_creation_method            fapswitch 2.2
_symmetry_space_group_name_H-M    P1
_symmetry_Int_Tables_number       1
_space_group_crystal_system       triclinic
_cell_length_a                    7.844071
_cell_length_b                    8.559106
_cell_length_c                    27.261026
_cell_angle_alpha                 90.982944
_cell_angle_beta                  84.890329
_cell_angle_gamma                 94.159069
_cell_volume                      1818.07768542

loop_
_atom_site_label
_atom_site_type_symbol
_atom_type_description
_atom_site_fract_x
_atom_site_fract_y
_atom_site_fract_z
_atom_type_partial_charge
C1    C     C_R   0.545847 0.794498 0.498475 0.974474
C2    C     C_R   0.709908 0.482183 0.122557 -0.117395
C3    C     C_R   0.501475 0.521467 0.646944 -0.269936
C4    C     C_R   0.499804 0.476607 0.353101 -0.265904
C5    C     C_R   0.683686 0.543942 0.022060 0.007111
C6    C     C_R   0.394656 0.412641 0.976374 0.009786
C7    C     C_R   0.425026 0.361799 0.023703 -0.013850
C8    C     C_R   0.658281 0.588378 0.973471 -0.019456
C9    C     C_R   0.561836 0.437576 0.047627 -0.009234
C10   C     C_R   0.517699 0.516038 0.950244 0.008105
C11   C     C_R   0.830361 0.597831 0.045525 -0.277776
C12   C     C_R   0.454160 0.205499 0.501408 0.981517
C13   C     C_R   0.236727 0.376577 0.956357 -0.273115
C14   C     C_R   0.843314 0.570721 0.095331 0.511490
C15   C     C_R   0.212583 0.413911 0.907840 0.531433
C16   C     C_R   0.500516 0.501534 0.593930 0.990553
C17   C     C_R   0.499648 0.498974 0.406056 0.983209
C18   C     C_R   0.758176 0.713138 0.948275 0.439409
C19   C     C_R   0.327825 0.233885 0.047636 0.445670
C20   C     C_2   0.569327 0.958406 0.496724 -0.377255
C21   C     C_2   0.430707 0.041570 0.502893 -0.377205
C22   C     C_R   0.618080 0.655492 0.822606 0.596826
C23   C     C_R   0.496193 0.552291 0.900955 -0.134145
C24   C     C_R   0.437826 0.313493 0.175718 0.581289
C25   C     C_R   0.338584 0.524370 0.828759 0.584570
C26   C     C_R   0.704764 0.465891 0.173854 0.590553
C27   C     C_R   0.482503 0.411708 0.728960 0.493298
C28   C     C_R   0.534560 0.579364 0.269938 0.489864
C29   C     C_R   0.473280 0.390218 0.677943 0.259534
C30   C     C_R   0.532320 0.605646 0.321199 0.259827
C31   C     C_R   0.523297 0.674331 0.666461 0.391654
C32   C     C_R   0.483654 0.322236 0.334493 0.389113
C33   C     C_R   0.505579 0.694458 0.717887 -0.327877
C34   C     C_R   0.574303 0.409217 0.097988 -0.144559
C35   C     C_R   0.515311 0.298119 0.283565 -0.325396
C36   C     C_R   0.489746 0.564774 0.748704 0.109159
C37   C     C_R   0.536397 0.424729 0.251550 0.106855
C38   C     C_3   0.665310 0.919007 0.650147 0.136231
C39   C     C_3   0.727021 0.027445 0.607513 -0.756883
C40   C     C_3   0.336118 0.080523 0.350658 0.140044
C41   C     C_3   0.271903 0.970888 0.392767 -0.764408
C42   C     C_3   0.952802 0.263922 0.432299 -0.150856
C43   C     C_3   0.047183 0.735706 0.567829 -0.151320
C44   C     C_3   0.726147 0.786892 0.351082 0.059526
C45   C     C_R   0.624334 0.645662 0.873519 -0.066747
C46   C     C_3   0.766200 0.961913 0.357900 -0.835748
C47   C     C_3   0.271933 0.212256 0.650458 0.063302
C48   C     C_3   0.232478 0.038855 0.640294 -0.830855
C49   C     C_3   0.644642 0.813578 0.233970 -0.164992
C50   C     C_3   0.370908 0.179955 0.765801 -0.231174
C51   C     C_3   0.124231 0.564972 0.108274 -0.226453
C52   C     C_3   0.020882 0.216213 0.885998 -0.220674
C53   C     C_3   0.724401 0.934097 0.994071 0.058257
C54   C     C_3   0.807226 0.048711 0.029506 -0.781810
C55   C     C_3   0.255932 0.969559 0.031986 0.107251
C56   C     C_R   0.446772 0.312117 0.124292 -0.078270
C57   C     C_3   0.267828 0.872853 0.984542 -0.813258
C58   C     C_R   0.752286 0.729081 0.897694 -0.180035
C59   C     C_R   0.329498 0.219368 0.098754 -0.322228
C60   C     C_R   0.346633 0.496815 0.879109 -0.119872
H1    H     H_    0.506520 0.809969 0.734544 0.169219
H2    H     H_    0.602390 0.991227 0.679630 0.201172
H3    H     H_    0.617091 0.081326 0.593445 0.290773
H4    H     H_    0.792303 0.961433 0.576956 0.222032
H5    H     H_    0.817634 0.122395 0.620051 0.214652
H6    H     H_    0.399453 0.008417 0.321220 0.201509
H7    H     H_    0.223571 0.131454 0.336480 0.141489
H8    H     H_    0.207404 0.036563 0.423544 0.224125
H9    H     H_    0.179832 0.878009 0.379737 0.214852
H10   H     H_    0.380554 0.914223 0.406594 0.288848
H11   H     H_    0.820122 0.272490 0.422788 0.203090
H12   H     H_    0.522312 0.181456 0.268169 0.171324
H13   H     H_    0.957435 0.178310 0.462318 0.118946
H14   H     H_    0.024500 0.219892 0.398832 0.146439
H15   H     H_    0.041999 0.821636 0.537930 0.118875
H16   H     H_    0.180066 0.727275 0.577165 0.203689
H17   H     H_    0.975853 0.779190 0.601435 0.147194
H18   H     H_    0.820105 0.743938 0.321779 0.148782
H19   H     H_    0.747439 0.731327 0.386130 0.181009
H20   H     H_    0.687043 0.005536 0.390291 0.276065
H21   H     H_    0.903362 0.984258 0.364303 0.194485
H22   H     H_    0.741656 0.026786 0.324708 0.263355
H23   H     H_    0.839195 0.816231 0.878357 0.183702
H24   H     H_    0.240345 0.276407 0.617926 0.181312
H25   H     H_    0.185201 0.246999 0.682755 0.147891
H26   H     H_    0.261560 0.967412 0.671635 0.267307
H27   H     H_    0.094375 0.017429 0.634944 0.193220
H28   H     H_    0.308817 0.002033 0.606430 0.270590
H29   H     H_    0.770252 0.771161 0.241419 0.183333
H30   H     H_    0.612795 0.913302 0.258541 0.170623
H31   H     H_    0.659477 0.858400 0.195769 0.177628
H32   H     H_    0.384831 0.082518 0.738957 0.182913
H33   H     H_    0.245459 0.231126 0.763924 0.180702
H34   H     H_    0.239696 0.134683 0.118150 0.200435
H35   H     H_    0.369863 0.128629 0.802900 0.165697
H36   H     H_    0.167954 0.565167 0.068338 0.118875
H37   H     H_    0.101553 0.442999 0.122021 0.196322
H38   H     H_    0.229265 0.623517 0.128058 0.208539
H39   H     H_    0.988109 0.163090 0.922777 0.163947
H40   H     H_    0.130537 0.159097 0.866220 0.141078
H41   H     H_    0.908189 0.191892 0.864472 0.202527
H42   H     H_    0.616615 0.868393 0.015744 0.152305
H43   H     H_    0.674583 0.002280 0.964708 0.153056
H44   H     H_    0.912270 0.121985 0.009637 0.277644
H45   H     H_    0.938155 0.661772 0.026039 0.216236
H46   H     H_    0.710242 0.126561 0.046168 0.209352
H47   H     H_    0.857263 0.984274 0.059489 0.260933
H48   H     H_    0.144540 0.921437 0.056426 0.190196
H49   H     H_    0.373643 0.955526 0.050959 0.120479
H50   H     H_    0.384720 0.911663 0.960817 0.223976
H51   H     H_    0.272243 0.747021 0.993157 0.205037
H52   H     H_    0.156147 0.888231 0.963506 0.309378
H53   H     H_    0.126694 0.326858 0.978841 0.194323
H54   H     H_    0.699931 0.010056 0.490418 0.159503
H55   H     H_    0.300098 0.989900 0.509180 0.158826
H56   H     H_    0.779159 0.869408 0.664016 0.140222
N1    N     N_R   0.480396 0.586737 0.801054 -0.320316
N2    N     N_R   0.561439 0.397441 0.199429 -0.317355
N3    N     N_2   0.950320 0.457960 0.486880 0.185523
N4    N     N_2   0.049680 0.542040 0.513120 0.185409
O1    O     O_R   0.389250 0.738570 0.503220 -0.646508
O2    O     O_2   0.303844 0.236807 0.201721 -0.563579
O3    O     O_2   0.839377 0.519580 0.198373 -0.532490
O4    O     O_2   0.193227 0.485823 0.807038 -0.518318
O5    O     O_3   0.547218 0.800133 0.634093 -0.626625
O6    O     O_3   0.453883 0.198453 0.367480 -0.627557
O7    O     O_3   0.031237 0.409911 0.444412 -0.515189
O8    O     O_3   0.968817 0.589780 0.555633 -0.515618
O9    O     O_3   0.553683 0.756706 0.339793 -0.624473
O10   O     O_3   0.447606 0.240964 0.658420 -0.623220
O11   O     O_3   0.507706 0.697064 0.237590 -0.606413
O12   O     O_R   0.610750 0.261430 0.496780 -0.646388
O13   O     O_3   0.513749 0.289663 0.759109 -0.597998
O14   O     O_3   0.976247 0.647963 0.118165 -0.587111
O15   O     O_3   0.054075 0.380100 0.889814 -0.564777
O16   O     O_3   0.845307 0.832014 0.972988 -0.652832
O17   O     O_3   0.231299 0.126792 0.020594 -0.644366
O18   O     O_R   0.678390 0.711630 0.494810 -0.619269
O19   O     O_R   0.321610 0.288370 0.505190 -0.617223
O20   O     O_R   0.355440 0.513440 0.575450 -0.656414
O21   O     O_R   0.644560 0.486560 0.424550 -0.657468
O22   O     O_R   0.644590 0.486500 0.567040 -0.552970
O23   O     O_R   0.355410 0.513500 0.432960 -0.551959
O24   O     O_2   0.750119 0.728567 0.794807 -0.558086
Zn1   Zn    Zn3+2 0.306940 0.517990 0.505620 1.026610
Zn2   Zn    Zn3+2 0.693060 0.482010 0.494380 1.025723

loop_
_geom_bond_atom_site_label_1
_geom_bond_atom_site_label_2
_ccdc_geom_bond_type
C51   H37   S    
C22   N1    A    
C46   H20   S    
C34   C56   A    
C23   C45   A    
C27   C29   A    
C15   C60   A    
O22   Zn2   S    
C49   H30   S    
C21   H55   S    
C4    C30   A    
C53   C54   S    
N3    Zn2   S    
C39   H4    S    
C49   O11   S    
C54   H47   S    
C47   H25   S    
C54   H44   S    
C35   C37   A    
C53   H43   S    
C5    C11   A    
C38   C39   S    
C11   C14   A    
C50   H35   S    
C57   H52   S    
C15   O15   S    
C33   C36   A    
C17   O21   A    
C32   O6    S    
C3    C29   A    
C46   H22   S    
C18   C58   A    
C37   N2    S    
C57   H50   S    
C1    C20   S    
C40   H7    S    
C11   H45   S    
C48   H28   S    
C18   O16   S    
C25   C60   A    
C51   H36   S    
C2    C34   A    
C51   H38   S    
N4    Zn1   S    
C40   H6    S    
C55   H49   S    
C39   H5    S    
C16   O20   A    
C53   O16   S    
C49   H31   S    
C24   O2    S    
C44   C46   S    
C41   H8    S    
C43   H15   S    
C23   C60   A    
C52   H41   S    
C45   C58   A    
C12   O19   A    
C42   H14   S    
C54   H46   S    
C47   O10   S    
C27   O13   S    
C32   C35   A    
C14   O14   S    
C19   C59   A    
C44   O9    S    
C12   C21   S    
C52   H40   S    
C8    C18   A    
C43   O8    S    
C16   O22   A    
C5    C9    A    
C46   H21   S    
C38   H56   S    
C47   C48   S    
C53   H42   S    
C19   O17   S    
C40   O6    S    
C31   C33   A    
C48   H27   S    
C2    C26   A    
C47   H24   S    
C3    C31   A    
C36   N1    S    
C4    C32   A    
O21   Zn2   S    
C4    C17   S    
C42   O7    S    
C50   H32   S    
C40   C41   S    
C59   H34   S    
C35   H12   S    
C7    C19   A    
C13   C15   A    
C9    C34   A    
C10   C23   A    
O1    Zn1   S    
C24   C56   A    
C26   O3    S    
C31   O5    S    
C38   O5    S    
C41   H9    S    
C43   H16   S    
O23   Zn1   S    
O19   Zn1   S    
C42   H13   S    
C12   O12   A    
C44   H19   S    
C26   N2    A    
C49   H29   S    
C50   O13   S    
C25   N1    A    
O20   Zn1   S    
C6    C10   A    
C5    C8    A    
N3    N4    D    
N4    O8    S    
C50   H33   S    
C6    C7    A    
C27   C36   A    
C43   H17   S    
C30   O9    S    
C39   H3    S    
C52   H39   S    
C24   N2    A    
C55   O17   S    
C56   C59   A    
C55   H48   S    
C17   O23   A    
C28   O11   S    
O12   Zn2   S    
C55   C57   S    
C28   C30   A    
C58   H23   S    
C6    C13   A    
C20   H54   S    
C57   H51   S    
C28   C37   A    
O18   Zn2   S    
C33   H1    S    
C44   H18   S    
C42   H11   S    
C51   O14   S    
C48   H26   S    
C2    C14   A    
C25   O4    S    
C1    O1    A    
C3    C16   S    
C29   O10   S    
C7    C9    A    
C22   C45   A    
C20   C21   D    
C8    C10   A    
C22   O24   S    
C52   O15   S    
C13   H53   S    
C1    O18   A    
C41   H10   S    
C38   H2    S    
N3    O7    S    
