data_mof_unit_3927.cif
_audit_creation_date              2013-03-05T16:05:05-0500
_audit_creation_method            fapswitch 2.2
_symmetry_space_group_name_H-M    P1
_symmetry_Int_Tables_number       1
_space_group_crystal_system       triclinic
_cell_length_a                    6.952284
_cell_length_b                    23.225883
_cell_length_c                    25.853629
_cell_angle_alpha                 104.719513
_cell_angle_beta                  90.495633
_cell_angle_gamma                 90.224614
_cell_volume                      4037.42243159

loop_
_atom_site_label
_atom_site_type_symbol
_atom_site_description
_atom_site_fract_x
_atom_site_fract_y
_atom_site_fract_z
_atom_type_partial_charge
O1    O     O_R   0.505750 0.453350 0.547660 -0.606552
O2    O     O_R   0.170990 0.432220 0.437590 -0.601611
O3    O     O_R   0.005600 0.546650 0.452340 -0.585689
C1    C     C_R   0.339767 0.415173 0.417659 0.936596
O4    O     O_R   0.175720 0.446240 0.546340 -0.604350
O5    O     O_R   0.010370 0.560770 0.561860 -0.570648
C2    C     C_R   0.345140 0.434280 0.562941 0.929314
O6    O     O_R   0.500990 0.439230 0.438140 -0.603389
O7    O     O_3   0.340820 0.537560 0.504970 -0.223728
V1    V     V_3+5 0.064050 0.493030 0.499080 1.189167
O8    O     O_R   0.680940 0.567780 0.562410 -0.558860
C3    C     C_R   0.850577 0.583805 0.582916 1.042928
O9    O     O_R   0.676210 0.553760 0.453660 -0.601611
C4    C     C_R   0.844449 0.565843 0.437255 0.956743
V2    V     V_3+5 0.564640 0.506970 0.500920 1.202851
O10   O     O_3   0.837740 0.462440 0.495030 -0.296081
C5    C     C_R   0.788440 0.893541 0.130188 -0.105380
H1    H     H_    0.670667 0.920214 0.124261 0.232052
C6    C     C_R   0.771725 0.858179 0.166181 -0.083172
H2    H     H_    0.635649 0.856811 0.185686 0.200569
C7    C     C_R   0.928117 0.825037 0.176897 -0.120722
C8    C     C_R   0.107376 0.831627 0.153413 0.222004
C9    C     C_R   0.123093 0.869471 0.118466 0.293241
C10   C     C_R   0.959282 0.897846 0.103783 -0.360362
C11   C     C_R   0.974051 0.727070 0.200275 -0.035881
H3    H     H_    0.041010 0.709178 0.161925 0.136236
C12   C     C_R   0.961497 0.691360 0.236323 -0.184548
H4    H     H_    0.019513 0.646750 0.225095 0.123206
C13   C     C_R   0.873768 0.712821 0.286228 0.079940
C14   C     C_R   0.796137 0.770441 0.298961 -0.135733
H5    H     H_    0.728261 0.788172 0.337211 0.132743
C15   C     C_R   0.811577 0.806539 0.263253 -0.082624
H6    H     H_    0.755716 0.851398 0.274825 0.129148
C16   C     C_R   0.903442 0.785595 0.213830 0.192003
C17   C     C_R   0.695026 0.670062 0.352094 -0.147480
H7    H     H_    0.565828 0.692580 0.344401 0.121689
C18   C     C_R   0.687928 0.634545 0.388444 -0.134920
H8    H     H_    0.553235 0.630931 0.408152 0.144266
C19   C     C_R   0.852570 0.604252 0.399220 -0.123140
C20   C     C_R   0.024271 0.610337 0.372607 -0.133286
H9    H     H_    0.153738 0.587661 0.379820 0.126544
C21   C     C_R   0.030567 0.645269 0.335789 -0.144637
H10   H     H_    0.164916 0.649211 0.316018 0.114886
C22   C     C_R   0.866101 0.675521 0.325154 0.123747
C23   C     C_R   0.730616 0.636258 0.675254 0.231173
C24   C     C_R   0.863815 0.632654 0.633006 -0.343368
C25   C     C_R   0.015282 0.675105 0.639168 0.245658
C26   C     C_R   0.037071 0.719818 0.687432 -0.026286
C27   C     C_R   0.895791 0.726074 0.727436 -0.052710
C28   C     C_R   0.738338 0.685893 0.720549 0.107689
C29   C     C_R   0.194694 0.759724 0.696104 -0.108710
C30   C     C_R   0.214359 0.804075 0.743720 -0.230946
C31   C     C_R   0.073791 0.811285 0.783158 0.157081
C32   C     C_R   0.912151 0.772906 0.774729 0.083503
C33   C     C_R   0.766652 0.781523 0.813581 0.142673
C34   C     C_R   0.607070 0.743375 0.805374 -0.219686
C35   C     C_R   0.593583 0.695988 0.759834 -0.174338
C36   C     C_R   0.091024 0.856762 0.830591 -0.254713
C37   C     C_R   0.944912 0.865919 0.868961 -0.141656
C38   C     C_R   0.782425 0.828374 0.859944 -0.242066
H11   H     H_    0.305300 0.756923 0.666456 0.183392
H12   H     H_    0.338822 0.833333 0.749364 0.144271
H13   H     H_    0.215552 0.886079 0.836993 0.136704
H14   H     H_    0.669280 0.835116 0.889461 0.151817
H15   H     H_    0.492634 0.749904 0.834464 0.147139
H16   H     H_    0.466574 0.668049 0.755442 0.150993
C39   C     C_R   0.288284 0.170185 0.140285 -0.244944
C40   C     C_R   0.456215 0.135244 0.131158 -0.150533
C41   C     C_R   0.604685 0.147225 0.169879 -0.234384
C42   C     C_R   0.584114 0.192381 0.217602 0.145437
C43   C     C_R   0.415350 0.227138 0.226154 0.029415
C44   C     C_R   0.267737 0.216248 0.187104 0.153861
C45   C     C_R   0.728417 0.203110 0.257264 -0.191314
C46   C     C_R   0.707651 0.248406 0.304372 -0.207325
C47   C     C_R   0.541482 0.283652 0.312962 0.140259
C48   C     C_R   0.393852 0.272751 0.273916 0.029701
C49   C     C_R   0.225087 0.307506 0.282466 0.157153
C50   C     C_R   0.080755 0.296765 0.242812 -0.209296
C51   C     C_R   0.101536 0.251478 0.195701 -0.225540
C52   C     C_R   0.520998 0.329756 0.359760 -0.230355
C53   C     C_R   0.353104 0.364719 0.368868 -0.138898
C54   C     C_R   0.204559 0.352687 0.330170 -0.259596
H17   H     H_    0.173133 0.161633 0.110717 0.137676
H18   H     H_    0.733754 0.120393 0.163543 0.137713
H19   H     H_    0.858338 0.176715 0.251703 0.150513
H20   H     H_    0.822445 0.256097 0.333998 0.149498
H21   H     H_    0.636169 0.338328 0.389321 0.144894
H22   H     H_    0.075476 0.379512 0.336502 0.132734
H23   H     H_    0.950824 0.323154 0.248375 0.142631
H24   H     H_    0.986744 0.243787 0.166075 0.140927
C55   C     C_R   0.283888 0.103225 0.867664 -0.191844
H25   H     H_    0.162675 0.075698 0.872600 0.138412
C56   C     C_R   0.271231 0.137111 0.829700 0.317413
C57   C     C_R   0.429167 0.172879 0.822704 0.097089
C58   C     C_R   0.596498 0.173448 0.853672 -0.208442
H26   H     H_    0.718197 0.200826 0.848989 0.139667
C59   C     C_R   0.609080 0.138607 0.890547 -0.165001
H27   H     H_    0.740977 0.139735 0.913389 0.142603
C60   C     C_R   0.452616 0.103255 0.898181 -0.169620
C61   C     C_R   0.526795 0.193216 0.734097 0.108411
C62   C     C_R   0.514977 0.229684 0.697535 0.333072
C63   C     C_R   0.397201 0.280979 0.709092 -0.095324
C64   C     C_R   0.294262 0.295312 0.756997 -0.194552
H28   H     H_    0.204581 0.334559 0.766710 0.137621
C65   C     C_R   0.308453 0.260277 0.793411 -0.198966
H29   H     H_    0.228732 0.273049 0.830353 0.134888
C66   C     C_R   0.422995 0.209150 0.782669 0.064309
C67   C     C_R   0.203154 0.335314 0.653921 -0.097251
H30   H     H_    0.072533 0.317458 0.666503 0.139662
C68   C     C_R   0.190196 0.372027 0.618528 -0.160271
H31   H     H_    0.049261 0.381830 0.604915 0.131659
C69   C     C_R   0.357188 0.395468 0.600829 -0.131677
C70   C     C_R   0.537060 0.381654 0.620007 -0.154440
H32   H     H_    0.668811 0.399208 0.607796 0.126690
C71   C     C_R   0.549742 0.344954 0.655282 -0.079188
H33   H     H_    0.690057 0.335419 0.669514 0.111201
C72   C     C_R   0.383194 0.320881 0.672204 0.173812
O11   O     O_R   0.308350 0.060850 0.061810 -0.588289
O12   O     O_R   0.633860 0.053770 0.953650 -0.603160
O13   O     O_R   0.798960 0.939210 0.938150 -0.598873
C73   C     C_R   0.464523 0.065655 0.936995 0.921730
O14   O     O_R   0.638360 0.067800 0.062400 -0.606066
O15   O     O_R   0.803500 0.953330 0.047670 -0.582473
C74   C     C_R   0.469585 0.084839 0.082336 0.984371
O16   O     O_R   0.303810 0.046730 0.952290 -0.606761
O17   O     O_3   0.468430 0.962490 0.995010 -0.235717
V3    V     V_3+5 0.745300 0.006960 0.000930 1.176175
O18   O     O_R   0.132880 0.946160 0.046390 -0.529940
C75   C     C_R   0.965605 0.935194 0.064019 1.016442
O19   O     O_R   0.128380 0.932130 0.937650 -0.601643
C76   C     C_R   0.958585 0.915549 0.917721 0.951110
V4    V     V_3+5 0.244670 0.992930 0.999140 1.218497
O20   O     O_3   0.971670 0.037510 0.005000 -0.296438
C77   C     C_3   0.591147 0.585557 0.674816 -0.933341
H34   H     H_    0.592266 0.575254 0.714473 0.221157
H35   H     H_    0.443296 0.597954 0.665523 0.274067
H36   H     H_    0.631228 0.543150 0.646398 0.231061
N1    N     N_R   0.142295 0.674127 0.595412 0.238055
O21   O     O_R   0.074644 0.683312 0.551107 -0.398262
O22   O     O_R   0.321806 0.659505 0.598183 -0.404464
N2    N     N_R   0.276871 0.804101 0.168063 0.219992
O23   O     O_R   0.387957 0.773012 0.131231 -0.386008
O24   O     O_R   0.319960 0.809539 0.218174 -0.432701
C78   C     C_3   0.091743 0.133219 0.795943 -1.034144
H37   H     H_    0.024476 0.177691 0.802903 0.250754
H38   H     H_    0.128721 0.117117 0.753008 0.273593
H39   H     H_    0.983995 0.102092 0.805476 0.254296
C79   C     C_3   0.641784 0.136319 0.719106 -0.861469
H40   H     H_    0.796856 0.147124 0.717905 0.274526
H41   H     H_    0.624140 0.107941 0.747316 0.235323
H42   H     H_    0.594726 0.109299 0.679110 0.268100
N3    N     N_R   0.614994 0.212978 0.647579 0.231259
O25   O     O_R   0.800876 0.206645 0.646928 -0.406988
O26   O     O_R   0.521525 0.206787 0.602663 -0.361235
N4    N     N_R   0.308787 0.888696 0.107324 0.234884
O27   O     O_R   0.403808 0.857584 0.066676 -0.375694
O28   O     O_R   0.355704 0.944067 0.128475 -0.454963

loop_
_geom_bond_atom_site_label_1
_geom_bond_atom_site_label_2
_geom_bond_distance
_ccdc_geom_bond_type
C33   C34   1.397731 A    
C39   H17   1.084301 S    
C62   C63   1.417776 A    
C9    N4    1.419962 S    
N4    O28   1.302143 A    
O13   C76   1.296127 A    
C45   C46   1.401457 A    
O19   V4    2.000759 S    
C58   H26   1.082384 S    
C29   H11   1.080890 S    
C79   H42   1.110354 S    
C35   H16   1.081663 S    
C1    O6    1.297457 A    
O18   C75   1.300336 A    
C40   C74   1.491423 S    
C77   H36   1.107026 S    
C53   C54   1.408315 A    
O13   V3    1.991696 S    
C49   C50   1.403712 A    
C34   C35   1.394687 A    
C65   C66   1.401781 A    
C37   C76   1.478367 S    
C23   C77   1.520227 S    
C56   C57   1.414611 A    
C49   C54   1.410391 A    
C7    C8    1.415640 A    
C6    C7    1.400422 A    
C18   H8    1.083027 S    
C79   H41   1.107516 S    
C70   H32   1.082759 S    
C52   H21   1.084301 S    
C41   C42   1.410439 A    
N2    O24   1.301526 A    
O5    C3    1.297631 A    
C14   H5    1.082962 S    
C52   C53   1.411508 A    
C12   C13   1.405104 A    
C27   C32   1.418382 A    
C67   H30   1.083140 S    
C25   N1    1.436783 S    
C39   C44   1.405801 A    
O14   V3    1.990634 S    
C68   H31   1.082699 S    
C51   H24   1.083636 S    
C4    C19   1.487389 S    
C24   C25   1.419695 A    
O8    V2    2.000903 S    
C10   C75   1.504967 S    
C26   C29   1.411506 A    
C1    C53   1.491551 S    
C17   H7    1.083212 S    
V4    O20   2.153601 S    
C71   C72   1.404540 A    
C9    C10   1.414550 A    
C42   C43   1.413636 A    
O1    V2    1.986990 S    
C47   C52   1.405894 A    
C55   H25   1.083643 S    
C11   C16   1.406262 A    
C60   C73   1.490270 S    
C20   C21   1.399706 A    
C37   C38   1.405454 A    
C33   C38   1.402433 A    
O15   C75   1.308500 A    
C57   C58   1.404603 A    
C21   C22   1.405597 A    
C78   H39   1.110863 S    
O18   V4    1.990082 S    
C69   C70   1.409199 A    
C59   C60   1.405520 A    
C59   H27   1.083000 S    
O12   C73   1.304527 A    
C50   H23   1.083575 S    
C57   C66   1.491816 S    
N4    O27   1.301075 A    
C5    C10   1.390878 A    
C46   C47   1.404827 A    
C29   C30   1.395285 A    
C48   C49   1.413627 A    
C78   H38   1.110336 S    
C19   C20   1.407343 A    
O4    C2    1.305035 A    
C50   C51   1.401403 A    
C40   C41   1.408317 A    
C77   H35   1.109245 S    
C7    C16   1.492138 S    
C36   C37   1.404662 A    
C23   C24   1.424528 A    
C39   C40   1.411462 A    
C15   C16   1.406369 A    
O2    C1    1.307492 A    
C47   C48   1.409520 A    
C73   O16   1.300040 A    
C13   C14   1.405531 A    
C55   C56   1.407874 A    
C34   H15   1.083927 S    
O15   V3    1.983902 S    
C25   C26   1.412592 A    
O17   V4    1.704231 S    
C31   C36   1.404308 A    
C42   C45   1.403726 A    
C5    H1    1.061949 S    
C64   C65   1.395143 A    
O11   C74   1.297357 A    
C46   H20   1.083633 S    
C17   C22   1.404920 A    
C56   C78   1.505715 S    
C45   H19   1.083577 S    
C63   C72   1.492018 S    
N1    O22   1.300811 A    
C3    C24   1.491051 S    
C26   C27   1.413459 A    
N3    O26   1.301071 A    
O6    V2    1.997497 S    
O9    V2    1.990001 S    
C13   C22   1.486527 S    
C11   C12   1.399223 A    
C21   H10   1.083259 S    
O14   C74   1.307489 A    
O2    V1    1.990597 S    
C64   H28   1.083315 S    
C30   C31   1.398029 A    
C2    C69   1.492309 S    
O7    V1    2.166711 S    
C36   H13   1.084517 S    
C32   C33   1.410419 A    
C20   H9    1.083067 S    
C61   C66   1.419948 A    
C17   C18   1.400184 A    
O1    C2    1.300671 A    
C28   C35   1.413449 A    
C67   C72   1.405742 A    
V3    O20   1.715163 S    
C78   H37   1.108510 S    
O5    V1    1.991591 S    
O8    C3    1.302291 A    
C58   C59   1.400884 A    
C31   C32   1.412114 A    
C77   H34   1.110425 S    
O3    C4    1.300285 A    
C44   C51   1.404798 A    
C65   H29   1.083450 S    
C62   N3    1.437050 S    
C38   H14   1.084560 S    
C15   H6    1.082882 S    
C6    H2    1.080020 S    
O19   C76   1.300901 A    
C11   H3    1.082829 S    
O4    V1    1.985348 S    
C18   C19   1.408280 A    
C41   H18   1.084184 S    
C30   H12   1.083811 S    
N2    O23   1.300886 A    
C14   C15   1.400382 A    
O16   V4    1.992805 S    
C71   H33   1.083023 S    
C43   C48   1.417418 A    
C23   C28   1.419710 A    
C61   C79   1.512935 S    
O17   V3    2.166646 S    
C54   H22   1.084175 S    
C8    N2    1.435954 S    
C61   C62   1.422597 A    
C5    C6    1.394096 A    
C67   C68   1.402923 A    
C79   H40   1.108452 S    
O7    V2    1.706091 S    
C63   C64   1.401644 A    
C68   C69   1.408726 A    
O11   V4    1.998239 S    
N1    O21   1.301707 A    
C43   C44   1.409511 A    
N3    O25   1.300995 A    
C27   C28   1.416018 A    
C12   H4    1.083015 S    
O3    V1    1.984070 S    
C8    C9    1.416127 A    
V1    O10   1.715174 S    
C55   C60   1.407915 A    
O9    C4    1.301228 A    
V2    O10   2.153641 S    
C70   C71   1.400115 A    
O12   V3    1.985445 S    
