data_mof_unit_4775.cif
_audit_creation_date              2012-12-10T18:58:43-0500
_audit_creation_method            fapswitch 2.2
_symmetry_space_group_name_H-M    P1
_symmetry_Int_Tables_number       1
_space_group_crystal_system       triclinic
_cell_length_a                    13.006018
_cell_length_b                    10.836372
_cell_length_c                    9.543317
_cell_angle_alpha                 90.457592
_cell_angle_beta                  96.070696
_cell_angle_gamma                 90.2336
_cell_volume                      1337.41481137

loop_
_atom_site_label
_atom_site_type_symbol
_atom_type_description
_atom_site_fract_x
_atom_site_fract_y
_atom_site_fract_z
_atom_type_partial_charge
C1    C     C_R   0.497560 0.262393 0.499081 0.799024
C2    C     C_R   0.028277 0.498541 0.569266 0.064168
C3    C     C_R   0.972196 0.493791 0.433972 0.107513
C4    C     C_R   0.864864 0.492317 0.421444 -0.273165
C5    C     C_R   0.867749 0.501028 0.676031 -0.286145
C6    C     C_R   0.975709 0.499849 0.690852 0.488666
C7    C     C_R   0.478554 0.065153 0.620501 0.126665
C8    C     C_R   0.486412 0.129468 0.496126 -0.099163
C9    C     C_R   0.479673 0.063377 0.368132 -0.217635
C10   C     C_R   0.480332 0.934660 0.368929 -0.213608
C11   C     C_R   0.487785 0.871071 0.497718 -0.099599
C12   C     C_R   0.300532 0.499732 0.473779 0.805029
C13   C     C_R   0.479277 0.938095 0.621496 0.135775
C14   C     C_3   0.543916 0.935383 0.760436 -0.488731
C15   C     C_3   0.542532 0.075250 0.759353 -0.454398
C16   C     C_R   0.587931 0.528111 0.086676 0.257600
C17   C     C_R   0.416478 0.459485 0.061986 -0.081528
C18   C     C_R   0.416460 0.459487 0.913284 -0.074444
C19   C     C_R   0.588209 0.527257 0.939327 0.250846
C20   C     C_3   0.648453 0.644612 0.943396 -0.509993
C21   C     C_3   0.647414 0.646059 0.102190 -0.491401
C22   C     C_R   0.498230 0.737825 0.500001 0.804619
C23   C     C_R   0.699477 0.499212 0.526274 0.836149
C24   C     C_R   0.812260 0.497320 0.541842 -0.122568
C25   C     C_R   0.187774 0.498477 0.458904 -0.071313
C26   C     C_R   0.024177 0.491399 0.312798 -0.179400
C27   C     C_R   0.131580 0.493816 0.325188 -0.185719
C28   C     C_R   0.135867 0.500972 0.580216 -0.230613
Cu1   Cu    Cu3+1 0.499990 0.499980 0.640670 0.941222
Cu2   Cu    Cu3+1 0.500010 0.500020 0.359330 0.940524
H1    H     H_    0.822480 0.487912 0.317446 0.158176
H2    H     H_    0.622185 0.896734 0.752458 0.197917
H3    H     H_    0.498648 0.115953 0.842125 0.197719
H4    H     H_    0.619817 0.117312 0.751275 0.199399
H5    H     H_    0.348317 0.428060 0.107103 0.138181
H6    H     H_    0.348258 0.427853 0.848269 0.142940
H7    H     H_    0.726967 0.631819 0.910076 0.195513
H8    H     H_    0.603448 0.720312 0.890486 0.214241
H9    H     H_    0.725422 0.634041 0.159857 0.193396
H10   H     H_    0.601750 0.723343 0.140908 0.211796
H11   H     H_    0.827781 0.505257 0.769761 0.163014
H12   H     H_    0.981799 0.487937 0.208726 0.141070
H13   H     H_    0.170499 0.491842 0.230334 0.152436
H14   H     H_    0.179382 0.504484 0.683451 0.191533
H15   H     H_    0.479399 0.110397 0.268365 0.165658
H16   H     H_    0.480254 0.885795 0.269474 0.163405
H17   H     H_    0.500994 0.896083 0.844540 0.198673
N1    N     N_R   0.500660 0.500930 0.148010 -0.186717
N2    N     N_R   0.500660 0.500890 0.852110 -0.185446
O1    O     O_R   0.500000 0.319640 0.618810 -0.580655
O2    O     O_R   0.500010 0.319680 0.381230 -0.585877
O3    O     O_R   0.348990 0.499960 0.599490 -0.594676
O4    O     O_R   0.349000 0.500000 0.361910 -0.591268
O5    O     O_R   0.499990 0.680320 0.618770 -0.574872
O6    O     O_R   0.500000 0.680360 0.381190 -0.583821
O7    O     O_R   0.651000 0.500000 0.638090 -0.588913
O8    O     O_R   0.651010 0.500040 0.400510 -0.585554
O9    O     O_3   0.029658 0.509404 0.823501 -0.585840
C29   C     C_3   0.028859 0.393317 0.889041 -0.376038
H18   H     H_    0.061072 0.320132 0.823872 0.162848
H19   H     H_    0.949664 0.367722 0.912803 0.166730
H20   H     H_    0.078777 0.398715 0.990604 0.186648

loop_
_geom_bond_atom_site_label_1
_geom_bond_atom_site_label_2
_ccdc_geom_bond_type
C10   H16   S    
C23   C24   S    
C5    H11   S    
C15   H4    S    
C9    H15   S    
C14   H17   S    
Cu1   O7    S    
C25   C27   A    
C1    C8    S    
C20   H8    S    
C9    C10   A    
C19   N2    A    
C11   C22   S    
C12   O4    A    
C21   H9    S    
C17   N1    A    
C12   C25   S    
Cu2   O2    S    
Cu1   O5    S    
C16   N1    A    
C7    C15   S    
C17   C18   A    
C22   O6    A    
C29   H18   S    
C22   O5    A    
Cu1   N2    S    
C13   C14   S    
C25   C28   A    
C20   H7    S    
C11   C13   A    
C23   O7    A    
C26   C27   A    
C2    C6    A    
C5    C24   A    
C16   C19   A    
Cu2   N1    S    
C12   O3    A    
C28   H14   S    
C2    C3    A    
C16   C21   S    
Cu1   O1    S    
C5    C6    A    
C4    C24   A    
Cu2   O4    S    
C29   H19   S    
C4    H1    S    
C7    C8    A    
C10   C11   A    
Cu1   Cu2   S    
C3    C4    A    
Cu2   O8    S    
C27   H13   S    
C7    C13   A    
C20   C21   S    
C26   H12   S    
C1    O1    A    
C23   O8    A    
C6    O9    S    
C14   C15   S    
C29   H20   S    
C2    C28   A    
C1    O2    A    
C17   H5    S    
O9    C29   S    
C18   H6    S    
Cu2   O6    S    
C15   H3    S    
C3    C26   A    
C19   C20   S    
C18   N2    A    
C14   H2    S    
C8    C9    A    
Cu1   O3    S    
C21   H10   S    
