data_mof_unit_3195.cif
_audit_creation_date              2013-03-05T16:43:04-0500
_audit_creation_method            fapswitch 2.2
_symmetry_space_group_name_H-M    P1
_symmetry_Int_Tables_number       1
_space_group_crystal_system       triclinic
_cell_length_a                    10.713108
_cell_length_b                    10.689449
_cell_length_c                    9.885352
_cell_angle_alpha                 89.665097
_cell_angle_beta                  89.314195
_cell_angle_gamma                 91.39159
_cell_volume                      1131.60677987

loop_
_atom_site_label
_atom_site_type_symbol
_atom_site_description
_atom_site_fract_x
_atom_site_fract_y
_atom_site_fract_z
_atom_type_partial_charge
O1    O     O_R   0.500020 0.316790 0.614690 -0.601833
O2    O     O_R   0.500000 0.316760 0.385350 -0.628874
C1    C     C_R   0.504305 0.260087 0.499604 0.946045
O3    O     O_R   0.314800 0.500000 0.614670 -0.642010
O4    O     O_R   0.314790 0.499960 0.385330 -0.622918
C2    C     C_R   0.258063 0.500384 0.500219 0.973486
Zn1   Zn    Zn3+2 0.500010 0.500020 0.653130 1.030979
Zn2   Zn    Zn3+2 0.499990 0.499980 0.346870 1.023133
O5    O     O_R   0.500000 0.683240 0.614650 -0.627456
O6    O     O_R   0.499980 0.683210 0.385310 -0.619993
O7    O     O_R   0.685210 0.500040 0.614670 -0.589390
O8    O     O_R   0.685200 0.500000 0.385330 -0.600458
C3    C     C_R   0.503981 0.740247 0.499517 0.973787
C4    C     C_R   0.742220 0.502171 0.499119 0.957658
C5    C     C_3   0.068457 0.377740 0.562523 0.042553
C6    C     C_3   0.923601 0.377800 0.558578 -0.034629
H1    H     H_    0.890777 0.303191 0.488259 0.178516
C7    C     C_3   0.076346 0.613468 0.588332 0.040634
C8    C     C_3   0.075250 0.515722 0.352004 -0.396451
C9    C     C_3   0.122058 0.502143 0.499546 -0.254201
H2    H     H_    0.115321 0.601417 0.303111 0.253833
C10   C     C_3   0.878747 0.506600 0.498184 -0.301316
C11   C     C_3   0.931042 0.617762 0.587567 0.093232
C12   C     C_3   0.933382 0.512432 0.348903 0.141872
H3    H     H_    0.905300 0.422342 0.299915 0.158173
C13   C     C_R   0.552500 0.065147 0.613906 0.102523
C14   C     C_R   0.525975 0.129341 0.495870 -0.103840
C15   C     C_R   0.524810 0.065714 0.372130 -0.125995
C16   C     C_R   0.524565 0.936530 0.372624 -0.078022
C17   C     C_R   0.526573 0.872144 0.496729 -0.108369
C18   C     C_R   0.556149 0.937143 0.614738 0.136211
C19   C     C_3   0.498843 0.929850 0.754177 0.091129
C20   C     C_3   0.490004 0.070975 0.748524 -0.382461
H4    H     H_    0.407642 0.878366 0.759866 0.183765
H5    H     H_    0.392529 0.101997 0.738080 0.251351
C21   C     C_R   0.429979 0.414238 0.073668 0.190149
N1    N     N_R   0.499150 0.499140 0.142800 -0.140300
C22   C     C_R   0.572002 0.582772 0.070111 0.011687
C23   C     C_R   0.573885 0.581160 0.926436 -0.014986
H6    H     H_    0.633303 0.646619 0.870841 0.203721
N2    N     N_R   0.499150 0.499180 0.857150 -0.152775
C24   C     C_R   0.433439 0.409410 0.931029 0.134642
C25   C     C_3   0.294154 0.384388 0.930724 0.068818
C26   C     C_3   0.292067 0.403427 0.082389 -0.486245
H7    H     H_    0.249825 0.493559 0.111155 0.187152
H8    H     H_    0.098418 0.376706 0.669386 0.190068
N3    N     N_R   0.888453 0.612621 0.260643 0.254070
O9    O     O_R   0.927641 0.727816 0.274928 -0.240043
O10   O     O_R   0.841144 0.580950 0.144920 -0.376579
N4    N     N_R   0.139695 0.733457 0.553333 0.252023
O11   O     O_R   0.207850 0.790005 0.643390 -0.370627
O12   O     O_R   0.126945 0.786569 0.435839 -0.283422
N5    N     N_R   0.883748 0.743029 0.556282 0.278716
O13   O     O_R   0.784196 0.756461 0.484372 -0.373979
O14   O     O_R   0.919191 0.836770 0.631264 -0.219502
H9    H     H_    0.513429 0.114050 0.276585 0.203485
H10   H     H_    0.512592 0.888195 0.277479 0.210638
N6    N     N_R   0.586267 0.891124 0.858119 0.220461
O15   O     O_R   0.703940 0.876194 0.829659 -0.293936
O16   O     O_R   0.548838 0.885626 0.983692 -0.390262
H11   H     H_    0.547798 0.122338 0.823783 0.259422
H12   H     H_    0.625948 0.653353 0.122914 0.216724
N7    N     N_R   0.118965 0.265772 0.497255 0.235204
O17   O     O_R   0.199099 0.198314 0.561021 -0.329273
O18   O     O_R   0.082005 0.229770 0.378395 -0.357249
H13   H     H_    0.240098 0.453930 0.873006 0.137416
N8    N     N_R   0.260966 0.253851 0.900016 0.232048
O19   O     O_R   0.317321 0.163764 0.962035 -0.370223
O20   O     O_R   0.154261 0.228357 0.844191 -0.277182
H14   H     H_    0.259422 0.321286 0.143864 0.264489
N9    N     N_R   0.869174 0.345272 0.692318 0.248154
O21   O     O_R   0.905041 0.402306 0.801699 -0.360278
O22   O     O_R   0.792114 0.249695 0.703739 -0.322256
H15   H     H_    0.102112 0.591908 0.694896 0.126964
H16   H     H_    0.898790 0.599630 0.692985 0.164601
H17   H     H_    0.109278 0.438549 0.288213 0.207803

loop_
_geom_bond_atom_site_label_1
_geom_bond_atom_site_label_2
_geom_bond_distance
_ccdc_geom_bond_type
N7    O18   1.301720 A    
N2    C24   1.377112 A    
C21   C24   1.411364 A    
C8    C9    1.555101 S    
C19   N6    1.463279 S    
C15   H9    1.083521 S    
N3    O10   1.300079 A    
N5    O13   1.299136 A    
Zn1   O7    2.015685 S    
C15   C16   1.380824 A    
C13   C14   1.386051 A    
C16   C17   1.403824 A    
C8    H17   1.107358 S    
C8    H2    1.108044 S    
C17   C18   1.397010 A    
O7    C4    1.288647 A    
N6    O16   1.300482 A    
C5    C6    1.552833 S    
O5    C3    1.287624 A    
C18   C19   1.503051 S    
C6    H1    1.114288 S    
N4    O12   1.299943 A    
C26   H14   1.111897 S    
C13   C18   1.369777 A    
C7    H15   1.116338 S    
C6    N9    1.474813 S    
O3    Zn1   2.024731 S    
C11   N5    1.475549 S    
N5    O14   1.301772 A    
C5    C9    1.558960 S    
N8    O19   1.303025 A    
C3    C17   1.424775 S    
C22   C23   1.420392 A    
C12   H3    1.116812 S    
O3    C2    1.290758 A    
C23   H6    1.078114 S    
N9    O22   1.301360 A    
N6    O15   1.302165 A    
C7    C11   1.558564 S    
N8    O20   1.298969 A    
C19   H4    1.110341 S    
C25   C26   1.514170 S    
N1    C22   1.367415 A    
C13   C20   1.484826 S    
N3    O9    1.300311 A    
Zn2   O8    2.024729 S    
N4    O11   1.300556 A    
C25   N8    1.465971 S    
C16   H10   1.083222 S    
C10   C12   1.581338 S    
C21   C26   1.480623 S    
Zn2   N1    2.017503 S    
C26   H7    1.111406 S    
C7    N4    1.473869 S    
Zn1   O5    1.992937 S    
C21   N1    1.351490 A    
C6    C10   1.585018 S    
O1    Zn1   1.997330 S    
C12   N3    1.471071 S    
Zn2   O6    1.997330 S    
O2    Zn2   1.992937 S    
C11   H16   1.108456 S    
O6    C3    1.286889 A    
O4    Zn2   2.015687 S    
C2    C9    1.457707 S    
C19   C20   1.514558 S    
C4    C10   1.462163 S    
C1    C14   1.422931 S    
O2    C1    1.280375 A    
O8    C4    1.286486 A    
N9    O21   1.301826 A    
O4    C2    1.281745 A    
C25   H13   1.112368 S    
C20   H5    1.109098 S    
C8    C12   1.520083 S    
C7    C9    1.567316 S    
Zn1   N2    2.016687 S    
N7    O17   1.300768 A    
C23   N2    1.365339 A    
C20   H11   1.112462 S    
C24   C25   1.509595 S    
C14   C15   1.403093 A    
C5    N7    1.474345 S    
C10   C11   1.580613 S    
C5    H8    1.107811 S    
O1    C1    1.293034 A    
C22   H12   1.079973 S    
