data_mof_unit_47.cif
_audit_creation_date              2012-12-10T19:03:04-0500
_audit_creation_method            fapswitch 2.2
_symmetry_space_group_name_H-M    P1
_symmetry_Int_Tables_number       1
_space_group_crystal_system       triclinic
_cell_length_a                    10.766975
_cell_length_b                    10.817971
_cell_length_c                    9.665046
_cell_angle_alpha                 89.883236
_cell_angle_beta                  90.378659
_cell_angle_gamma                 93.320455
_cell_volume                      1123.8378542

loop_
_atom_site_label
_atom_site_type_symbol
_atom_type_description
_atom_site_fract_x
_atom_site_fract_y
_atom_site_fract_z
_atom_type_partial_charge
C1    C     C_R   0.492548 0.262674 0.500237 0.832025
C2    C     C_3   0.878091 0.496346 0.500373 0.052876
C3    C     C_3   0.936733 0.625763 0.546972 -0.246193
C4    C     C_3   0.927072 0.469400 0.352917 -0.327258
C5    C     C_R   0.487428 0.064406 0.625942 0.113923
C6    C     C_R   0.472745 0.129037 0.502587 -0.058447
C7    C     C_R   0.436280 0.061635 0.383224 -0.178347
C8    C     C_R   0.435937 0.932048 0.384652 -0.095139
C9    C     C_R   0.479838 0.870190 0.501705 -0.054807
C10   C     C_R   0.497870 0.938345 0.623314 0.069520
C11   C     C_3   0.599540 0.945022 0.729852 -0.211342
C12   C     C_R   0.260191 0.497272 0.499844 0.724896
C13   C     C_3   0.582159 0.083324 0.738546 -0.386310
C14   C     C_R   0.601467 0.542690 0.070618 0.142995
C15   C     C_R   0.409044 0.434406 0.073582 0.073671
C16   C     C_R   0.413776 0.427760 0.924314 0.063655
C17   C     C_R   0.603530 0.535793 0.927594 0.161583
C18   C     C_3   0.698342 0.638215 0.910759 -0.518271
C19   C     C_3   0.696006 0.651851 0.069252 0.288600
C20   C     C_R   0.496016 0.737391 0.500139 0.798023
C21   C     C_R   0.739541 0.497597 0.500258 0.786510
C22   C     C_3   0.067769 0.397024 0.603083 -0.447823
C23   C     C_3   0.923651 0.395841 0.603760 -0.145068
C24   C     C_3   0.081321 0.624608 0.545743 -0.318178
C25   C     C_3   0.068651 0.465107 0.354834 -0.334881
C26   C     C_3   0.122181 0.496116 0.500631 0.082961
Cu1   Cu    Cu3+1 0.499990 0.499980 0.640670 0.937492
Cu2   Cu    Cu3+1 0.500010 0.500020 0.359330 0.994594
H1    H     H_    0.102776 0.417557 0.709663 0.181695
H2    H     H_    0.901473 0.543060 0.280054 0.168368
H3    H     H_    0.125360 0.696207 0.476297 0.199000
H4    H     H_    0.412930 0.108414 0.288218 0.159356
H5    H     H_    0.406763 0.881205 0.293203 0.201654
H6    H     H_    0.571202 0.894615 0.825053 0.188531
H7    H     H_    0.539558 0.110390 0.837527 0.214030
H8    H     H_    0.663590 0.144365 0.707475 0.217449
H9    H     H_    0.101142 0.304920 0.574482 0.155222
H10   H     H_    0.787519 0.605117 0.872214 0.151441
H11   H     H_    0.660357 0.713688 0.849813 0.216073
H12   H     H_    0.786010 0.631788 0.117883 0.072645
H13   H     H_    0.894901 0.421826 0.709793 0.120790
H14   H     H_    0.117703 0.646397 0.651562 0.164080
H15   H     H_    0.908193 0.642401 0.655493 0.109459
H16   H     H_    0.108392 0.531756 0.276674 0.214711
H17   H     H_    0.093397 0.370322 0.325774 0.205213
H18   H     H_    0.884866 0.381166 0.310727 0.228854
N1    N     N_R   0.500800 0.500930 0.147930 -0.222368
N2    N     N_R   0.500800 0.500890 0.852020 -0.215744
O1    O     O_R   0.500000 0.319640 0.618810 -0.606395
O2    O     O_R   0.500010 0.319680 0.381230 -0.594944
O3    O     O_R   0.317690 0.499960 0.618790 -0.613059
O4    O     O_R   0.317700 0.500000 0.381210 -0.611240
O5    O     O_R   0.499990 0.680320 0.618770 -0.593451
O6    O     O_R   0.500000 0.680360 0.381190 -0.508631
O7    O     O_R   0.682300 0.500000 0.618790 -0.595994
O8    O     O_R   0.682310 0.500040 0.381210 -0.580484
C27   C     C_2   0.886762 0.730336 0.462121 0.434193
H19   H     H_    0.788366 0.745071 0.467029 0.109435
O9    O     O_2   0.952893 0.797459 0.388057 -0.481683
C28   C     C_2   0.725951 0.917574 0.675136 0.381915
H20   H     H_    0.785418 0.858919 0.733632 0.070965
O10   O     O_2   0.764293 0.963882 0.567053 -0.476986
C29   C     C_2   0.304944 0.366532 0.145061 0.448202
H21   H     H_    0.319261 0.316862 0.240029 0.087616
O11   O     O_2   0.200223 0.363510 0.095335 -0.577397
C30   C     C_2   0.343479 0.323026 0.853350 0.420845
H22   H     H_    0.304638 0.330443 0.751799 0.108973
O12   O     O_2   0.331941 0.221300 0.908379 -0.574452
S1    S     S_3+6 0.644423 0.800832 0.113074 0.014199
O13   O     O_2   0.668774 0.827486 0.263085 -0.246963
O14   O     O_2   0.717434 0.897375 0.030203 -0.312927
O15   O     O_3   0.492066 0.805640 0.075376 -0.559159
H23   H     H_    0.478792 0.894061 0.057102 0.357242
C31   C     C_2   0.868884 0.265055 0.581057 0.370656
H24   H     H_    0.894823 0.192638 0.651648 0.109841
O16   O     O_2   0.796123 0.238578 0.486884 -0.512030

loop_
_geom_bond_atom_site_label_1
_geom_bond_atom_site_label_2
_ccdc_geom_bond_type
Cu1   N2    S    
C30   O12   D    
C29   O11   D    
Cu2   N1    S    
C22   H1    S    
C24   H14   S    
C17   N2    A    
C15   N1    A    
C16   N2    A    
C4    C25   S    
Cu2   O8    S    
C7    C8    A    
C4    H18   S    
C3    H15   S    
C31   O16   D    
C24   C26   S    
C13   H7    S    
C5    C6    A    
Cu1   O7    S    
C27   O9    D    
C15   C16   A    
C11   C13   S    
C28   O10   D    
C18   C19   S    
S1    O14   D    
Cu2   O2    S    
C8    C9    A    
C1    O2    A    
C5    C13   S    
C30   H22   S    
C14   C17   A    
C3    C24   S    
C25   H16   S    
C12   O4    A    
Cu1   O3    S    
C31   H24   S    
C1    C6    S    
C13   H8    S    
C20   O6    A    
C19   H12   S    
C21   O7    A    
Cu2   O6    S    
C20   O5    A    
C25   C26   S    
C22   H9    S    
C12   C26   S    
C28   H20   S    
S1    O15   S    
C2    C4    S    
C18   H11   S    
C9    C20   S    
C2    C21   S    
C17   C18   S    
C6    C7    A    
C3    C27   S    
C19   S1    S    
C16   C30   S    
C23   C31   S    
C11   C28   S    
C25   H17   S    
C2    C23   S    
C12   O3    A    
C9    C10   A    
C7    H4    S    
C14   C19   S    
C11   H6    S    
O15   H23   S    
C21   O8    A    
Cu1   O5    S    
C14   N1    A    
C23   H13   S    
C2    C3    S    
C18   H10   S    
C24   H3    S    
C5    C10   A    
Cu2   O4    S    
C27   H19   S    
C8    H5    S    
S1    O13   D    
C10   C11   S    
C29   H21   S    
C22   C26   S    
Cu1   Cu2   S    
C15   C29   S    
C22   C23   S    
C1    O1    A    
C4    H2    S    
Cu1   O1    S    
