data_mof_unit_1394.cif
_audit_creation_date              2012-12-10T17:17:32-0500
_audit_creation_method            fapswitch 2.2
_symmetry_space_group_name_H-M    P1
_symmetry_Int_Tables_number       1
_space_group_crystal_system       triclinic
_cell_length_a                    10.246716
_cell_length_b                    10.78711
_cell_length_c                    12.223409
_cell_angle_alpha                 90.611807
_cell_angle_beta                  108.969239
_cell_angle_gamma                 95.793464
_cell_volume                      1269.82538852

loop_
_atom_site_label
_atom_site_type_symbol
_atom_type_description
_atom_site_fract_x
_atom_site_fract_y
_atom_site_fract_z
_atom_type_partial_charge
C1    C     C_R   0.054062 0.732653 0.496310 0.930195
C2    C     C_R   0.202918 0.504725 0.838989 -0.120510
C3    C     C_2   0.091929 0.865729 0.504306 -0.369295
C4    C     C_R   0.132238 0.505485 0.714324 0.835120
C5    C     C_2   0.027007 0.936088 0.555400 -0.052385
C6    C     C_2   0.930619 0.135830 0.535090 0.253532
C7    C     C_2   0.036766 0.068711 0.542620 -0.307806
C8    C     C_2   0.432122 0.509954 0.508819 0.004397
C9    C     C_2   0.568002 0.489669 0.490912 0.013984
C10   C     C_R   0.950417 0.267294 0.511788 0.798339
C11   C     C_R   0.866219 0.488193 0.285666 0.885235
C12   C     C_R   0.421342 0.490150 0.992143 0.098192
C13   C     C_R   0.737824 0.344893 0.983179 0.158941
C14   C     C_R   0.789122 0.466768 0.163018 -0.095847
C15   C     C_R   0.156855 0.574389 0.913845 -0.201524
C16   C     C_R   0.239438 0.597966 0.028458 -0.111389
C17   C     C_R   0.372015 0.559964 0.066889 -0.100986
C18   C     C_3   0.790463 0.264707 0.907190 -0.463664
C19   C     C_3   0.808686 0.336178 0.804956 -0.669015
C20   C     C_R   0.328381 0.450187 0.882014 0.095886
C21   C     C_R   0.559420 0.458673 0.022838 0.066914
C22   C     C_R   0.598549 0.375329 0.950472 0.168627
C23   C     C_R   0.496599 0.322497 0.849786 -0.203753
C24   C     C_R   0.363670 0.358289 0.816888 -0.177295
C25   C     C_R   0.659995 0.509720 0.123640 -0.222183
C26   C     C_R   0.830755 0.388773 0.091778 -0.210732
H1    H     H_    0.933862 0.359128 0.122299 0.194872
H2    H     H_    0.203264 0.650983 0.086477 0.158845
H3    H     H_    0.288156 0.312217 0.739843 0.161540
H4    H     H_    0.131670 0.110331 0.529854 0.204144
H5    H     H_    0.603019 0.149732 0.587721 0.387701
H6    H     H_    0.866055 0.779474 0.779691 0.375944
H7    H     H_    0.135121 0.200800 0.238865 0.361727
H8    H     H_    0.706906 0.354702 0.743286 0.265127
H9    H     H_    0.873858 0.426271 0.836163 0.263840
H10   H     H_    0.861166 0.280590 0.758288 0.259044
H11   H     H_    0.893224 0.235449 0.957538 0.219717
H12   H     H_    0.956288 0.894046 0.597299 0.268624
H13   H     H_    0.720244 0.177072 0.876444 0.226687
H14   H     H_    0.165857 0.906090 0.464239 0.186679
H15   H     H_    0.569679 0.418819 0.428411 0.206856
H16   H     H_    0.429848 0.582333 0.569676 0.190754
H17   H     H_    0.517711 0.253644 0.794758 0.158059
H18   H     H_    0.638864 0.580211 0.176762 0.157436
H19   H     H_    0.059416 0.614380 0.882946 0.193177
H20   H     H_    0.431492 0.583972 0.156249 0.156870
N1    N     N_2   0.313640 0.446500 0.454900 0.050560
N2    N     N_2   0.686360 0.553430 0.545150 0.049394
O1    O     O_R   0.936910 0.692950 0.509080 -0.549431
O2    O     O_2   0.806898 0.022590 0.674987 -0.329568
O3    O     O_3   0.660706 0.177529 0.539478 -0.517613
O4    O     O_2   0.613693 0.765770 0.605481 -0.237812
O5    O     O_2   0.650043 0.601019 0.745886 -0.352231
O6    O     O_3   0.866236 0.722522 0.715650 -0.530171
O7    O     O_2   0.351578 0.377889 0.259365 -0.342825
O8    O     O_2   0.385124 0.226800 0.412161 -0.286430
O9    O     O_3   0.133937 0.266936 0.295263 -0.525667
O10   O     O_R   0.138320 0.658600 0.480130 -0.620298
O11   O     O_R   0.002900 0.525670 0.675280 -0.575245
O12   O     O_R   0.204310 0.491320 0.646330 -0.628754
O13   O     O_R   0.861680 0.341400 0.519870 -0.569918
O14   O     O_R   0.063090 0.307050 0.490920 -0.587241
O15   O     O_R   0.795690 0.508680 0.353670 -0.627033
O16   O     O_R   0.997100 0.474330 0.324720 -0.561862
O17   O     O_2   0.707692 0.964710 0.467726 -0.224202
S1    S     S_3+6 0.773572 0.070923 0.555133 0.042580
S2    S     S_3+6 0.700066 0.662240 0.654633 0.107864
S3    S     S_3+6 0.300298 0.327874 0.354040 0.092788
Zn1   Zn    Zn3+2 0.865520 0.522940 0.519330 1.072833
Zn2   Zn    Zn3+2 0.134480 0.477060 0.480670 1.049664

loop_
_geom_bond_atom_site_label_1
_geom_bond_atom_site_label_2
_ccdc_geom_bond_type
C12   C17   A    
C6    C10   S    
C2    C4    S    
C18   H13   S    
N1    Zn2   S    
C16   H2    S    
C6    C7    D    
O16   Zn2   S    
C4    O11   A    
C9    H15   S    
O12   Zn2   S    
N2    Zn1   S    
C23   C24   A    
C12   C20   A    
O7    S3    D    
C8    N1    D    
H7    O9    S    
C14   C25   A    
C7    H4    S    
O1    Zn1   S    
C21   C22   A    
C14   C26   A    
C2    C15   A    
O2    S1    D    
C4    O12   A    
C26   H1    S    
C10   O14   A    
O4    S2    D    
C1    O10   A    
C13   C18   S    
O11   Zn1   S    
C25   H18   S    
H6    O6    S    
C18   H11   S    
C8    H16   S    
C13   C22   A    
C5    H12   S    
C11   O15   A    
C19   H10   S    
O17   S1    D    
N2    S2    S    
O5    S2    D    
C11   C14   S    
C13   C26   A    
C10   O13   A    
C16   C17   A    
C15   H19   S    
O9    S3    S    
C2    C20   A    
C15   C16   A    
C20   C24   A    
N1    S3    S    
C6    S1    S    
C23   H17   S    
C17   H20   S    
O14   Zn2   S    
C9    N2    D    
C11   O16   A    
O13   Zn1   S    
C5    C7    S    
C21   C25   A    
C24   H3    S    
C18   C19   S    
C19   H9    S    
O6    S2    S    
C3    C5    D    
C3    H14   S    
O8    S3    D    
C1    O1    A    
C12   C21   A    
O3    S1    S    
C22   C23   A    
O10   Zn2   S    
O15   Zn1   S    
H5    O3    S    
C8    C9    S    
C1    C3    S    
C19   H8    S    
