data_mof_unit_3974.cif
_audit_creation_date              2012-12-11T15:12:45-0500
_audit_creation_method            fapswitch 2.2
_symmetry_space_group_name_H-M    P1
_symmetry_Int_Tables_number       1
_space_group_crystal_system       triclinic
_cell_length_a                    22.255411
_cell_length_b                    7.050485
_cell_length_c                    19.513881
_cell_angle_alpha                 90.006915
_cell_angle_beta                  99.226812
_cell_angle_gamma                 90.001699
_cell_volume                      3022.33362235

loop_
_atom_site_label
_atom_site_type_symbol
_atom_type_description
_atom_site_fract_x
_atom_site_fract_y
_atom_site_fract_z
_atom_type_partial_charge
O1    O     O_R   0.448420 0.506120 0.415750 -0.533245
O2    O     O_R   0.551580 0.006120 0.584250 -0.533239
O3    O     O_R   0.436490 0.174470 0.555610 -0.525062
O4    O     O_R   0.563510 0.674470 0.444390 -0.525074
C1    C     C_R   0.420814 0.345329 0.574813 0.702808
C2    C     C_R   0.579185 0.845321 0.425187 0.702790
O5    O     O_R   0.441310 0.176330 0.414520 -0.540284
O6    O     O_R   0.558690 0.676330 0.585480 -0.540253
O7    O     O_R   0.556430 0.007110 0.442150 -0.534829
O8    O     O_R   0.443570 0.507110 0.557850 -0.534840
C3    C     C_R   0.427233 0.344455 0.388715 0.692195
C4    C     C_R   0.572765 0.844483 0.611285 0.692228
O9    O     O_3   0.537770 0.339560 0.509230 -0.369667
O10   O     O_3   0.462230 0.839560 0.490770 -0.369686
V1    V     V_3+5 0.492990 0.064280 0.498290 1.491467
V2    V     V_3+5 0.507010 0.564280 0.501710 1.491469
C5    C     C_R   0.868197 0.937834 0.697724 -0.117612
C6    C     C_R   0.131838 0.438891 0.302269 -0.117658
H1    H     H_    0.955436 0.928314 0.762312 0.161862
H2    H     H_    0.044581 0.429483 0.237714 0.161770
H3    H     H_    0.888086 0.942086 0.650554 0.155586
H4    H     H_    0.111963 0.443670 0.349443 0.155529
C7    C     C_R   0.882870 0.941263 0.823402 -0.153991
C8    C     C_R   0.117139 0.441379 0.176588 -0.154079
C9    C     C_R   0.591192 0.779622 0.736362 -0.147472
C10   C     C_R   0.408759 0.278906 0.263684 -0.147393
C11   C     C_R   0.629752 0.745006 0.798473 -0.078027
C12   C     C_R   0.370172 0.243972 0.201616 -0.078053
C13   C     C_R   0.691665 0.784540 0.804666 -0.023398
C14   C     C_R   0.308275 0.283729 0.195413 -0.023485
C15   C     C_R   0.716147 0.870603 0.750002 0.094936
C16   C     C_R   0.283842 0.370359 0.250008 0.094959
C17   C     C_R   0.677668 0.886971 0.684169 0.061374
C18   C     C_R   0.322342 0.387082 0.315816 0.061355
C19   C     C_R   0.779381 0.918694 0.756617 -0.038253
C20   C     C_R   0.220626 0.418706 0.243366 -0.038280
C21   C     C_R   0.804909 0.933203 0.694674 0.080575
C22   C     C_R   0.195121 0.433879 0.305305 0.080590
C23   C     C_R   0.767062 0.942268 0.630071 -0.152792
C24   C     C_R   0.232986 0.443255 0.369892 -0.152862
C25   C     C_R   0.704109 0.928724 0.625220 -0.180139
C26   C     C_R   0.295932 0.429423 0.374738 -0.180250
C27   C     C_R   0.818805 0.951627 0.821353 0.358711
C28   C     C_R   0.181205 0.451327 0.178608 0.358623
C29   C     C_R   0.906624 0.931388 0.761393 -0.201278
C30   C     C_R   0.093394 0.432198 0.238615 -0.201339
C31   C     C_R   0.614359 0.847017 0.678359 -0.096623
C32   C     C_R   0.385636 0.346867 0.321642 -0.096636
H5    H     H_    0.543384 0.743902 0.732364 0.145183
H6    H     H_    0.456551 0.242965 0.267697 0.145126
H7    H     H_    0.720393 0.741992 0.852045 0.191720
H8    H     H_    0.279518 0.240900 0.148087 0.191716
H9    H     H_    0.611781 0.682751 0.841688 0.165446
H10   H     H_    0.388106 0.181279 0.158450 0.165442
C33   C     C_3   0.788443 0.704781 0.237195 -0.415322
C34   C     C_3   0.211548 0.204772 0.762777 -0.415269
C35   C     C_3   0.809281 0.045687 0.272227 0.361640
C36   C     C_3   0.190703 0.545668 0.727758 0.361646
C37   C     C_3   0.762534 0.027062 0.324144 -0.427788
C38   C     C_3   0.237451 0.527030 0.675843 -0.427826
H11   H     H_    0.767136 0.656718 0.340622 0.087899
H12   H     H_    0.232857 0.156698 0.659347 0.087880
H13   H     H_    0.833769 0.656536 0.263387 0.225431
H14   H     H_    0.166225 0.156485 0.736582 0.225451
H15   H     H_    0.808834 0.191844 0.251918 0.169896
H16   H     H_    0.191155 0.691837 0.748073 0.169928
H17   H     H_    0.785245 0.973901 0.375507 0.194480
H18   H     H_    0.214742 0.473825 0.624480 0.194445
H19   H     H_    0.744811 0.167247 0.335826 0.218811
H20   H     H_    0.255169 0.667215 0.664160 0.218833
C39   C     C_1   0.625901 0.859853 0.381364 -0.109128
C40   C     C_1   0.374097 0.359876 0.618633 -0.109097
C41   C     C_3   0.791926 0.908747 0.208300 -0.118375
C42   C     C_3   0.208054 0.408750 0.791678 -0.118332
C43   C     C_3   0.740911 0.694694 0.288981 0.294881
C44   C     C_3   0.259082 0.194691 0.710991 0.294854
C45   C     C_3   0.710076 0.889488 0.295759 -0.015177
C46   C     C_3   0.289913 0.389498 0.704229 -0.015125
C47   C     C_3   0.679695 0.960315 0.222834 -0.288915
C48   C     C_3   0.320286 0.460355 0.777163 -0.288898
C49   C     C_3   0.725252 0.949581 0.169868 0.283481
C50   C     C_3   0.274721 0.449650 0.830119 0.283375
C51   C     C_1   0.664268 0.876392 0.343847 0.071909
C52   C     C_1   0.335726 0.376413 0.656148 0.071974
C53   C     C_1   0.837175 0.921174 0.159143 0.164174
C54   C     C_1   0.162805 0.421163 0.840834 0.164264
C55   C     C_1   0.874744 0.935917 0.120311 -0.021048
C56   C     C_1   0.125242 0.435898 0.879673 -0.021190
H21   H     H_    0.710939 0.823273 0.136954 0.150900
H22   H     H_    0.289033 0.323387 0.863044 0.150904
H23   H     H_    0.638312 0.879656 0.202213 0.197796
H24   H     H_    0.361662 0.379691 0.797790 0.197781
H25   H     H_    0.776598 0.606470 0.192667 0.240344
H26   H     H_    0.223398 0.106494 0.807303 0.240405
O11   O     O_R   0.056480 0.288780 0.942210 -0.543707
O12   O     O_R   0.943520 0.788780 0.057790 -0.543804
O13   O     O_R   0.058700 0.616820 0.085490 -0.513993
O14   O     O_R   0.941300 0.116820 0.914510 -0.513937
C57   C     C_R   0.073567 0.448683 0.110853 0.787162
C58   C     C_R   0.926433 0.948660 0.889145 0.786999
O15   O     O_R   0.063520 0.618570 0.944410 -0.532888
O16   O     O_R   0.936480 0.118570 0.055590 -0.532973
O17   O     O_R   0.948420 0.787670 0.915740 -0.543495
O18   O     O_R   0.051580 0.287670 0.084260 -0.543477
C59   C     C_R   0.079185 0.449299 0.924744 0.747281
C60   C     C_R   0.920811 0.949306 0.075252 0.747117
O19   O     O_3   0.962260 0.453430 0.990800 -0.369456
O20   O     O_3   0.037740 0.953430 0.009200 -0.369353
V3    V     V_3+5 0.007000 0.728750 0.001710 1.581761
V4    V     V_3+5 0.993000 0.228750 0.998290 1.581781
S1    S     S_3+6 0.885874 0.018652 0.319173 -0.019656
O21   O     O_2   0.931895 0.022544 0.270648 -0.345498
O22   O     O_2   0.898479 0.181503 0.369138 -0.312237
O23   O     O_3   0.892889 0.814852 0.364562 -0.511041
H27   H     H_    0.935266 0.815179 0.389642 0.385757
S2    S     S_3+6 0.114110 0.518601 0.680810 -0.019639
O24   O     O_2   0.068089 0.522525 0.729335 -0.345447
O25   O     O_2   0.101510 0.681419 0.630846 -0.312297
O26   O     O_3   0.107092 0.314768 0.635422 -0.511023
H28   H     H_    0.064741 0.315199 0.610266 0.385771
S3    S     S_3+6 0.716142 0.138981 0.106521 0.072884
O27   O     O_2   0.657856 0.245304 0.108659 -0.268269
O28   O     O_2   0.768800 0.275025 0.117887 -0.325228
O29   O     O_3   0.712238 0.040464 0.027622 -0.447138
H29   H     H_    0.683237 0.120372 0.996332 0.406120
S4    S     S_3+6 0.283804 0.639140 0.893448 0.072634
O30   O     O_2   0.342102 0.745433 0.891343 -0.268340
O31   O     O_2   0.231154 0.775192 0.882031 -0.325307
O32   O     O_3   0.287648 0.540743 0.972352 -0.447173
H30   H     H_    0.316790 0.620313 0.003613 0.406069
S5    S     S_3+6 0.686545 0.507113 0.268390 -0.009894
O33   O     O_2   0.630738 0.562011 0.218617 -0.281527
O34   O     O_2   0.719122 0.359771 0.234790 -0.343333
O35   O     O_3   0.664388 0.419248 0.340631 -0.503178
H31   H     H_    0.697816 0.448092 0.379122 0.298609
S6    S     S_3+6 0.313448 0.007126 0.731567 -0.009898
O36   O     O_2   0.369270 0.062071 0.781316 -0.281575
O37   O     O_2   0.280882 0.859810 0.765183 -0.343282
O38   O     O_3   0.335581 0.919194 0.659314 -0.503193
H32   H     H_    0.302143 0.947993 0.620834 0.298604
H33   H     H_    0.786305 0.961032 0.582889 0.133964
H34   H     H_    0.213762 0.462507 0.417065 0.133955
H35   H     H_    0.660107 0.101593 0.227643 0.267123
H36   H     H_    0.339884 0.601625 0.772366 0.267124
S7    S     S_3+6 0.790953 0.046319 0.895191 -0.010250
O39   O     O_2   0.726129 0.112079 0.876962 -0.331762
O40   O     O_2   0.795804 0.895238 0.950137 -0.342880
O41   O     O_3   0.832402 0.235063 0.927045 -0.488972
H37   H     H_    0.818836 0.263489 0.971883 0.386809
S8    S     S_3+6 0.209095 0.545253 0.104681 -0.010205
O42   O     O_2   0.273925 0.610993 0.122896 -0.331766
O43   O     O_2   0.204258 0.393691 0.049897 -0.342698
O44   O     O_3   0.167684 0.733811 0.072594 -0.489062
H38   H     H_    0.181425 0.762173 0.027848 0.387084
H39   H     H_    0.676678 0.939365 0.574262 0.102279
H40   H     H_    0.323377 0.440332 0.425680 0.102413

loop_
_geom_bond_atom_site_label_1
_geom_bond_atom_site_label_2
_ccdc_geom_bond_type
O18   V4    S    
O4    V2    S    
S4    O30   D    
C7    C29   A    
C24   H34   S    
C11   C13   A    
C8    C57   S    
S1    O21   D    
O1    C3    A    
C33   H25   S    
S5    O35   S    
O2    C4    A    
C37   C45   S    
C2    O7    A    
O23   H27   S    
C44   S6    S    
C23   C25   A    
O20   V3    S    
C34   H26   S    
C38   C46   S    
O14   V4    S    
C16   C20   A    
C19   C21   A    
C44   C46   S    
C1    C40   S    
C10   H6    S    
C54   C56   T    
C35   C37   S    
C45   C51   S    
C36   C38   S    
C7    C27   A    
S2    O24   D    
C35   C41   S    
C50   S4    S    
S3    O29   S    
C14   H8    S    
O11   C59   A    
O13   C57   A    
C36   H16   S    
C47   H35   S    
C23   H33   S    
O20   V4    S    
C18   C26   A    
C48   H36   S    
S8    O44   S    
C33   H13   S    
C34   H14   S    
O16   C60   A    
C19   C27   A    
C9    C31   A    
C47   H23   S    
C10   C32   A    
C33   C43   S    
C9    H5    S    
C24   C26   A    
C57   O18   A    
O6    V2    S    
C22   C24   A    
C11   H9    S    
C36   S2    S    
O19   V3    S    
H12   C44   S    
C3    C32   S    
C42   C50   S    
C4    C31   S    
C6    C30   A    
C41   C49   S    
S7    O40   D    
C43   S5    S    
S7    O39   D    
C39   C51   T    
C53   C55   T    
O15   C59   A    
C2    C39   S    
O38   H32   S    
C34   C42   S    
O41   H37   S    
S6    O37   D    
C47   C49   S    
C12   H10   S    
O5    V1    S    
S4    O32   S    
S5    O34   D    
C58   O17   A    
C28   S8    S    
C5    C29   A    
C49   S3    S    
S6    O38   S    
C48   H24   S    
C26   H40   S    
C27   S7    S    
O13   V3    S    
C37   H17   S    
O5    C3    A    
O10   V1    S    
C38   H20   S    
O6    C4    A    
C15   C17   A    
H11   C43   S    
C45   C47   S    
S1    O22   D    
O1    V2    S    
C5    C21   A    
C42   C54   S    
O2    V1    S    
C43   C45   S    
C41   C53   S    
S3    O27   D    
C40   C52   T    
C37   H19   S    
C48   C50   S    
C17   C25   A    
O14   C58   A    
C34   C44   S    
O9    V1    S    
C17   C31   A    
O19   V4    S    
S8    O43   D    
C20   C28   A    
O4    C2    A    
C18   C32   A    
S5    O33   D    
C46   C48   S    
S7    O41   S    
O3    V1    S    
C36   C42   S    
O32   H30   S    
C13   H7    S    
O12   C60   A    
S4    O31   D    
C6    H4    S    
C35   H15   S    
S6    O36   D    
O3    C1    A    
O11   V4    S    
O26   H28   S    
H1    C29   S    
O35   H31   S    
C9    C11   A    
O12   V3    S    
C10   C12   A    
C50   H22   S    
S2    O26   S    
O17   V3    S    
C8    C30   A    
C12   C14   A    
C6    C22   A    
C49   H21   S    
C1    O8    A    
C13   C15   A    
O8    V2    S    
C14   C16   A    
C56   C59   S    
C35   S1    S    
C55   C60   S    
C8    C28   A    
C15   C19   A    
C20   C22   A    
S2    O25   D    
C7    C58   S    
S1    O23   S    
O10   V2    S    
O7    V1    S    
C5    H3    S    
S3    O28   D    
O16   V4    S    
C33   C41   S    
C46   C52   S    
C38   H18   S    
C21   C23   A    
O9    V2    S    
S8    O42   D    
O44   H38   S    
O15   V3    S    
H2    C30   S    
C16   C18   A    
O29   H29   S    
C25   H39   S    
