data_mof_unit_2702.cif
_audit_creation_date              2012-12-10T20:27:15-0500
_audit_creation_method            fapswitch 2.2
_symmetry_space_group_name_H-M    P1
_symmetry_Int_Tables_number       1
_space_group_crystal_system       triclinic
_cell_length_a                    10.804405
_cell_length_b                    10.684525
_cell_length_c                    9.899841
_cell_angle_alpha                 89.889079
_cell_angle_beta                  103.710731
_cell_angle_gamma                 90.529247
_cell_volume                      1110.22416936

loop_
_atom_site_label
_atom_site_type_symbol
_atom_type_description
_atom_site_fract_x
_atom_site_fract_y
_atom_site_fract_z
_atom_type_partial_charge
C1    C     C_R   0.497213 0.260093 0.499573 0.881695
C2    C     C_R   0.592067 0.562724 0.093531 0.436533
C3    C     C_R   0.592460 0.560197 0.950613 -0.072180
C4    C     C_R   0.259260 0.496198 0.442108 0.934850
C5    C     C_R   0.400158 0.448943 0.903136 0.115981
C6    C     C_3   0.354622 0.316688 0.884171 -0.436650
C7    C     C_3   0.357905 0.314574 0.038419 0.216514
C8    C     C_R   0.497438 0.739792 0.499396 0.880626
C9    C     C_R   0.740682 0.496472 0.557884 0.937792
C10   C     C_2   0.122906 0.481788 0.409436 -0.353315
C11   C     C_2   0.067464 0.456714 0.512952 -0.157660
C12   C     C_R   0.481703 0.128220 0.497825 -0.107602
C13   C     C_2   0.876793 0.482339 0.590508 -0.365925
C14   C     C_2   0.931728 0.456575 0.487109 -0.128104
C15   C     C_R   0.505227 0.063488 0.623241 0.059673
C16   C     C_R   0.437357 0.064232 0.371920 -0.214530
C17   C     C_R   0.437907 0.934742 0.371582 -0.188536
C18   C     C_R   0.481824 0.871240 0.497491 -0.183993
C19   C     C_R   0.504680 0.935765 0.623058 0.207120
C20   C     C_3   0.616518 0.929070 0.745095 0.229729
C21   C     C_3   0.617519 0.071188 0.745147 -0.530808
C22   C     C_R   0.400622 0.448090 0.045582 0.123175
H1    H     H_    0.877074 0.444882 0.380328 0.210478
H2    H     H_    0.656228 0.658239 0.259217 0.382727
H3    H     H_    0.425581 0.253744 0.855769 0.171908
H4    H     H_    0.248262 0.296256 0.164966 0.344668
H5    H     H_    0.121853 0.445969 0.619845 0.190472
H6    H     H_    0.931933 0.494314 0.696946 0.163648
H7    H     H_    0.659937 0.877845 0.936880 0.344371
H8    H     H_    0.593118 0.113031 0.838072 0.222673
H9    H     H_    0.703234 0.112402 0.717666 0.174848
H10   H     H_    0.667707 0.607639 0.914867 0.174526
H11   H     H_    0.257207 0.309311 0.815457 0.218442
H12   H     H_    0.429760 0.249525 0.099476 0.102572
H13   H     H_    0.068041 0.492989 0.302866 0.174430
H14   H     H_    0.408791 0.113313 0.274166 0.165952
H15   H     H_    0.410539 0.885293 0.273415 0.186897
H16   H     H_    0.701920 0.884778 0.721356 0.089790
N1    N     N_R   0.499160 0.499140 0.142600 -0.194133
N2    N     N_R   0.499160 0.499180 0.856960 -0.143737
O1    O     O_R   0.500020 0.316790 0.614700 -0.614881
O2    O     O_3   0.235809 0.301724 0.062580 -0.734665
O3    O     O_3   0.581039 0.878795 0.861325 -0.727060
O4    O     O_R   0.500000 0.316760 0.385350 -0.641056
O5    O     O_R   0.317820 0.500020 0.571850 -0.607521
O6    O     O_R   0.317800 0.499980 0.342510 -0.612348
O7    O     O_R   0.500000 0.683240 0.614650 -0.581085
O8    O     O_R   0.499980 0.683210 0.385300 -0.644499
O9    O     O_R   0.682200 0.500020 0.657490 -0.622207
O10   O     O_R   0.682180 0.499980 0.428150 -0.612513
O11   O     O_3   0.688220 0.629470 0.179743 -0.777161
Zn1   Zn    Zn3+2 0.500010 0.500020 0.653140 0.965085
Zn2   Zn    Zn3+2 0.499990 0.499980 0.346860 0.944991

loop_
_geom_bond_atom_site_label_1
_geom_bond_atom_site_label_2
_ccdc_geom_bond_type
C14   H1    S    
C6    H11   S    
C13   H6    S    
O7    Zn1   S    
C7    C22   S    
C20   H16   S    
C21   H8    S    
O1    Zn1   S    
C19   C20   S    
C12   C15   A    
C11   H5    S    
O9    Zn1   S    
H2    O11   S    
C8    O8    A    
C2    C3    A    
C8    O7    A    
C4    O6    A    
C13   C14   D    
H7    O3    S    
C15   C19   A    
C21   H9    S    
O8    Zn2   S    
C1    C12   S    
C5    C6    S    
C22   N1    A    
O4    Zn2   S    
O6    Zn2   S    
C1    O1    A    
C7    H12   S    
N1    Zn2   S    
C3    N2    A    
C17   C18   A    
C6    C7    S    
C4    O5    A    
C3    H10   S    
C11   C14   S    
C8    C18   S    
C7    O2    S    
O10   Zn2   S    
C10   C11   D    
C5    C22   A    
C4    C10   S    
C6    H3    S    
C15   C21   S    
C20   O3    S    
C9    O9    A    
C20   C21   S    
H4    O2    S    
C18   C19   A    
C2    O11   S    
C5    N2    A    
C9    C13   S    
C17   H15   S    
C1    O4    A    
O5    Zn1   S    
C10   H13   S    
N2    Zn1   S    
C2    N1    A    
C16   H14   S    
C9    O10   A    
C12   C16   A    
C16   C17   A    
