data_mof_unit_681.cif
_audit_creation_date              2012-12-10T17:14:40-0500
_audit_creation_method            fapswitch 2.2
_symmetry_space_group_name_H-M    P1
_symmetry_Int_Tables_number       1
_space_group_crystal_system       triclinic
_cell_length_a                    10.65746
_cell_length_b                    13.065794
_cell_length_c                    11.667507
_cell_angle_alpha                 99.254729
_cell_angle_beta                  93.586524
_cell_angle_gamma                 89.879405
_cell_volume                      1600.33802637

loop_
_atom_site_label
_atom_site_type_symbol
_atom_type_description
_atom_site_fract_x
_atom_site_fract_y
_atom_site_fract_z
_atom_type_partial_charge
C1    C     C_R   0.499341 0.299513 0.479472 0.820533
C2    C     C_R   0.500658 0.700485 0.520529 0.820596
C3    C     C_R   0.545902 0.136800 0.559827 0.196690
C4    C     C_R   0.454054 0.863194 0.440198 0.196667
C5    C     C_R   0.531850 0.028561 0.550461 0.074932
C6    C     C_R   0.468160 0.971429 0.449539 0.074929
C7    C     C_R   0.381959 0.403078 0.022996 -0.329991
C8    C     C_R   0.618045 0.596917 0.977002 -0.329993
C9    C     C_R   0.393118 0.412241 0.145015 0.087806
C10   C     C_R   0.606880 0.587760 0.854985 0.087789
C11   C     C_R   0.550759 0.541730 0.156379 0.076519
C12   C     C_R   0.449248 0.458261 0.843620 0.076554
C13   C     C_R   0.542815 0.535169 0.033738 0.057244
C14   C     C_R   0.457192 0.464822 0.966260 0.057236
C15   C     C_R   0.259382 0.500687 0.500588 0.818987
C16   C     C_R   0.740618 0.499314 0.499412 0.818937
C17   C     C_3   0.046314 0.515983 0.608324 0.493689
C18   C     C_3   0.953686 0.484019 0.391678 0.493690
C19   C     C_3   0.962188 0.422923 0.555245 -0.287417
C20   C     C_3   0.037812 0.577079 0.444756 -0.287409
C21   C     C_3   0.877009 0.499221 0.499027 -0.052740
C22   C     C_3   0.122991 0.500782 0.500974 -0.052747
C23   C     C_3   0.960213 0.592660 0.554775 -0.293374
C24   C     C_3   0.039787 0.407343 0.445227 -0.293366
C25   C     C_R   0.504965 0.813096 0.530748 -0.075302
C26   C     C_R   0.495050 0.186899 0.469257 -0.075285
C27   C     C_R   0.419414 0.023758 0.360634 -0.219477
C28   C     C_R   0.580633 0.976231 0.639356 -0.219518
C29   C     C_R   0.433552 0.129912 0.370261 -0.259048
C30   C     C_R   0.566521 0.870076 0.629721 -0.259020
Cu1   Cu    Cu3+1 0.509400 0.507730 0.615930 0.964479
Cu2   Cu    Cu3+1 0.490600 0.492270 0.384070 0.964493
H1    H     H_    0.931314 0.361852 0.603293 0.149752
H2    H     H_    0.068688 0.638152 0.396712 0.149765
H3    H     H_    0.925983 0.667368 0.601222 0.147081
H4    H     H_    0.074017 0.332635 0.398779 0.147084
H5    H     H_    0.607168 0.831954 0.699039 0.163615
H6    H     H_    0.392951 0.168030 0.300926 0.163643
H7    H     H_    0.368437 0.984165 0.283273 0.153736
H8    H     H_    0.631629 0.015827 0.716708 0.153771
H9    H     H_    0.383704 0.404387 0.790781 0.132296
H10   H     H_    0.616305 0.595603 0.209217 0.132286
H11   H     H_    0.665210 0.635655 0.812063 0.119086
H12   H     H_    0.334783 0.364352 0.187938 0.119084
H13   H     H_    0.315062 0.348167 0.973560 0.141224
H14   H     H_    0.684940 0.651829 0.026439 0.141228
N1    N     N_R   0.523540 0.519360 0.790140 -0.182377
N2    N     N_R   0.476460 0.480640 0.209860 -0.182381
O1    O     O_R   0.506670 0.354460 0.582000 -0.558927
O2    O     O_R   0.493330 0.645540 0.418000 -0.558977
O3    O     O_R   0.490800 0.341410 0.386200 -0.600512
O4    O     O_R   0.509200 0.658590 0.613800 -0.600509
O5    O     O_R   0.324790 0.506500 0.597880 -0.545252
O6    O     O_R   0.675210 0.493500 0.402120 -0.545246
O7    O     O_R   0.308910 0.493440 0.402080 -0.602982
O8    O     O_R   0.691090 0.506560 0.597920 -0.603014
O9    O     O_3   0.098812 0.532879 0.722690 -0.722984
H15   H     H_    0.026283 0.539061 0.772488 0.312624
O10   O     O_3   0.901188 0.467124 0.277311 -0.722987
H16   H     H_    0.973718 0.460942 0.227514 0.312624
N3    N     N_2   0.388303 0.803858 0.341377 -0.414397
H17   H     H_    0.412181 0.818736 0.261380 0.243116
C31   C     C_3   0.254775 0.793196 0.352024 -0.674913
H18   H     H_    0.207780 0.869274 0.353161 0.215762
H19   H     H_    0.237340 0.762939 0.433345 0.223743
H20   H     H_    0.213906 0.737675 0.276927 0.226774
N4    N     N_2   0.611418 0.196148 0.658750 -0.414500
H21   H     H_    0.587390 0.181208 0.738665 0.243153
C32   C     C_3   0.744937 0.206931 0.648362 -0.674969
H22   H     H_    0.791983 0.130875 0.647251 0.215740
H23   H     H_    0.785595 0.262448 0.723538 0.226896
H24   H     H_    0.762505 0.237271 0.567114 0.223766

loop_
_geom_bond_atom_site_label_1
_geom_bond_atom_site_label_2
_ccdc_geom_bond_type
C31   H19   S    
C16   C21   S    
C27   C29   A    
C18   C21   S    
Cu1   O4    S    
C4    C25   A    
C17   C23   S    
C18   C24   S    
C15   O5    A    
C19   C21   S    
C5    C6    A    
C28   H8    S    
C11   H10   S    
C32   H23   S    
N3    C31   S    
C2    O2    A    
C15   C22   S    
C6    C27   A    
C27   H7    S    
C29   H6    S    
Cu1   O8    S    
Cu2   O7    S    
C20   H2    S    
C31   H20   S    
O10   H16   S    
Cu1   N1    S    
C13   C14   A    
Cu2   N2    S    
C11   N2    A    
C32   H22   S    
Cu1   O1    S    
C12   N1    A    
Cu2   O6    S    
C8    H14   S    
C7    C14   A    
N4    H21   S    
C4    C6    A    
C19   H1    S    
C4    N3    S    
C30   H5    S    
N4    C32   S    
C15   O7    A    
C32   H24   S    
C16   O8    A    
Cu2   O3    S    
C12   H9    S    
C5    C28   A    
Cu1   Cu2   S    
C20   C23   S    
C24   H4    S    
Cu1   O5    S    
C1    O3    A    
Cu2   O2    S    
C2    O4    A    
C26   C29   A    
C20   C22   S    
C23   H3    S    
C21   C23   S    
C1    C26   S    
C22   C24   S    
C7    H13   S    
C25   C30   A    
C7    C9    A    
C9    H12   S    
C10   H11   S    
C3    C26   A    
C3    N4    S    
C12   C14   A    
C3    C5    A    
C17   C22   S    
C28   C30   A    
C19   C24   S    
C11   C13   A    
O9    H15   S    
C17   C19   S    
C2    C25   S    
C18   C20   S    
N3    H17   S    
C16   O6    A    
C31   H18   S    
C8    C13   A    
C18   O10   S    
C9    N2    A    
C8    C10   A    
C10   N1    A    
C1    O1    A    
C17   O9    S    
