data_mof_unit_3209.cif
_audit_creation_date              2012-12-10T17:00:04-0500
_audit_creation_method            fapswitch 2.2
_symmetry_space_group_name_H-M    P1
_symmetry_Int_Tables_number       1
_space_group_crystal_system       triclinic
_cell_length_a                    14.978645
_cell_length_b                    15.119816
_cell_length_c                    10.091725
_cell_angle_alpha                 88.790273
_cell_angle_beta                  91.023436
_cell_angle_gamma                 89.660994
_cell_volume                      2284.59770751

loop_
_atom_site_label
_atom_site_type_symbol
_atom_type_description
_atom_site_fract_x
_atom_site_fract_y
_atom_site_fract_z
_atom_type_partial_charge
C1    C     C_R   0.376828 0.886165 0.500182 0.827991
C2    C     C_2   0.686125 0.247859 0.395468 0.084813
C3    C     C_2   0.174159 0.243565 0.399586 0.051122
C4    C     C_2   0.186125 0.747859 0.395468 0.084813
C5    C     C_2   0.652942 0.788859 0.507550 -0.329585
C6    C     C_2   0.684324 0.185822 0.493155 -0.283332
C7    C     C_2   0.152942 0.288859 0.507550 -0.329585
C8    C     C_2   0.184324 0.685822 0.493155 -0.283332
C9    C     C_2   0.245555 0.178299 0.412738 -0.295367
C10   C     C_2   0.265078 0.801515 0.391999 -0.312918
C11   C     C_2   0.745555 0.678299 0.412738 -0.295367
C12   C     C_R   0.381883 0.119721 0.498226 0.872967
C13   C     C_2   0.765078 0.301515 0.391999 -0.312918
C14   C     C_2   0.317251 0.188837 0.492921 0.206384
C15   C     C_2   0.292776 0.842268 0.500968 0.230886
C16   C     C_2   0.817251 0.688837 0.492921 0.206384
C17   C     C_2   0.792776 0.342268 0.500968 0.230886
C18   C     C_2   0.570504 0.017534 0.926670 -0.122329
C19   C     C_2   0.070505 0.517534 0.926670 -0.122329
C20   C     C_2   0.571993 0.003767 0.075406 0.377345
C21   C     C_2   0.071993 0.503767 0.075406 0.377345
C22   C     C_R   0.625864 0.753177 0.269943 0.161997
C23   C     C_R   0.876828 0.386165 0.500182 0.827991
C24   C     C_R   0.532429 0.744463 0.262437 -0.099573
C25   C     C_R   0.487221 0.753884 0.140435 -0.127796
C26   C     C_R   0.534756 0.771745 0.025194 -0.149636
C27   C     C_R   0.627595 0.779751 0.031727 -0.149997
C28   C     C_R   0.673164 0.770075 0.153447 -0.065894
C29   C     C_R   0.611542 0.270245 0.300437 0.179061
C30   C     C_R   0.524332 0.282032 0.346340 -0.085917
C31   C     C_R   0.456116 0.312586 0.260287 -0.106912
C32   C     C_R   0.474572 0.333205 0.128173 -0.131994
C33   C     C_R   0.561039 0.322235 0.081459 -0.187280
C34   C     C_R   0.881883 0.619722 0.498226 0.872967
C35   C     C_R   0.629221 0.290728 0.166806 -0.167480
C36   C     C_R   0.125864 0.253177 0.269943 0.161997
C37   C     C_R   0.032429 0.244463 0.262437 -0.099573
C38   C     C_R   0.987221 0.253884 0.140435 -0.127796
C39   C     C_R   0.034756 0.271745 0.025193 -0.149637
C40   C     C_R   0.127595 0.279751 0.031727 -0.149998
C41   C     C_R   0.173164 0.270076 0.153447 -0.065894
C42   C     C_R   0.111542 0.770245 0.300437 0.179061
C43   C     C_R   0.024332 0.782033 0.346340 -0.085917
C44   C     C_R   0.956116 0.812586 0.260287 -0.106912
C45   C     C_R   0.617347 0.119964 0.498982 0.920033
C46   C     C_R   0.974572 0.833205 0.128173 -0.131994
C47   C     C_R   0.061039 0.822235 0.081459 -0.187280
C48   C     C_R   0.129221 0.790728 0.166806 -0.167480
C49   C     C_R   0.653786 0.050343 0.867888 0.244171
C50   C     C_R   0.678019 0.139026 0.883842 -0.092391
C51   C     C_R   0.762940 0.167890 0.848145 -0.118286
C52   C     C_R   0.823792 0.108636 0.794650 -0.158614
C53   C     C_R   0.800015 0.020253 0.777942 -0.143849
C54   C     C_R   0.715774 0.990816 0.816171 -0.054101
C55   C     C_R   0.153786 0.550343 0.867888 0.244171
C56   C     C_R   0.609046 0.873540 0.501637 0.947515
C57   C     C_R   0.178019 0.639026 0.883842 -0.092392
C58   C     C_R   0.262941 0.667890 0.848145 -0.118286
C59   C     C_R   0.323792 0.608636 0.794650 -0.158614
C60   C     C_R   0.300015 0.520253 0.777942 -0.143849
C61   C     C_R   0.215774 0.490816 0.816171 -0.054101
C62   C     C_R   0.417412 0.031760 0.097276 0.189109
C63   C     C_R   0.342743 0.976363 0.101912 -0.162361
C64   C     C_R   0.260695 0.005154 0.048296 -0.143238
C65   C     C_R   0.252664 0.089546 0.990172 -0.084164
C66   C     C_R   0.326184 0.146068 0.988191 -0.137925
C67   C     C_R   0.117347 0.619964 0.498982 0.920033
C68   C     C_R   0.407947 0.117896 0.043428 -0.154785
C69   C     C_R   0.917411 0.531759 0.097276 0.189109
C70   C     C_R   0.842743 0.476363 0.101912 -0.162362
C71   C     C_R   0.760695 0.505154 0.048296 -0.143238
C72   C     C_R   0.752664 0.589546 0.990172 -0.084164
C73   C     C_R   0.826184 0.646068 0.988191 -0.137926
C74   C     C_R   0.907947 0.617896 0.043428 -0.154784
C75   C     C_R   0.109046 0.373540 0.501637 0.947515
C76   C     C_2   0.674159 0.743565 0.399586 0.051122
Cl1   Cl    Cl    0.345060 0.285081 0.582241 -0.711058
Cl2   Cl    Cl    0.224120 0.856478 0.640912 -0.658500
Cl3   Cl    Cl    0.845060 0.785081 0.582241 -0.711058
Cl4   Cl    Cl    0.724120 0.356479 0.640912 -0.658500
Cl5   Cl    Cl    0.677028 0.995206 0.156797 -0.611947
Cl6   Cl    Cl    0.177028 0.495206 0.156797 -0.611947
H1    H     H_    0.674486 0.765304 0.605522 0.188611
H2    H     H_    0.953376 0.460091 0.892753 0.175909
H3    H     H_    0.494757 0.730557 0.351025 0.106734
H4    H     H_    0.415364 0.747200 0.135109 0.122912
H5    H     H_    0.499698 0.779251 0.930853 0.132184
H6    H     H_    0.664333 0.793093 0.942333 0.128720
H7    H     H_    0.745035 0.777211 0.157315 0.135073
H8    H     H_    0.509975 0.270027 0.449705 0.165178
H9    H     H_    0.389214 0.321807 0.296383 0.184805
H10   H     H_    0.421843 0.357433 0.061946 0.154672
H11   H     H_    0.575338 0.338448 0.979061 0.168579
H12   H     H_    0.739065 0.178604 0.564610 0.172559
H13   H     H_    0.695907 0.283360 0.128710 0.123967
H14   H     H_    0.994757 0.230557 0.351025 0.106734
H15   H     H_    0.915364 0.247199 0.135109 0.122912
H16   H     H_    0.999698 0.279251 0.930853 0.132184
H17   H     H_    0.164333 0.293093 0.942333 0.128720
H18   H     H_    0.245035 0.277211 0.157315 0.135073
H19   H     H_    0.009975 0.770027 0.449705 0.165178
H20   H     H_    0.889214 0.821807 0.296383 0.184806
H21   H     H_    0.921843 0.857433 0.061946 0.154672
H22   H     H_    0.075338 0.838448 0.979061 0.168579
H23   H     H_    0.174486 0.265304 0.605522 0.188611
H24   H     H_    0.195907 0.783360 0.128710 0.123967
H25   H     H_    0.631817 0.184961 0.926804 0.127053
H26   H     H_    0.781870 0.235962 0.863052 0.171535
H27   H     H_    0.889451 0.131124 0.766809 0.143860
H28   H     H_    0.847547 0.974131 0.738073 0.189638
H29   H     H_    0.700028 0.921376 0.809084 0.140921
H30   H     H_    0.131817 0.684961 0.926804 0.127053
H31   H     H_    0.281870 0.735962 0.863052 0.171535
H32   H     H_    0.389451 0.631124 0.766809 0.143860
H33   H     H_    0.347547 0.474131 0.738073 0.189638
H34   H     H_    0.239065 0.678604 0.564610 0.172559
H35   H     H_    0.200028 0.421376 0.809084 0.140921
H36   H     H_    0.349014 0.909874 0.142392 0.134621
H37   H     H_    0.203691 0.961608 0.049965 0.153904
H38   H     H_    0.189474 0.110967 0.946531 0.145498
H39   H     H_    0.320002 0.211508 0.943293 0.151036
H40   H     H_    0.464817 0.161418 0.040067 0.143034
H41   H     H_    0.849014 0.409874 0.142392 0.134621
H42   H     H_    0.703691 0.461608 0.049965 0.153904
H43   H     H_    0.689474 0.610967 0.946531 0.145498
H44   H     H_    0.820002 0.711508 0.943293 0.151037
H45   H     H_    0.239722 0.119513 0.352735 0.157775
H46   H     H_    0.964817 0.661418 0.040067 0.143034
H47   H     H_    0.304676 0.800589 0.303067 0.132849
H48   H     H_    0.739722 0.619513 0.352735 0.157775
H49   H     H_    0.804676 0.300589 0.303067 0.132849
H50   H     H_    0.453376 0.960091 0.892753 0.175909
N1    N     N_2   0.501330 0.000000 0.852150 -0.217741
N2    N     N_2   0.001330 0.500000 0.852150 -0.217741
N3    N     N_2   0.501360 0.000000 0.147810 -0.159371
N4    N     N_2   0.001360 0.500000 0.147810 -0.159371
O1    O     O_R   0.409520 0.909540 0.613040 -0.587039
O2    O     O_R   0.590440 0.909540 0.613100 -0.641615
O3    O     O_R   0.090440 0.590460 0.613100 -0.599494
O4    O     O_R   0.090440 0.409540 0.613100 -0.641615
O5    O     O_R   0.590480 0.090460 0.386960 -0.565228
O6    O     O_R   0.590480 0.909540 0.386960 -0.542183
O7    O     O_R   0.090480 0.590460 0.386960 -0.565228
O8    O     O_R   0.090480 0.409540 0.386960 -0.542183
O9    O     O_R   0.409520 0.090460 0.613040 -0.563015
O10   O     O_R   0.909520 0.409540 0.613040 -0.587039
O11   O     O_R   0.909520 0.590460 0.613040 -0.563015
O12   O     O_R   0.409560 0.909540 0.386900 -0.655958
O13   O     O_R   0.409560 0.090460 0.386900 -0.637921
O14   O     O_R   0.909560 0.409540 0.386900 -0.655958
O15   O     O_R   0.909560 0.590460 0.386900 -0.637921
O16   O     O_R   0.590440 0.090460 0.613100 -0.599494
Zn1   Zn    Zn3+2 0.499970 0.000000 0.650990 0.976374
Zn2   Zn    Zn3+2 0.999970 0.500000 0.650990 0.976374
Zn3   Zn    Zn3+2 0.500030 0.000000 0.349010 0.995405
Zn4   Zn    Zn3+2 0.000030 0.500000 0.349010 0.995405

loop_
_geom_bond_atom_site_label_1
_geom_bond_atom_site_label_2
_ccdc_geom_bond_type
C53   H28   S    
C62   N3    S    
C66   C68   A    
C6    C45   S    
C73   C74   A    
C5    C56   S    
C22   C76   S    
C4    C8    D    
C67   O7    A    
C40   H17   S    
O7    Zn4   S    
N2    Zn2   S    
C53   C54   A    
C19   N2    D    
H2    N2    S    
C26   C27   A    
C17   C23   S    
C64   H37   S    
C2    C29   S    
N1    Zn1   S    
C3    C36   S    
C36   C37   A    
C19   C21   S    
C37   C38   A    
C3    C7    D    
C75   O4    A    
C38   C39   A    
N4    Zn4   S    
C15   Cl2   S    
C73   H44   S    
N3    Zn3   S    
C18   N1    D    
C11   C16   D    
C14   Cl1   S    
O11   Zn2   S    
C2    C13   S    
C16   C34   S    
C70   H41   S    
C48   H24   S    
C47   C48   A    
C26   H5    S    
C6    H12   S    
C54   H29   S    
C58   H31   S    
C7    H23   S    
C28   H7    S    
C1    C15   S    
O12   Zn3   S    
O6    Zn3   S    
C29   C30   A    
C67   O3    A    
C24   H3    S    
C21   N4    D    
C30   H8    S    
O9    Zn1   S    
C59   C60   A    
O14   Zn4   S    
C20   Cl5   S    
C45   O5    A    
C36   C41   A    
C2    C6    D    
C38   H15   S    
C44   C46   A    
C23   O10   A    
C74   H46   S    
C66   H39   S    
C61   H35   S    
C51   C52   A    
C71   H42   S    
C24   C25   A    
C68   H40   S    
C39   C40   A    
C63   H36   S    
C44   H20   S    
H50   N1    S    
C39   H16   S    
C7    C75   S    
O3    Zn2   S    
C25   C26   A    
C17   Cl4   S    
C37   H14   S    
C60   C61   A    
C12   O9    A    
O8    Zn4   S    
C43   C44   A    
C43   H19   S    
C62   C63   A    
C3    C9    S    
C56   O2    A    
C34   O11   A    
C31   C32   A    
O10   Zn2   S    
C30   C31   A    
C50   C51   A    
C13   H49   S    
C41   H18   S    
O1    Zn1   S    
C69   C74   A    
C42   C48   A    
O15   Zn4   S    
O16   Zn1   S    
C70   C71   A    
O2    Zn1   S    
C40   C41   A    
C23   O14   A    
C12   C14   S    
C11   C76   S    
C51   H26   S    
C69   N4    S    
C31   H9    S    
C55   C57   A    
C50   H25   S    
C22   C24   A    
C42   C43   A    
C4    C10   S    
C11   H48   S    
C1    O1    A    
C52   C53   A    
C19   C55   S    
C9    H45   S    
C46   C47   A    
C47   H22   S    
C12   O13   A    
O5    Zn3   S    
C72   C73   A    
C60   H33   S    
C33   H11   S    
C34   O15   A    
C62   C68   A    
C46   H21   S    
C29   C35   A    
C13   C17   D    
C72   H43   S    
C10   C15   D    
C16   Cl3   S    
C64   C65   A    
C45   O16   A    
C5    C76   D    
C58   C59   A    
C10   H47   S    
C56   O6    A    
C71   C72   A    
C32   C33   A    
C57   C58   A    
C32   H10   S    
C4    C42   S    
C52   H27   S    
C59   H32   S    
C5    H1    S    
C55   C61   A    
C25   H4    S    
C33   C35   A    
C65   H38   S    
C9    C14   D    
C18   C20   S    
C65   C66   A    
C20   N3    D    
O13   Zn3   S    
C27   H6    S    
C69   C70   A    
C75   O8    A    
C8    H34   S    
C63   C64   A    
C57   H30   S    
C21   Cl6   S    
C8    C67   S    
C49   C50   A    
C27   C28   A    
C1    O12   A    
C22   C28   A    
C49   C54   A    
C18   C49   S    
O4    Zn2   S    
C35   H13   S    
