data_mof_unit_599.cif
_audit_creation_date              2012-12-10T19:44:55-0500
_audit_creation_method            fapswitch 2.2
_symmetry_space_group_name_H-M    P1
_symmetry_Int_Tables_number       1
_space_group_crystal_system       triclinic
_cell_length_a                    15.049815
_cell_length_b                    10.857321
_cell_length_c                    13.689591
_cell_angle_alpha                 90.769157
_cell_angle_beta                  90.207439
_cell_angle_gamma                 90.038345
_cell_volume                      2236.6715848

loop_
_atom_site_label
_atom_site_type_symbol
_atom_type_description
_atom_site_fract_x
_atom_site_fract_y
_atom_site_fract_z
_atom_type_partial_charge
C1    C     C_R   0.498304 0.262083 0.499141 0.789840
C2    C     C_R   0.501622 0.737916 0.500900 0.789237
C3    C     C_R   0.050857 0.345268 0.371890 -0.214034
C4    C     C_R   0.949185 0.653909 0.628335 -0.214359
C5    C     C_R   0.320431 0.214862 0.232973 -0.137313
C6    C     C_R   0.674987 0.778903 0.768443 -0.134412
C7    C     C_R   0.353692 0.165668 0.319506 -0.204327
C8    C     C_R   0.642458 0.826939 0.681195 -0.214661
C9    C     C_R   0.439335 0.114916 0.322461 0.097392
C10   C     C_R   0.559375 0.885293 0.678523 0.121901
C11   C     C_R   0.491979 0.114214 0.237105 0.145100
C12   C     C_R   0.508635 0.895758 0.764770 0.152573
C13   C     C_R   0.458048 0.163822 0.150758 -0.149559
C14   C     C_R   0.541894 0.846738 0.852206 -0.202186
C15   C     C_R   0.372165 0.214343 0.148147 0.190062
C16   C     C_R   0.625139 0.788309 0.854365 0.215676
C17   C     C_R   0.474263 0.931572 0.417936 -0.247983
C18   C     C_R   0.524939 0.068446 0.582558 -0.194434
C19   C     C_R   0.502315 0.871743 0.502501 -0.097680
C20   C     C_R   0.497501 0.128248 0.497735 -0.100823
C21   C     C_R   0.527859 0.940961 0.586249 0.027562
C22   C     C_R   0.471821 0.059027 0.414126 0.010467
C23   C     C_R   0.328869 0.505263 0.499919 0.809218
C24   C     C_R   0.671132 0.494558 0.500077 0.805409
C25   C     C_R   0.563798 0.436373 0.792910 0.032807
C26   C     C_R   0.436230 0.563688 0.207079 0.024884
C27   C     C_R   0.435634 0.563257 0.793331 0.030937
C28   C     C_R   0.564693 0.437379 0.206656 0.033945
C29   C     C_R   0.432950 0.564674 0.896844 -0.005444
C30   C     C_R   0.567497 0.436210 0.103140 -0.010730
C31   C     C_R   0.499615 0.500232 0.948179 0.025079
C32   C     C_R   0.500730 0.500464 0.051809 0.026087
C33   C     C_R   0.565353 0.435484 0.895754 -0.053163
C34   C     C_R   0.434890 0.565009 0.104229 -0.051598
C35   C     C_R   0.366207 0.628240 0.950384 0.169080
C36   C     C_R   0.634358 0.372867 0.049577 0.164691
C37   C     C_R   0.368428 0.628260 0.053334 -0.218231
C38   C     C_R   0.631975 0.372556 0.946633 -0.213386
C39   C     C_R   0.812787 0.567946 0.564079 -0.290716
C40   C     C_R   0.187284 0.431336 0.436090 -0.289372
C41   C     C_R   0.767647 0.487693 0.500634 -0.094178
C42   C     C_R   0.232368 0.511880 0.499375 -0.094041
C43   C     C_R   0.814947 0.404986 0.438903 0.109305
C44   C     C_R   0.185042 0.594592 0.561061 0.109634
C45   C     C_R   0.908528 0.412747 0.436586 0.095362
C46   C     C_R   0.091489 0.586628 0.563496 0.095676
C47   C     C_R   0.953306 0.496214 0.500279 0.030202
C48   C     C_R   0.046732 0.503082 0.499848 0.030196
C49   C     C_R   0.904926 0.572572 0.564758 0.112148
C50   C     C_R   0.095128 0.426666 0.435416 0.111844
C51   C     C_R   0.958566 0.338471 0.372187 -0.195359
C52   C     C_R   0.041460 0.660807 0.627967 -0.195379
Cu1   Cu    Cu3+1 0.500010 0.499980 0.597420 0.944601
Cu2   Cu    Cu3+1 0.499990 0.500020 0.402580 0.941462
H1    H     H_    0.775605 0.628996 0.611966 0.147842
H2    H     H_    0.224535 0.370137 0.388332 0.149410
H3    H     H_    0.452578 0.878836 0.354310 0.158677
H4    H     H_    0.545955 0.121217 0.646437 0.167632
H5    H     H_    0.613784 0.386514 0.751761 0.126872
H6    H     H_    0.386142 0.613353 0.248222 0.127931
H7    H     H_    0.386842 0.613000 0.751429 0.151253
H8    H     H_    0.613559 0.387726 0.248520 0.153759
H9    H     H_    0.317509 0.676985 0.094171 0.144381
H10   H     H_    0.682860 0.323784 0.905778 0.145270
H11   H     H_    0.926948 0.275090 0.321200 0.170571
H12   H     H_    0.073073 0.724189 0.678957 0.170166
H13   H     H_    0.087730 0.286540 0.321858 0.141019
H14   H     H_    0.912308 0.712564 0.678420 0.142119
H15   H     H_    0.253931 0.252785 0.231587 0.132794
H16   H     H_    0.739575 0.735096 0.769567 0.131854
H17   H     H_    0.312432 0.166058 0.384181 0.131460
H18   H     H_    0.682382 0.819995 0.615688 0.127000
H19   H     H_    0.498684 0.162589 0.085598 0.152966
H20   H     H_    0.503251 0.854680 0.918590 0.137669
N1    N     N_R   0.499960 0.499900 0.743810 -0.186531
N2    N     N_R   0.500040 0.500100 0.256190 -0.187210
O1    O     O_R   0.500000 0.319630 0.582270 -0.581200
O2    O     O_R   0.500000 0.680370 0.417730 -0.585306
O3    O     O_R   0.499990 0.319660 0.417730 -0.582261
O4    O     O_R   0.500010 0.680340 0.582270 -0.584306
O5    O     O_R   0.370260 0.499960 0.582280 -0.578748
O6    O     O_R   0.629740 0.500040 0.417720 -0.580794
O7    O     O_R   0.370250 0.499990 0.417740 -0.588459
O8    O     O_R   0.629750 0.500010 0.582260 -0.589662
C53   C     C_3   0.291501 0.694581 0.899737 -0.879456
H21   H     H_    0.318750 0.768015 0.853082 0.224040
H22   H     H_    0.252960 0.628424 0.853764 0.249296
H23   H     H_    0.245048 0.738271 0.952662 0.236566
C54   C     C_3   0.709184 0.306673 0.100145 -0.862035
H24   H     H_    0.747179 0.372615 0.146865 0.243290
H25   H     H_    0.682116 0.232232 0.145938 0.252616
H26   H     H_    0.756148 0.264207 0.047151 0.235346
N3    N     N_3   0.770441 0.310607 0.381504 -0.609426
H27   H     H_    0.702787 0.305662 0.396678 0.213952
H28   H     H_    0.794974 0.225510 0.404159 0.204595
N4    N     N_3   0.229498 0.689160 0.618321 -0.610441
H29   H     H_    0.297110 0.694356 0.602976 0.215134
H30   H     H_    0.204763 0.774160 0.595700 0.205680
N5    N     N_3   0.335784 0.262756 0.059567 -0.589197
H31   H     H_    0.322167 0.356016 0.071847 0.227962
H32   H     H_    0.382958 0.258485 0.003713 0.220547
N6    N     N_3   0.661140 0.741462 0.943689 -0.586139
H33   H     H_    0.671255 0.646933 0.933955 0.225167
H34   H     H_    0.615085 0.751529 0.000260 0.221279
N7    N     N_3   0.580199 0.064819 0.236721 -0.612979
H35   H     H_    0.616932 0.109412 0.291714 0.219704
H36   H     H_    0.576869 0.971164 0.252833 0.229280
N8    N     N_3   0.424199 0.957378 0.762936 -0.593475
H37   H     H_    0.380592 0.902507 0.721616 0.215716
H38   H     H_    0.397813 0.964405 0.833333 0.217801

loop_
_geom_bond_atom_site_label_1
_geom_bond_atom_site_label_2
_ccdc_geom_bond_type
C36   C54   S    
N3    H27   S    
C27   C29   A    
C18   C21   A    
C1    O1    A    
C39   C41   A    
Cu1   Cu2   S    
N7    H36   S    
C23   C42   S    
C23   O7    A    
C4    C52   A    
Cu1   O8    S    
C44   N4    S    
C14   H20   S    
C35   C37   A    
C7    H17   S    
C9    C22   S    
C45   C51   A    
C34   C37   A    
C46   C52   A    
C11   C13   A    
N8    H37   S    
Cu1   O5    S    
C51   H11   S    
C24   O6    A    
C5    H15   S    
C27   H7    S    
C43   N3    S    
C26   C34   A    
C39   H1    S    
N5    H31   S    
N8    H38   S    
C40   H2    S    
N4    H30   S    
C11   N7    S    
C26   N2    A    
C31   C33   A    
C54   H25   S    
C40   C42   A    
N3    H28   S    
C24   C41   S    
C41   C43   A    
Cu1   N1    S    
C42   C44   A    
C27   N1    A    
Cu2   O7    S    
C37   H9    S    
C3    C50   A    
C44   C46   A    
C38   H10   S    
C45   C47   A    
C10   C21   S    
C46   C48   A    
C8    H18   S    
C53   H22   S    
Cu1   O4    S    
C47   C49   A    
C15   N5    S    
C5    C7    A    
C3    C51   A    
C6    C8    A    
C53   H21   S    
C4    H14   S    
C25   N1    A    
C32   C34   A    
Cu1   O1    S    
C2    O2    A    
C43   C45   A    
C47   C48   A    
N4    H29   S    
C54   H26   S    
N6    H34   S    
C48   C50   A    
C9    C11   A    
C10   C12   A    
Cu2   N2    S    
C16   N6    S    
N5    H32   S    
C20   C22   A    
C13   C15   A    
C1    O3    A    
C14   C16   A    
C28   N2    A    
Cu2   O6    S    
C52   H12   S    
C12   N8    S    
Cu2   O3    S    
C53   H23   S    
C6    H16   S    
C1    C20   S    
C23   O5    A    
C19   C21   A    
C2    C19   S    
C13   H19   S    
C31   C32   A    
C3    H13   S    
C33   C38   A    
C12   C14   A    
C39   C49   A    
N7    H35   S    
C29   C35   A    
C17   C22   A    
C30   C36   A    
C4    C49   A    
C36   C38   A    
C24   O8    A    
C29   C31   A    
C30   C32   A    
C35   C53   S    
C40   C50   A    
C28   C30   A    
C17   C19   A    
C18   H4    S    
C18   C20   A    
N6    H33   S    
C5    C15   A    
C2    O4    A    
C6    C16   A    
C7    C9    A    
C8    C10   A    
C17   H3    S    
C25   H5    S    
C54   H24   S    
C26   H6    S    
C25   C33   A    
Cu2   O2    S    
C28   H8    S    
