data_mof_unit_4504.cif
_audit_creation_date              2013-03-05T15:40:33-0500
_audit_creation_method            fapswitch 2.2
_symmetry_space_group_name_H-M    P1
_symmetry_Int_Tables_number       1
_space_group_crystal_system       triclinic
_cell_length_a                    14.955048
_cell_length_b                    8.71901
_cell_length_c                    7.445772
_cell_angle_alpha                 102.856246
_cell_angle_beta                  93.764641
_cell_angle_gamma                 92.345615
_cell_volume                      942.956789566

loop_
_atom_site_label
_atom_site_type_symbol
_atom_site_description
_atom_site_fract_x
_atom_site_fract_y
_atom_site_fract_z
_atom_type_partial_charge
O1    O     O_R   0.506510 0.286130 0.619770 -0.558009
O2    O     O_R   0.493490 0.713870 0.380230 -0.558009
O3    O     O_R   0.489600 0.256770 0.308360 -0.526743
O4    O     O_R   0.510400 0.743230 0.691640 -0.526743
C1    C     C_R   0.497346 0.200173 0.453699 0.803315
C2    C     C_R   0.502654 0.799827 0.546301 0.803313
O5    O     O_R   0.378710 0.514640 0.655720 -0.587510
O6    O     O_R   0.621290 0.485360 0.344280 -0.587510
O7    O     O_R   0.361800 0.485290 0.344300 -0.572907
O8    O     O_R   0.638200 0.514710 0.655700 -0.572905
C3    C     C_R   0.329118 0.499659 0.503123 0.781151
C4    C     C_R   0.670882 0.500341 0.496877 0.781146
Cu1   Cu    Cu3+1 0.510010 0.517380 0.684380 1.053715
Cu2   Cu    Cu3+1 0.489990 0.482620 0.315620 1.053714
C5    C     C_R   0.818480 0.640311 0.570286 -0.164211
C6    C     C_R   0.181520 0.359686 0.429719 -0.164194
C7    C     C_R   0.767000 0.502165 0.490055 -0.063473
C8    C     C_R   0.232999 0.497833 0.509947 -0.063482
C9    C     C_R   0.806966 0.364806 0.409363 -0.146489
C10   C     C_R   0.193034 0.635188 0.590654 -0.146488
C11   C     C_R   0.900145 0.362544 0.415262 0.062975
C12   C     C_R   0.099855 0.637447 0.584764 0.062991
C13   C     C_R   0.953107 0.501791 0.495847 0.018128
C14   C     C_R   0.046894 0.498200 0.504179 0.018123
C15   C     C_R   0.912085 0.644235 0.568180 0.002073
C16   C     C_R   0.087915 0.355755 0.431846 0.002061
C17   C     C_R   0.940669 0.221809 0.346733 -0.155606
C18   C     C_R   0.059332 0.778178 0.653309 -0.155630
C19   C     C_R   0.034142 0.215307 0.358633 0.347516
C20   C     C_R   0.965859 0.784677 0.641416 0.347539
H1    H     H_    0.784482 0.742721 0.636023 0.185789
H2    H     H_    0.215519 0.257282 0.363966 0.185801
H3    H     H_    0.765423 0.258512 0.348997 0.153127
H4    H     H_    0.234578 0.741482 0.651022 0.153133
H5    H     H_    0.899201 0.114961 0.289535 0.207723
H6    H     H_    0.100797 0.885026 0.710518 0.207694
C21   C     C_2   0.496159 0.033099 0.427255 0.290765
C22   C     C_2   0.503840 0.966901 0.572744 0.290765
N1    N     N_2   0.474890 0.456420 0.038520 -0.179533
N2    N     N_2   0.525110 0.543580 0.961480 -0.179533
H7    H     H_    0.430190 0.378256 0.948796 0.253239
H8    H     H_    0.569810 0.621744 0.051204 0.253239
N3    N     N_R   0.072537 0.064711 0.303928 0.128257
O9    O     O_R   0.032761 0.956610 0.170120 -0.320283
O10   O     O_R   0.135878 0.024364 0.409655 -0.386578
N4    N     N_R   0.927462 0.935265 0.696164 0.128240
O11   O     O_R   0.967201 0.043301 0.830086 -0.320299
O12   O     O_R   0.864159 0.975674 0.590403 -0.386556
F1    F     F_    0.487123 0.946731 0.249575 -0.626421
F2    F     F_    0.512877 0.053268 0.750425 -0.626421

loop_
_geom_bond_atom_site_label_1
_geom_bond_atom_site_label_2
_geom_bond_distance
_ccdc_geom_bond_type
C4    C7    1.441238 S    
O7    Cu2   1.943338 S    
C2    C22   1.425100 S    
C3    C8    1.441240 S    
C5    H1    1.082011 S    
C21   C22   1.336841 D    
C22   F2    1.363975 S    
C1    C21   1.425100 S    
C6    H2    1.082008 S    
C21   F1    1.363976 S    
O6    C4    1.293613 A    
N3    O9    1.301247 A    
C10   H4    1.085249 S    
C18   C20   1.399148 A    
C11   C17   1.398630 A    
N1    H7    1.029126 S    
C12   C18   1.398631 A    
Cu1   Cu2   2.689738 S    
C19   N3    1.440189 S    
O5    C3    1.293613 A    
N3    O10   1.301296 A    
O2    C2    1.290897 A    
O3    Cu2   1.957628 S    
O8    C4    1.291521 A    
O1    C1    1.290897 A    
C6    C8    1.394231 A    
C9    C11   1.392394 A    
C10   C12   1.392390 A    
C8    C10   1.392149 A    
O7    C3    1.291522 A    
C11   C13   1.412826 A    
C6    C16   1.400097 A    
O2    Cu2   1.963651 S    
C12   C14   1.412830 A    
C5    C15   1.400092 A    
C17   C19   1.399160 A    
C13   C14   1.401826 A    
C7    C9    1.392152 A    
N1    N2    1.294015 D    
N4    O12   1.301282 A    
O5    Cu1   1.959768 S    
C13   C15   1.420211 A    
O1    Cu1   1.963651 S    
C18   H6    1.084123 S    
C16   C19   1.417110 A    
O4    C2    1.286023 A    
C9    H3    1.085248 S    
O4    Cu1   1.957628 S    
C5    C7    1.394230 A    
N4    O11   1.301225 A    
C15   C20   1.417096 A    
Cu1   N2    2.021118 S    
O6    Cu2   1.959768 S    
C17   H5    1.084122 S    
Cu2   N1    2.021118 S    
C20   N4    1.440172 S    
C14   C16   1.420215 A    
N2    H8    1.029126 S    
O3    C1    1.286023 A    
O8    Cu1   1.943338 S    
