data_mof_unit_2979.cif
_audit_creation_date              2012-12-10T19:22:00-0500
_audit_creation_method            fapswitch 2.2
_symmetry_space_group_name_H-M    P1
_symmetry_Int_Tables_number       1
_space_group_crystal_system       triclinic
_cell_length_a                    8.757865
_cell_length_b                    17.817032
_cell_length_c                    16.595988
_cell_angle_alpha                 88.836061
_cell_angle_beta                  97.414096
_cell_angle_gamma                 95.28263
_cell_volume                      2556.97303629

loop_
_atom_site_label
_atom_site_type_symbol
_atom_type_description
_atom_site_fract_x
_atom_site_fract_y
_atom_site_fract_z
_atom_type_partial_charge
C1    C     C_R   0.505257 0.355250 0.501310 0.854567
C2    C     C_R   0.496126 0.644670 0.498905 0.876436
C3    C     C_1   0.532413 0.967323 0.510551 0.071364
C4    C     C_1   0.541178 0.034837 0.511581 0.064392
C5    C     C_R   0.614002 0.548799 0.834499 0.079732
C6    C     C_R   0.443790 0.435236 0.167393 0.141322
C7    C     C_R   0.602337 0.549971 0.747833 0.351925
C8    C     C_R   0.420247 0.441609 0.251117 0.337395
C9    C     C_R   0.398262 0.451389 0.739681 0.344465
C10   C     C_R   0.594018 0.553215 0.260753 0.336172
C11   C     C_R   0.410856 0.447727 0.826496 0.033572
C12   C     C_R   0.580218 0.558415 0.174012 0.022707
C13   C     C_R   0.515342 0.498090 0.874307 -0.029997
C14   C     C_R   0.511108 0.497360 0.126858 -0.023592
C15   C     C_1   0.518912 0.497607 0.963969 0.031292
C16   C     C_1   0.517378 0.497317 0.037901 0.065166
C17   C     C_R   0.203640 0.496554 0.479994 0.791737
C18   C     C_R   0.796491 0.503036 0.519674 0.889186
C19   C     C_2   0.037553 0.482317 0.473105 0.001129
C20   C     C_2   0.961766 0.519218 0.524143 0.027672
C21   C     C_R   0.433985 0.843653 0.560487 0.189040
C22   C     C_R   0.555840 0.154811 0.437665 0.176981
C23   C     C_R   0.423714 0.764114 0.556978 0.022012
C24   C     C_R   0.542508 0.233085 0.434224 0.047676
C25   C     C_R   0.492805 0.728216 0.497388 -0.148979
C26   C     C_R   0.522556 0.272322 0.505250 -0.152959
C27   C     C_R   0.561661 0.772938 0.437925 0.122639
C28   C     C_R   0.523891 0.232159 0.580633 0.122818
C29   C     C_R   0.584114 0.851819 0.446162 0.186836
C30   C     C_R   0.539231 0.153722 0.583538 0.183564
C31   C     C_R   0.519288 0.886555 0.506936 -0.024525
C32   C     C_R   0.548832 0.115695 0.511389 -0.021913
Cu1   Cu    Cu3+1 0.499990 0.499980 0.580420 0.945899
Cu2   Cu    Cu3+1 0.500010 0.500020 0.419580 0.931856
N1    N     N_R   0.499960 0.499970 0.701210 -0.249150
N2    N     N_R   0.500040 0.500030 0.298790 -0.268064
O1    O     O_R   0.499990 0.391240 0.567930 -0.582938
O2    O     O_R   0.500010 0.608760 0.432070 -0.585552
O3    O     O_R   0.500000 0.391270 0.432120 -0.552301
O4    O     O_R   0.500000 0.608730 0.567880 -0.526538
O5    O     O_R   0.274830 0.499990 0.552240 -0.578768
O6    O     O_R   0.725170 0.500010 0.447760 -0.590389
O7    O     O_R   0.274840 0.500020 0.416420 -0.610652
O8    O     O_R   0.725160 0.499980 0.583580 -0.582317
N3    N     N_2   0.968094 0.414723 0.433487 -0.437248
H1    H     H_    0.032432 0.369450 0.447628 0.230346
C33   C     C_3   0.924190 0.421375 0.346729 -0.650983
H2    H     H_    0.881948 0.365003 0.321392 0.205124
H3    H     H_    0.023504 0.445381 0.316311 0.227998
H4    H     H_    0.828138 0.457313 0.332859 0.279613
N4    N     N_2   0.027899 0.588602 0.561007 -0.451097
H5    H     H_    0.103639 0.621092 0.529080 0.254767
C34   C     C_3   0.073476 0.587056 0.647795 -0.640578
H6    H     H_    0.198654 0.579934 0.661734 0.268122
H7    H     H_    0.007623 0.540538 0.676758 0.212034
H8    H     H_    0.051307 0.641204 0.673989 0.210992
N5    N     N_2   0.359515 0.881007 0.617779 -0.413972
H9    H     H_    0.358185 0.854628 0.673515 0.246376
C35   C     C_3   0.210929 0.906100 0.585597 -0.692075
H10   H     H_    0.126395 0.857044 0.567855 0.212153
H11   H     H_    0.221449 0.943477 0.531861 0.236650
H12   H     H_    0.166545 0.938459 0.632705 0.224606
N6    N     N_2   0.575508 0.114441 0.366835 -0.419017
H13   H     H_    0.517037 0.132432 0.313112 0.242054
C36   C     C_3   0.734030 0.101571 0.360008 -0.672649
H14   H     H_    0.802656 0.155710 0.349773 0.204473
H15   H     H_    0.736998 0.063870 0.307893 0.228798
H16   H     H_    0.787549 0.074208 0.416027 0.244166
N7    N     N_3   0.333462 0.719463 0.609597 -0.580674
H17   H     H_    0.220999 0.735850 0.600800 0.225650
H18   H     H_    0.379306 0.730217 0.669817 0.209488
N8    N     N_3   0.551581 0.273014 0.358763 -0.536249
H19   H     H_    0.655773 0.264324 0.337594 0.217958
H20   H     H_    0.459660 0.252225 0.316306 0.218910
N9    N     N_2   0.601091 0.739139 0.367569 -0.413063
H21   H     H_    0.711719 0.754634 0.354601 0.258097
C37   C     C_3   0.483739 0.739550 0.297213 -0.642445
H22   H     H_    0.445134 0.680882 0.278341 0.250572
H23   H     H_    0.531663 0.770262 0.245822 0.192479
H24   H     H_    0.380175 0.766820 0.310057 0.214699
N10   N     N_2   0.507087 0.270763 0.652953 -0.407708
H25   H     H_    0.421056 0.247953 0.685356 0.238568
C38   C     C_3   0.649623 0.296787 0.702563 -0.616224
H26   H     H_    0.625611 0.339254 0.746162 0.218804
H27   H     H_    0.735132 0.323676 0.664363 0.229431
H28   H     H_    0.699076 0.249349 0.737801 0.203751
N11   N     N_2   0.669479 0.896974 0.392401 -0.409901
H29   H     H_    0.649040 0.881038 0.332379 0.264350
C39   C     C_3   0.832510 0.910795 0.421424 -0.738717
H30   H     H_    0.889908 0.948169 0.377826 0.226530
H31   H     H_    0.887976 0.856963 0.427129 0.219752
H32   H     H_    0.849280 0.939012 0.481425 0.235800
N12   N     N_2   0.542237 0.112175 0.658354 -0.411723
H33   H     H_    0.485039 0.133007 0.702224 0.249577
C40   C     C_3   0.691368 0.087666 0.690897 -0.677136
H34   H     H_    0.681167 0.056348 0.748773 0.219384
H35   H     H_    0.778463 0.136739 0.702764 0.213147
H36   H     H_    0.732947 0.049443 0.648254 0.229866
N13   N     N_2   0.727637 0.598483 0.880661 -0.419075
H37   H     H_    0.688360 0.623185 0.928813 0.264350
C41   C     C_3   0.873755 0.567167 0.903903 -0.707074
H38   H     H_    0.958560 0.611087 0.934424 0.225990
H39   H     H_    0.920576 0.547708 0.849633 0.219637
H40   H     H_    0.859129 0.519015 0.946700 0.226502
N14   N     N_2   0.423943 0.363554 0.128804 -0.420799
H41   H     H_    0.451941 0.317138 0.163807 0.255757
C42   C     C_3   0.308840 0.350787 0.058424 -0.669813
H42   H     H_    0.218098 0.306376 0.071792 0.205809
H43   H     H_    0.365695 0.330356 0.008309 0.256585
H44   H     H_    0.252329 0.402707 0.039061 0.234875
N15   N     N_2   0.701777 0.602205 0.708920 -0.348221
H45   H     H_    0.813734 0.588654 0.717947 0.240985
C43   C     C_3   0.690812 0.681538 0.722799 -0.618890
H46   H     H_    0.686802 0.712484 0.664048 0.225979
H47   H     H_    0.794236 0.705391 0.763259 0.211789
H48   H     H_    0.586332 0.690808 0.751407 0.208204
N16   N     N_2   0.320449 0.385115 0.286533 -0.394586
H49   H     H_    0.288172 0.399032 0.340575 0.308597
C44   C     C_3   0.189967 0.345688 0.237125 -0.771421
H50   H     H_    0.101097 0.324219 0.275826 0.213572
H51   H     H_    0.225076 0.294290 0.211117 0.243579
H52   H     H_    0.136241 0.383470 0.189723 0.245539
N17   N     N_2   0.284592 0.400732 0.693877 -0.408165
H53   H     H_    0.297600 0.388258 0.635722 0.308179
C45   C     C_3   0.123781 0.400956 0.706208 -0.763913
H54   H     H_    0.051875 0.410558 0.647417 0.233769
H55   H     H_    0.106309 0.445529 0.748848 0.221633
H56   H     H_    0.082878 0.345188 0.730337 0.228940
N18   N     N_2   0.710174 0.602434 0.306757 -0.408276
H57   H     H_    0.707378 0.607119 0.367493 0.319900
C46   C     C_3   0.867523 0.606028 0.286923 -0.775715
H58   H     H_    0.948551 0.594749 0.342157 0.236461
H59   H     H_    0.901145 0.663463 0.264408 0.235414
H60   H     H_    0.881309 0.563948 0.240509 0.230504
N19   N     N_3   0.325788 0.389153 0.867185 -0.608948
H61   H     H_    0.211724 0.401738 0.866726 0.225415
H62   H     H_    0.329110 0.337562 0.838835 0.239391
N20   N     N_3   0.643439 0.623941 0.133383 -0.597610
H63   H     H_    0.753171 0.614096 0.119952 0.223605
H64   H     H_    0.653550 0.671201 0.170567 0.247004

loop_
_geom_bond_atom_site_label_1
_geom_bond_atom_site_label_2
_ccdc_geom_bond_type
N11   H29   S    
N6    C36   S    
N12   H33   S    
C27   C29   A    
C40   H34   S    
C23   N7    S    
N15   H45   S    
Cu2   O6    S    
C46   H60   S    
N10   H25   S    
C40   H36   S    
N17   H53   S    
C33   H3    S    
C37   H22   S    
N14   C42   S    
C41   H38   S    
C22   C32   A    
C22   C24   A    
C24   C26   A    
C43   H46   S    
C30   N12   S    
C11   N19   S    
C18   O6    A    
N17   C45   S    
C15   C16   T    
C18   C20   S    
C8    N2    A    
N3    C33   S    
N7    H18   S    
C20   N4    S    
C9    N17   S    
C22   N6    S    
C33   H2    S    
C36   H15   S    
C45   H56   S    
C42   H42   S    
C39   H31   S    
C5    C13   A    
C1    O1    A    
C43   H48   S    
C44   H51   S    
C35   H10   S    
C41   H39   S    
C42   H43   S    
C27   N9    S    
N10   C38   S    
C8    N16   S    
C33   H4    S    
C34   H7    S    
C35   H11   S    
Cu1   O4    S    
N4    H5    S    
C5    N13   S    
N19   H61   S    
N8    H20   S    
C5    C7    A    
C17   C19   S    
C12   N20   S    
C6    C8    A    
N3    H1    S    
Cu1   O1    S    
Cu2   O3    S    
N4    C34   S    
N9    H21   S    
C17   O7    A    
C21   N5    S    
C18   O8    A    
C6    C14   A    
C21   C31   A    
C2    O2    A    
C38   H26   S    
C13   C15   S    
C36   H16   S    
C40   H35   S    
Cu1   Cu2   S    
C37   H23   S    
N15   C43   S    
C39   H32   S    
C3    C31   S    
C9    C11   A    
C4    C32   S    
C10   C12   A    
C38   H27   S    
C12   C14   A    
C41   H40   S    
C21   C23   A    
C45   H54   S    
C42   H44   S    
C14   C16   S    
C46   H58   S    
C24   N8    S    
C9    N1    A    
N18   H57   S    
C34   H8    S    
N19   H62   S    
C35   H12   S    
N13   C41   S    
C28   N10   S    
Cu2   O2    S    
Cu1   O8    S    
C7    N1    A    
C44   H52   S    
Cu2   O7    S    
N8    H19   S    
C46   H59   S    
C44   H50   S    
C19   N3    S    
C34   H6    S    
N20   H64   S    
C25   C27   A    
N14   H41   S    
C26   C28   A    
N13   H37   S    
Cu1   O5    S    
C19   C20   D    
N16   C44   S    
C10   N18   S    
C29   C31   A    
N16   H49   S    
C30   C32   A    
C11   C13   A    
N5    H9    S    
C1    C26   S    
C37   H24   S    
C28   C30   A    
Cu1   N1    S    
C6    N14   S    
C7    N15   S    
C2    C25   S    
Cu2   N2    S    
C23   C25   A    
N7    H17   S    
C17   O5    A    
C29   N11   S    
N5    C35   S    
N20   H63   S    
C1    O3    A    
N6    H13   S    
C2    O4    A    
C38   H28   S    
N12   C40   S    
C36   H14   S    
N9    C37   S    
C45   H55   S    
N11   C39   S    
C10   N2    A    
N18   C46   S    
C39   H30   S    
C3    C4    T    
C43   H47   S    
