data_mof_unit_688.cif
_audit_creation_date              2012-12-11T14:36:05-0500
_audit_creation_method            fapswitch 2.2
_symmetry_space_group_name_H-M    P1
_symmetry_Int_Tables_number       1
_space_group_crystal_system       triclinic
_cell_length_a                    14.535019
_cell_length_b                    15.994501
_cell_length_c                    6.998491
_cell_angle_alpha                 90.005736
_cell_angle_beta                  80.875097
_cell_angle_gamma                 90.044245
_cell_volume                      1606.42145874

loop_
_atom_site_label
_atom_site_type_symbol
_atom_type_description
_atom_site_fract_x
_atom_site_fract_y
_atom_site_fract_z
_atom_type_partial_charge
O1    O     O_R   0.337460 0.413110 0.524760 -0.539252
O2    O     O_R   0.662540 0.913110 0.475240 -0.539439
O3    O     O_R   0.348690 0.587910 0.191230 -0.539738
O4    O     O_R   0.651310 0.087910 0.808770 -0.542193
O5    O     O_R   0.166530 0.586890 0.082470 -0.548515
O6    O     O_R   0.833470 0.086890 0.917530 -0.545886
C1    C     C_R   0.367410 0.619235 0.353303 0.699837
C2    C     C_R   0.630310 0.117201 0.646674 0.676735
O7    O     O_R   0.348700 0.413830 0.191250 -0.537635
O8    O     O_R   0.651300 0.913830 0.808750 -0.540410
O9    O     O_R   0.166530 0.411570 0.082490 -0.543301
O10   O     O_R   0.833470 0.911570 0.917510 -0.543864
C3    C     C_R   0.370183 0.385049 0.353548 0.767462
C4    C     C_R   0.630792 0.884150 0.646289 0.759044
O11   O     O_R   0.337460 0.588430 0.524740 -0.548828
O12   O     O_R   0.662540 0.088430 0.475260 -0.544772
O13   O     O_3   0.192230 0.499460 0.407330 -0.381321
O14   O     O_3   0.807770 0.999460 0.592670 -0.379919
V1    V     V_3+5 0.263080 0.500100 0.108540 1.382051
V2    V     V_3+5 0.736920 0.000100 0.891460 1.382810
O15   O     O_R   0.155290 0.412090 0.756570 -0.544004
O16   O     O_R   0.844710 0.912090 0.243430 -0.544648
C5    C     C_R   0.131557 0.384392 0.933823 0.674659
C6    C     C_R   0.868119 0.884164 0.066213 0.671924
O17   O     O_R   0.155290 0.586170 0.756550 -0.535719
O18   O     O_R   0.844710 0.086170 0.243450 -0.535813
C7    C     C_R   0.133986 0.616485 0.931020 0.683539
C8    C     C_R   0.865963 0.116452 0.068998 0.689934
V3    V     V_3+5 0.240910 0.499900 0.616030 1.386582
V4    V     V_3+5 0.759090 0.999900 0.383970 1.389343
O19   O     O_3   0.311760 0.500540 0.867100 -0.368593
O20   O     O_3   0.688240 0.000540 0.132900 -0.369343
C9    C     C_3   0.085698 0.748630 0.121584 -0.403651
C10   C     C_3   0.913414 0.248511 0.878670 -0.398484
H1    H     H_    0.157723 0.772616 0.093185 0.121967
H2    H     H_    0.840415 0.270878 0.906159 0.122424
C11   C     C_3   0.016188 0.822509 0.157464 -0.346331
C12   C     C_3   0.982525 0.322991 0.843850 -0.349712
H3    H     H_    0.984336 0.823504 0.312878 0.175419
H4    H     H_    0.013936 0.324847 0.688222 0.175162
C13   C     C_3   0.963667 0.654787 0.033558 -0.363230
C14   C     C_3   0.035948 0.155020 0.965277 -0.366813
C15   C     C_3   0.062764 0.743246 0.768779 0.605406
C16   C     C_3   0.937237 0.243270 0.230964 0.605505
C17   C     C_3   0.063308 0.688861 0.959295 0.058121
C18   C     C_3   0.936410 0.188890 0.040515 0.056494
C19   C     C_3   0.939616 0.813982 0.028291 0.049810
C20   C     C_3   0.059892 0.314231 0.971482 0.048863
C21   C     C_3   0.891636 0.727720 0.071553 -0.323351
C22   C     C_3   0.107829 0.228095 0.926992 -0.322198
C23   C     C_3   0.989682 0.815880 0.813840 -0.322241
C24   C     C_3   0.010618 0.315691 0.186223 -0.322929
H5    H     H_    0.024432 0.877776 0.786731 0.108779
H6    H     H_    0.976329 0.377673 0.214715 0.109513
H7    H     H_    0.938188 0.814885 0.712673 0.153176
H8    H     H_    0.062534 0.314110 0.286445 0.153545
H9    H     H_    0.834546 0.719571 0.985300 0.123908
H10   H     H_    0.165098 0.219880 0.012773 0.123955
H11   H     H_    0.469775 0.667984 0.613562 0.127532
H12   H     H_    0.552057 0.184249 0.361649 0.124543
C25   C     C_2   0.427745 0.695397 0.343508 0.145020
C26   C     C_2   0.566362 0.189878 0.658124 0.123846
C27   C     C_2   0.475281 0.710772 0.491847 -0.198639
C28   C     C_2   0.533049 0.216662 0.498749 -0.145749
H13   H     H_    0.543085 0.782351 0.792510 0.164373
H14   H     H_    0.456509 0.282954 0.208067 0.153544
C29   C     C_2   0.566320 0.812339 0.654404 -0.363340
C30   C     C_2   0.436465 0.314930 0.344583 -0.385940
C31   C     C_2   0.538469 0.783284 0.492295 -0.142667
C32   C     C_2   0.469152 0.288694 0.503621 -0.119949
H15   H     H_    0.081564 0.712406 0.254842 0.194001
H16   H     H_    0.918623 0.212421 0.745031 0.194335
H17   H     H_    0.941725 0.607689 0.934484 0.147500
H18   H     H_    0.058152 0.107843 0.063742 0.147086
H19   H     H_    0.563406 0.813478 0.354908 0.174695
H20   H     H_    0.447863 0.320601 0.640442 0.196865
N1    N     N_2   0.429890 0.756516 0.191225 -0.537700
H21   H     H_    0.427949 0.817767 0.237868 0.257423
C33   C     C_3   0.376501 0.744019 0.035840 -0.522711
H22   H     H_    0.380416 0.800815 0.943575 0.180747
H23   H     H_    0.302548 0.732552 0.095192 0.182136
H24   H     H_    0.405538 0.691087 0.943322 0.218805
N2    N     N_2   0.543585 0.233497 0.837175 -0.523576
H25   H     H_    0.533597 0.194596 0.956129 0.256372
C34   C     C_3   0.606791 0.301445 0.859926 -0.569278
H26   H     H_    0.581322 0.336690 0.994230 0.198961
H27   H     H_    0.611300 0.345641 0.736387 0.205299
H28   H     H_    0.677083 0.276520 0.870118 0.182584
H29   H     H_    0.054188 0.882639 0.126325 0.123761
H30   H     H_    0.944163 0.382741 0.877156 0.124214
H31   H     H_    0.964452 0.618580 0.168246 0.136838
H32   H     H_    0.034906 0.118852 0.830646 0.136950
H33   H     H_    0.856358 0.726128 0.224137 0.135563
H34   H     H_    0.142744 0.226792 0.774150 0.136190
N3    N     N_2   0.041151 0.691501 0.607685 -0.513436
H35   H     H_    0.094767 0.658725 0.528018 0.284545
C35   C     C_3   0.949621 0.659407 0.589457 -0.651428
H36   H     H_    0.932750 0.678441 0.449004 0.207703
H37   H     H_    0.893295 0.684620 0.696429 0.204266
H38   H     H_    0.949474 0.590058 0.597496 0.196180
N4    N     N_2   0.958524 0.191546 0.392227 -0.513268
H39   H     H_    0.904605 0.159214 0.472323 0.285178
C36   C     C_3   0.049792 0.158662 0.409395 -0.651357
H40   H     H_    0.067287 0.177483 0.549482 0.207340
H41   H     H_    0.106209 0.183544 0.301928 0.203789
H42   H     H_    0.049105 0.089322 0.401254 0.196269
N5    N     N_2   0.155994 0.780656 0.713156 -0.545020
H43   H     H_    0.174017 0.823969 0.809634 0.239522
C37   C     C_3   0.183828 0.810046 0.516544 -0.575528
H44   H     H_    0.246665 0.850328 0.508473 0.191320
H45   H     H_    0.127371 0.847259 0.468227 0.200822
H46   H     H_    0.203682 0.756439 0.418729 0.200353
N6    N     N_2   0.844284 0.280993 0.286324 -0.541574
H47   H     H_    0.826321 0.323904 0.188960 0.240930
C38   C     C_3   0.817339 0.311450 0.482163 -0.583257
H48   H     H_    0.755571 0.352853 0.489204 0.189365
H49   H     H_    0.874607 0.347954 0.529505 0.201550
H50   H     H_    0.796536 0.258363 0.581060 0.202270

loop_
_geom_bond_atom_site_label_1
_geom_bond_atom_site_label_2
_ccdc_geom_bond_type
H14   C30   S    
C26   N2    S    
N4    H39   S    
C9    C17   S    
N3    H35   S    
O4    C2    A    
V1    O19   S    
C35   H36   S    
C21   H9    S    
C19   C21   S    
N1    H21   S    
C8    C18   S    
O3    C1    A    
C37   H45   S    
O12   V4    S    
C38   H48   S    
O13   V3    S    
C14   C18   S    
C25   C27   D    
O7    C3    A    
C1    C25   S    
C26   C28   D    
O13   V1    S    
O5    C7    A    
O7    V1    S    
O6    C8    A    
C27   C31   S    
C25   N1    S    
H13   C29   S    
C15   N3    S    
C4    C29   S    
O3    V1    S    
C10   C18   S    
C28   C32   S    
C11   C19   S    
C10   H2    S    
C16   C24   S    
N1    C33   S    
C2    O12   A    
V3    O19   S    
N5    C37   S    
C13   C21   S    
O18   C8    A    
C35   H37   S    
C16   C18   S    
O11   V3    S    
C34   H27   S    
O17   V3    S    
C14   H18   S    
C22   H10   S    
O8    C4    A    
C37   H46   S    
O8    V2    S    
C33   H23   S    
C22   H34   S    
C19   C23   S    
C1    O11   A    
C23   H7    S    
C38   H49   S    
C34   H26   S    
O15   V3    S    
C9    C11   S    
C29   C31   D    
V4    O20   S    
N2    H25   S    
N5    H43   S    
C38   H50   S    
O9    V1    S    
O10   V2    S    
O1    V3    S    
C24   H6    S    
C36   H41   S    
C15   N5    S    
C20   C22   S    
C15   C17   S    
C14   C22   S    
O14   V4    S    
C30   C32   D    
C13   H31   S    
C16   N6    S    
O18   V4    S    
O15   C5    A    
C32   H20   S    
O16   C6    A    
O1    C3    A    
O2    V4    S    
C10   H16   S    
C35   H38   S    
N6    H47   S    
V2    O20   S    
C34   H28   S    
C12   H30   S    
C5    C20   S    
O16   V4    S    
C14   H32   S    
N2    C34   S    
C10   C12   S    
C6    C19   S    
C12   C20   S    
C33   H24   S    
C16   N4    S    
N3    C35   S    
O5    V1    S    
O17   C7    A    
O6    V2    S    
O10   C6    A    
H11   C27   S    
C11   H29   S    
H12   C28   S    
C21   H33   S    
C11   H3    S    
C37   H44   S    
C12   H4    S    
C7    C17   S    
C15   C23   S    
O9    C5    A    
C9    H1    S    
C31   H19   S    
C36   H42   S    
O14   V2    S    
O2    C4    A    
C9    H15   S    
C13   H17   S    
C33   H22   S    
O4    V2    S    
C20   C24   S    
N4    C36   S    
C36   H40   S    
C13   C17   S    
C23   H5    S    
C24   H8    S    
C2    C26   S    
N6    C38   S    
C3    C30   S    
