data_mof_unit_3636.cif
_audit_creation_date              2012-12-11T19:09:45-0500
_audit_creation_method            fapswitch 2.2
_symmetry_space_group_name_H-M    P1
_symmetry_Int_Tables_number       1
_space_group_crystal_system       triclinic
_cell_length_a                    8.212608
_cell_length_b                    15.016983
_cell_length_c                    27.000333
_cell_angle_alpha                 98.343804
_cell_angle_beta                  92.834231
_cell_angle_gamma                 81.279138
_cell_volume                      3255.29344142

loop_
_atom_site_label
_atom_site_type_symbol
_atom_type_description
_atom_site_fract_x
_atom_site_fract_y
_atom_site_fract_z
_atom_type_partial_charge
Ba1   Ba    Ba6+2 0.860050 0.456430 0.522540 1.653349
Ba2   Ba    Ba6+2 0.329780 0.543490 0.477450 1.663378
C1    C     C_3   0.752622 0.118992 0.647303 -0.370695
C2    C     C_R   0.948306 0.597138 0.185020 0.589841
C3    C     C_2   0.764827 0.573234 0.275452 -0.091173
C4    C     C_3   0.153845 0.262367 0.655091 0.337211
C5    C     C_3   0.737196 0.596386 0.331121 -0.107358
C6    C     C_1   0.982948 0.484882 0.343261 0.036071
C7    C     C_2   0.022938 0.477838 0.295452 -0.063206
C8    C     C_2   0.907586 0.523046 0.258455 0.221515
C9    C     C_R   0.026666 0.509578 0.104103 -0.079935
C10   C     C_R   0.034784 0.429286 0.126076 -0.040830
C11   C     C_R   0.080212 0.345438 0.096403 -0.051711
C12   C     C_3   0.700425 0.212017 0.630779 0.362118
C13   C     C_R   0.982527 0.593955 0.133919 -0.028220
C14   C     C_2   0.846509 0.534152 0.361819 -0.267024
C15   C     C_2   0.351399 0.474931 0.640146 -0.280063
C16   C     C_3   0.136785 0.237223 0.706977 -0.304578
C17   C     C_R   0.158144 0.416676 0.972266 0.020187
C18   C     C_R   0.077277 0.582701 0.978111 0.020110
C19   C     C_R   0.135903 0.497727 0.949609 0.050197
C20   C     C_R   0.225417 0.334675 0.942990 -0.101020
C21   C     C_R   0.264928 0.331995 0.893207 -0.059778
C22   C     C_R   0.238703 0.410750 0.869954 -0.024340
C23   C     C_3   0.495496 0.671057 0.630857 0.290727
C24   C     C_R   0.173379 0.493744 0.897930 -0.079930
C25   C     C_R   0.146657 0.572737 0.874327 -0.036184
C26   C     C_R   0.184347 0.567534 0.823095 0.597581
C27   C     C_R   0.277945 0.407668 0.819287 0.573979
C28   C     C_3   0.218525 0.265357 0.413563 0.325755
C29   C     C_2   0.435721 0.435967 0.725756 -0.085573
C30   C     C_3   0.457313 0.410390 0.670166 -0.048396
C31   C     C_1   0.208348 0.517468 0.657617 0.030660
C32   C     C_2   0.166639 0.520092 0.705198 -0.103385
C33   C     C_2   0.288710 0.480258 0.742899 0.196494
C34   C     C_3   0.490834 0.692387 0.687611 -0.354610
C35   C     C_R   0.114417 0.420146 0.023236 0.019987
C36   C     C_R   0.063091 0.505582 0.052352 0.051259
C37   C     C_R   0.047999 0.587110 0.030307 0.019166
C38   C     C_R   0.119327 0.340812 0.046330 -0.098060
C39   C     C_R   0.974268 0.673854 0.112199 -0.058680
C40   C     C_3   0.242501 0.162497 0.399203 -0.354449
C41   C     C_R   0.049286 0.660500 0.953052 -0.098878
C42   C     C_R   0.082962 0.655451 0.902485 -0.059379
C43   C     C_R   0.005552 0.670675 0.061689 -0.100000
C44   C     C_R   0.353520 0.176290 0.535493 -0.007978
C45   C     C_3   0.946231 0.779255 0.350311 0.348336
C46   C     C_R   0.577320 0.209703 0.489714 0.061676
C47   C     C_R   0.759055 0.771206 0.486887 -0.278850
C48   C     C_R   0.849711 0.830421 0.469448 -0.005404
C49   C     C_R   0.791881 0.923673 0.475143 -0.145906
C50   C     C_R   0.641913 0.959263 0.499723 0.020524
C51   C     C_R   0.558077 0.898003 0.520938 -0.010486
C52   C     C_3   0.977703 0.736364 0.587608 0.313797
C53   C     C_R   0.573908 0.053491 0.504923 0.004277
C54   C     C_R   0.424478 0.083965 0.531186 -0.020330
C55   C     C_R   0.348611 0.021833 0.552383 -0.103948
C56   C     C_3   0.934303 0.826187 0.303750 -0.309338
C57   C     C_R   0.415043 0.931292 0.547978 -0.056701
C58   C     C_R   0.645747 0.118077 0.483376 -0.134776
C59   C     C_R   0.435426 0.238829 0.517042 -0.298249
C60   C     C_R   0.619232 0.804303 0.514629 0.034034
C61   C     C_3   0.960048 0.838927 0.603045 -0.387871
C62   C     C_3   0.695092 0.342215 0.371686 0.301720
C63   C     C_3   0.684816 0.322958 0.314736 -0.003945
C64   C     C_3   0.483247 0.777044 0.337488 0.334763
C65   C     C_3   0.381925 0.861928 0.321246 -0.326926
C66   C     C_R   0.995249 0.434378 0.177098 0.601285
H1    H     H_    0.744928 0.209572 0.592322 0.075471
H2    H     H_    0.820217 0.356000 0.383726 0.003648
H3    H     H_    0.604264 0.403240 0.383695 0.047736
H4    H     H_    0.888230 0.099712 0.645490 0.145923
H5    H     H_    0.705202 0.383976 0.298492 0.038611
H6    H     H_    0.560628 0.306361 0.302306 0.107373
H7    H     H_    0.563431 0.225139 0.630149 -0.065376
H8    H     H_    0.693494 0.067057 0.622133 0.071242
H9    H     H_    0.373500 0.654421 0.616447 0.017823
H10   H     H_    0.591634 0.611371 0.621099 0.070510
H11   H     H_    0.391821 0.749956 0.698658 0.135810
H12   H     H_    0.328135 0.142266 0.367615 0.135764
H13   H     H_    0.466213 0.632007 0.703723 0.074843
H14   H     H_    0.611195 0.710794 0.702926 0.132083
H15   H     H_    0.713912 0.119930 0.686227 0.123446
H16   H     H_    0.116801 0.300060 0.734348 0.122152
H17   H     H_    0.976184 0.704689 0.339081 0.050871
H18   H     H_    0.824372 0.795964 0.368222 -0.106560
H19   H     H_    0.048224 0.804554 0.282020 0.152956
H20   H     H_    0.827117 0.808233 0.279842 0.120278
H21   H     H_    0.917646 0.901181 0.314553 0.112179
H22   H     H_    0.593257 0.760566 0.313760 -0.033526
H23   H     H_    0.294725 0.128430 0.431389 0.050721
H24   H     H_    0.521307 0.792725 0.377604 0.005020
H25   H     H_    0.460847 0.916210 0.322821 0.068322
H26   H     H_    0.277994 0.887542 0.346569 0.156876
H27   H     H_    0.068421 0.326180 0.651570 0.093078
H28   H     H_    0.333898 0.846836 0.282239 0.122373
H29   H     H_    0.140924 0.440533 0.283001 0.115913
H30   H     H_    0.085899 0.282339 0.111876 0.131445
H31   H     H_    0.529884 0.408102 0.751206 0.116606
H32   H     H_    0.316543 0.267102 0.872827 0.122346
H33   H     H_    0.252853 0.270999 0.957694 0.071098
H34   H     H_    0.122159 0.139460 0.387802 0.147875
H35   H     H_    0.149863 0.273249 0.026437 0.071636
H36   H     H_    0.678349 0.606616 0.249823 0.097293
H37   H     H_    0.942513 0.739953 0.134299 0.123269
H38   H     H_    0.998126 0.726735 0.971245 0.070599
H39   H     H_    0.282666 0.273600 0.651258 -0.052775
H40   H     H_    0.059000 0.717368 0.885465 0.122325
H41   H     H_    0.044224 0.551198 0.717065 0.125622
H42   H     H_    0.998580 0.735623 0.048655 0.072212
H43   H     H_    0.822883 0.541798 0.401508 0.077704
H44   H     H_    0.383702 0.475224 0.601685 0.077387
H45   H     H_    0.855782 0.716618 0.576813 -0.002044
H46   H     H_    0.381908 0.309788 0.520657 0.073218
H47   H     H_    0.236483 0.041877 0.572896 0.110711
H48   H     H_    0.752918 0.099414 0.460626 0.088894
H49   H     H_    0.804702 0.699077 0.482120 0.058605
H50   H     H_    0.868061 0.966096 0.460943 0.079090
H51   H     H_    0.029361 0.200946 0.708087 0.145640
H52   H     H_    0.349690 0.887872 0.565699 0.098274
H53   H     H_    0.249620 0.192640 0.717765 0.121703
H54   H     H_    0.339188 0.287476 0.423834 -0.008435
H55   H     H_    0.136263 0.283434 0.445999 0.064839
H56   H     H_    0.060614 0.717537 0.555395 0.066334
H57   H     H_    0.871826 0.859957 0.633922 0.130856
H58   H     H_    0.914102 0.875139 0.571102 0.060429
H59   H     H_    0.081624 0.858956 0.615880 0.120737
I1    I     I_    0.867095 0.212102 0.286778 -0.371943
N1    N     N_R   0.951438 0.517852 0.206083 -0.426152
N2    N     N_R   0.249040 0.485378 0.795793 -0.422043
O1    O     O_2   0.906490 0.548660 0.619040 -0.460772
O2    O     O_2   0.190158 0.824002 0.472806 -0.472009
O3    O     O_3   0.072470 0.809953 0.382060 -0.578049
O4    O     O_3   0.138490 0.548590 0.558860 -0.496394
O5    O     O_3   0.572560 0.389970 0.472910 -0.494140
O6    O     O_2   0.345680 0.723560 0.528460 -0.464640
O7    O     O_3   0.531536 0.747218 0.611343 -0.646937
O8    O     O_2   0.436069 0.526389 0.325046 -0.488870
O9    O     O_3   0.390908 0.704283 0.330483 -0.554809
O10   O     O_2   0.997937 0.364398 0.195443 -0.563618
O11   O     O_2   0.337702 0.335101 0.796059 -0.622705
O12   O     O_3   0.660812 0.266398 0.391792 -0.621545
O13   O     O_2   0.916848 0.670943 0.210927 -0.623709
O14   O     O_2   0.162196 0.636597 0.803174 -0.596324
O15   O     O_3   0.686290 0.382320 0.585720 -0.481969
O16   O     O_2   0.784242 0.454829 0.676426 -0.496758
O17   O     O_3   0.041124 0.694131 0.628603 -0.625722
O18   O     O_3   0.768878 0.278949 0.663927 -0.596282
O19   O     O_2   0.844020 0.276410 0.471510 -0.460632
O20   O     O_3   0.101490 0.335510 0.560360 -0.493545
O21   O     O_2   0.014987 0.174125 0.525261 -0.485340
O22   O     O_3   0.113700 0.191597 0.618930 -0.612422
O23   O     O_2   0.283210 0.451320 0.380930 -0.457664
O24   O     O_3   0.051220 0.451340 0.441130 -0.503465
O25   O     O_3   0.503420 0.617610 0.414270 -0.456915
O26   O     O_3   0.150191 0.305607 0.372302 -0.601974
O27   O     O_3   0.617160 0.609950 0.527080 -0.480686
O28   O     O_3   0.088220 0.664410 0.439630 -0.475627
P1    P     P_3+3 0.071960 0.575810 0.612130 0.989830
P2    P     P_3+3 0.664360 0.290070 0.457280 0.991342
P3    P     P_3+3 0.145601 0.218382 0.559587 0.933205
P4    P     P_3+3 0.117760 0.424110 0.387870 1.005400
P5    P     P_3+3 0.049700 0.782897 0.441785 0.981802
P6    P     P_3+3 0.675185 0.385453 0.650180 0.946075
P7    P     P_3+3 0.530911 0.722846 0.545948 0.940276
P8    P     P_3+3 0.516977 0.609305 0.349200 0.974843

loop_
_geom_bond_atom_site_label_1
_geom_bond_atom_site_label_2
_ccdc_geom_bond_type
C53   C54   A    
C40   H12   S    
C57   H52   S    
C12   O18   S    
C9    C36   A    
Ba1   O15   S    
C19   C24   A    
O17   P1    S    
C56   H19   S    
Ba2   P4    S    
C2    O13   D    
O7    P7    S    
C51   C57   A    
C55   H47   S    
C28   H55   S    
C46   P2    S    
C24   C25   A    
Ba2   O4    S    
C20   H33   S    
C39   H37   S    
C23   H9    S    
C45   H17   S    
C17   C19   A    
C22   C24   A    
Ba1   Ba2   S    
C35   C38   A    
C36   C37   A    
C55   C57   A    
C52   C61   S    
O25   P8    S    
O5    P2    S    
C52   H45   S    
O3    P5    S    
C49   H50   S    
C63   H5    S    
C54   C55   A    
C32   C33   S    
C62   H3    S    
C11   H30   S    
C22   C27   A    
C11   C38   A    
C17   C35   A    
C9    C13   A    
C25   C42   A    
C47   H49   S    
C64   O9    S    
C28   H54   S    
C34   H14   S    
C6    C7    D    
O21   P3    D    
C44   P3    S    
C65   H26   S    
C16   H16   S    
C4    H39   S    
Ba1   O19   S    
C26   O14   D    
C29   H31   S    
C7    C8    S    
O22   P3    S    
C50   C53   A    
C37   C43   A    
C4    O22   S    
C28   O26   S    
C21   H32   S    
C3    H36   S    
O26   P4    S    
Ba2   O24   S    
C53   C58   A    
C45   O3    S    
C66   N1    Am   
C15   C31   D    
C40   H34   S    
C56   H21   S    
C46   C58   A    
C42   H40   S    
C4    C16   S    
C44   C59   A    
C49   C50   A    
O18   P6    S    
C45   H18   S    
Ba1   P1    S    
C17   C20   A    
C13   C39   A    
C64   H22   S    
O27   P7    S    
C3    C5    S    
C18   C37   A    
C43   H42   S    
C64   H24   S    
C23   C34   S    
O16   P6    D    
Ba2   O6    S    
C63   H6    S    
C23   H10   S    
C41   H38   S    
O9    P8    S    
C23   O7    S    
C41   C42   A    
C63   I1    S    
C35   C36   A    
C10   C66   A    
C51   C60   A    
C27   N2    Am   
C34   H13   S    
Ba2   O28   S    
C27   O11   D    
C48   C49   A    
Ba1   O20   S    
Ba2   O25   S    
C10   C11   A    
O1    P1    D    
C1    H8    S    
C33   N2    S    
C61   H57   S    
C1    C12   S    
O28   P5    S    
O4    P1    S    
C5    C14   S    
C5    P8    S    
C47   C48   A    
Ba2   O23   S    
C62   H2    S    
C1    H15   S    
C65   H28   S    
C12   H1    S    
C29   C33   D    
C66   O10   D    
Ba1   O4    S    
C15   H44   S    
C25   C26   A    
C18   C41   A    
C50   C51   A    
C15   C30   S    
O20   P3    S    
C52   H56   S    
C7    H29   S    
C47   C60   A    
C21   C22   A    
C48   P5    S    
O24   P4    S    
C29   C30   S    
O12   P2    S    
Ba1   O1    S    
C34   H11   S    
C56   H20   S    
C9    C10   A    
C2    N1    Am   
O15   P6    S    
Ba2   O5    S    
O23   P4    D    
O8    P8    D    
C62   C63   S    
C2    C13   A    
Ba1   O27   S    
C1    H4    S    
C8    N1    S    
C3    C8    D    
C6    P4    S    
C12   H7    S    
C38   H35   S    
C46   C59   A    
Ba1   P2    S    
C62   O12   S    
Ba2   O27   S    
C30   P6    S    
C31   C32   D    
C64   C65   S    
C26   N2    Am   
Ba1   O24   S    
O19   P2    D    
O2    P5    D    
C61   H58   S    
C58   H48   S    
C16   H53   S    
C31   P1    S    
C60   P7    S    
C18   C19   A    
C6    C14   D    
C4    H27   S    
O6    P7    D    
C44   C54   A    
C59   H46   S    
C65   H25   S    
C32   H41   S    
C39   C43   A    
C20   C21   A    
C28   C40   S    
Ba1   O5    S    
C16   H51   S    
C61   H59   S    
C40   H23   S    
C14   H43   S    
C52   O17   S    
C45   C56   S    
