data_mof_unit_4193.cif
_audit_creation_date              2012-12-11T14:43:35-0500
_audit_creation_method            fapswitch 2.2
_symmetry_space_group_name_H-M    P1
_symmetry_Int_Tables_number       1
_space_group_crystal_system       triclinic
_cell_length_a                    20.92705
_cell_length_b                    7.090634
_cell_length_c                    16.32776
_cell_angle_alpha                 89.149153
_cell_angle_beta                  92.476548
_cell_angle_gamma                 88.412307
_cell_volume                      2419.30728141

loop_
_atom_site_label
_atom_site_type_symbol
_atom_type_description
_atom_site_fract_x
_atom_site_fract_y
_atom_site_fract_z
_atom_type_partial_charge
O1    O     O_R   0.564840 0.505290 0.579830 -0.506505
O2    O     O_R   0.435160 0.005290 0.420170 -0.524700
O3    O     O_R   0.556720 0.179930 0.409350 -0.530434
O4    O     O_R   0.443280 0.679930 0.590650 -0.540427
C1    C     C_R   0.571322 0.344720 0.381484 0.714432
C2    C     C_R   0.429655 0.845664 0.619079 0.740741
O5    O     O_R   0.572280 0.175810 0.578530 -0.516697
O6    O     O_R   0.427720 0.675810 0.421470 -0.532969
O7    O     O_R   0.450830 0.001920 0.590540 -0.531468
O8    O     O_R   0.549170 0.501920 0.409460 -0.541994
C3    C     C_R   0.589825 0.340334 0.606043 0.768261
C4    C     C_R   0.409869 0.847319 0.395011 0.798032
O9    O     O_3   0.460130 0.338030 0.503750 -0.383102
O10   O     O_3   0.539870 0.838030 0.496250 -0.362911
V1    V     V_3+5 0.507400 0.064560 0.499310 1.545750
V2    V     V_3+5 0.492600 0.564560 0.500690 1.520363
C5    C     C_R   0.141491 0.894787 0.169540 -0.051780
C6    C     C_R   0.854492 0.431870 0.834373 -0.057540
C7    C     C_R   0.356321 0.869111 0.331442 -0.232546
C8    C     C_R   0.645249 0.333970 0.667884 -0.250683
C9    C     C_R   0.308070 0.043534 0.212861 -0.237957
C10   C     C_R   0.713122 0.155230 0.769737 -0.233171
C11   C     C_R   0.360145 0.004238 0.267311 0.321439
C12   C     C_R   0.657553 0.171730 0.719163 0.359343
C13   C     C_R   0.299585 0.765165 0.336361 0.330091
C14   C     C_R   0.689080 0.483139 0.672914 0.369249
C15   C     C_R   0.245932 0.810526 0.282274 0.062515
C16   C     C_R   0.744118 0.467413 0.726908 0.058331
C17   C     C_R   0.250697 0.950470 0.220161 0.029351
C18   C     C_R   0.756846 0.300191 0.773846 0.020230
C19   C     C_R   0.198455 0.993079 0.164836 -0.186232
C20   C     C_R   0.812161 0.282249 0.826403 -0.183187
C21   C     C_R   0.136426 0.758944 0.232354 -0.170018
C22   C     C_R   0.841107 0.598204 0.787783 -0.184557
C23   C     C_R   0.187460 0.719335 0.288728 -0.126584
C24   C     C_R   0.786919 0.615858 0.734941 -0.133561
H1    H     H_    0.203005 0.096902 0.116146 0.113219
H2    H     H_    0.821041 0.154670 0.863036 0.120416
H3    H     H_    0.092735 0.681923 0.237499 0.119785
H4    H     H_    0.872562 0.716711 0.792517 0.127549
H5    H     H_    0.312578 0.148074 0.164462 0.167460
H6    H     H_    0.721561 0.028905 0.807342 0.169806
H7    H     H_    0.181067 0.615066 0.336565 0.150427
H8    H     H_    0.778521 0.747270 0.701039 0.156419
C25   C     C_R   0.378916 0.926085 0.834028 -0.163392
C26   C     C_R   0.622658 0.330301 0.163152 -0.161369
H9    H     H_    0.468195 0.911650 0.774867 0.175210
H10   H     H_    0.533675 0.326706 0.221994 0.190706
H11   H     H_    0.298988 0.961365 0.954122 0.129427
H12   H     H_    0.704355 0.301392 0.044042 0.133474
H13   H     H_    0.402066 0.952328 0.893277 0.134279
H14   H     H_    0.599920 0.309385 0.103190 0.136650
C27   C     C_R   0.388872 0.860036 0.690324 -0.089055
C28   C     C_R   0.612405 0.353550 0.309907 -0.078934
C29   C     C_R   0.077047 0.885704 0.732009 -0.329353
C30   C     C_R   0.919407 0.465261 0.266550 -0.311235
C31   C     C_R   0.110303 0.881380 0.660031 0.440785
C32   C     C_R   0.883182 0.504034 0.334173 0.443515
C33   C     C_R   0.177075 0.900420 0.662491 0.351376
C34   C     C_R   0.815981 0.499257 0.326798 0.339819
C35   C     C_R   0.212604 0.898131 0.739325 -0.096118
C36   C     C_R   0.785382 0.420977 0.256078 -0.092868
C37   C     C_R   0.177003 0.911767 0.812371 0.012963
C38   C     C_R   0.823034 0.390790 0.185986 0.008598
C39   C     C_R   0.281576 0.889952 0.746850 0.112608
C40   C     C_R   0.718117 0.385588 0.250359 0.115767
C41   C     C_R   0.312005 0.919594 0.825068 0.134825
C42   C     C_R   0.689059 0.349540 0.172193 0.123253
C43   C     C_R   0.275805 0.941109 0.894343 -0.194798
C44   C     C_R   0.726355 0.331307 0.103598 -0.191410
C45   C     C_R   0.209663 0.932655 0.888539 -0.140642
C46   C     C_R   0.792418 0.346104 0.110745 -0.143977
C47   C     C_R   0.321969 0.849082 0.680852 -0.211370
C48   C     C_R   0.678920 0.377298 0.319534 -0.215334
C49   C     C_R   0.416794 0.901143 0.766868 -0.137034
C50   C     C_R   0.584741 0.336988 0.231098 -0.113577
C51   C     C_R   0.109110 0.906072 0.807867 -0.146512
C52   C     C_R   0.890209 0.415833 0.191663 -0.150607
H15   H     H_    0.303551 0.805481 0.621835 0.181505
H16   H     H_    0.699303 0.380884 0.381250 0.143289
H17   H     H_    0.025325 0.878184 0.728281 0.146728
H18   H     H_    0.970619 0.485109 0.271268 0.144244
H19   H     H_    0.184151 0.945561 0.944578 0.102235
H20   H     H_    0.819241 0.326185 0.056140 0.108888
O11   O     O_R   0.950790 0.256670 0.090520 -0.535299
O12   O     O_R   0.049210 0.756670 0.909480 -0.533461
O13   O     O_R   0.927720 0.590370 0.921470 -0.542710
O14   O     O_R   0.072280 0.090370 0.078530 -0.539425
C53   C     C_R   0.909705 0.425085 0.895215 0.681058
C54   C     C_R   0.089252 0.918252 0.105553 0.683978
O15   O     O_R   0.943270 0.586180 0.090640 -0.536673
O16   O     O_R   0.056730 0.086180 0.909360 -0.538527
O17   O     O_R   0.064850 0.759970 0.079840 -0.537554
O18   O     O_R   0.935150 0.259970 0.920160 -0.539662
C55   C     C_R   0.930245 0.418397 0.119144 0.727616
C56   C     C_R   0.069671 0.917062 0.880902 0.725461
O19   O     O_3   0.039850 0.428050 0.996240 -0.369357
O20   O     O_3   0.960150 0.928050 0.003760 -0.373247
V3    V     V_3+5 0.992610 0.701540 0.000700 1.420868
V4    V     V_3+5 0.007390 0.201540 0.999300 1.416564
O21   O     O_3   0.205522 0.927699 0.588646 -0.551985
C57   C     C_3   0.209462 0.123434 0.573747 -0.202552
H21   H     H_    0.239534 0.191667 0.622128 0.126862
H22   H     H_    0.161089 0.193092 0.568448 0.148567
H23   H     H_    0.232490 0.145289 0.514538 0.157576
O22   O     O_3   0.781442 0.594165 0.384395 -0.569288
C58   C     C_3   0.769097 0.780766 0.355103 -0.226304
H24   H     H_    0.736844 0.783375 0.299070 0.146786
H25   H     H_    0.814141 0.854269 0.342818 0.156327
H26   H     H_    0.744682 0.862231 0.402523 0.137902
O23   O     O_3   0.076284 0.877199 0.585708 -0.539591
C59   C     C_3   0.076237 0.689227 0.558747 -0.187905
H27   H     H_    0.052656 0.595392 0.602891 0.109018
H28   H     H_    0.125585 0.634995 0.548149 0.151738
H29   H     H_    0.048482 0.684912 0.499388 0.180695
O24   O     O_3   0.913383 0.575712 0.403445 -0.542806
C60   C     C_3   0.913920 0.437687 0.466552 -0.217078
H30   H     H_    0.939205 0.305517 0.448391 0.134301
H31   H     H_    0.864660 0.407084 0.485011 0.153750
H32   H     H_    0.940304 0.492482 0.521156 0.154336
Cl1   Cl    Cl    0.430866 0.122850 0.249712 -0.724229
Cl2   Cl    Cl    0.603340 0.986668 0.726893 -0.635369
O25   O     O_3   0.295121 0.629800 0.397678 -0.557237
C61   C     C_3   0.309711 0.451068 0.365005 -0.181880
H33   H     H_    0.272672 0.409413 0.318400 0.121625
H34   H     H_    0.310835 0.344278 0.415430 0.147197
H35   H     H_    0.357518 0.446406 0.337676 0.180145
O26   O     O_3   0.676509 0.648331 0.628355 -0.523500
C62   C     C_3   0.704669 0.632389 0.551867 -0.126165
H36   H     H_    0.757792 0.627863 0.558955 0.131835
H37   H     H_    0.689883 0.758856 0.514377 0.160838
H38   H     H_    0.687941 0.506847 0.517904 0.090018

loop_
_geom_bond_atom_site_label_1
_geom_bond_atom_site_label_2
_ccdc_geom_bond_type
C40   C42   A    
O21   C57   S    
C15   C17   A    
H10   C50   S    
O23   C59   S    
O1    C3    A    
O2    C4    A    
O26   C62   S    
C2    O7    A    
C26   C50   A    
C39   C47   A    
O25   C61   S    
C11   Cl1   S    
C10   H6    S    
O5    C3    A    
O14   V4    S    
C21   H3    S    
C22   H4    S    
C60   H31   S    
C29   C51   A    
C31   C33   A    
O22   C58   S    
C25   H13   S    
C32   C34   A    
C40   C48   A    
C26   H14   S    
O16   C56   A    
C30   C52   A    
O24   C60   S    
C57   H23   S    
C34   C36   A    
C53   O18   A    
C43   C45   A    
C36   C38   A    
C28   C48   A    
C8    C12   A    
C39   C41   A    
C25   C41   A    
C58   H24   S    
C20   H2    S    
C29   H17   S    
C23   H7    S    
O17   V3    S    
O13   V3    S    
C62   H38   S    
H11   C43   S    
O5    V1    S    
O6    V2    S    
C48   H16   S    
C32   O24   S    
C58   H25   S    
C27   C49   A    
C5    C21   A    
C59   H28   S    
C59   H27   S    
O19   V3    S    
C45   H19   S    
C3    C8    S    
C33   C35   A    
C36   C40   A    
C33   O21   S    
C1    C28   S    
O4    C2    A    
C60   H32   S    
C15   C23   A    
C9    C17   A    
C19   H1    S    
C41   C43   A    
O4    V2    S    
C7    C11   A    
C26   C42   A    
O2    V1    S    
C13   O25   S    
O18   V4    S    
C52   C55   S    
O6    C4    A    
C12   Cl2   S    
C47   H15   S    
O1    V2    S    
C14   O26   S    
C57   H22   S    
O12   V3    S    
C6    C22   A    
C46   H20   S    
O12   C56   A    
C61   H35   S    
C9    H5    S    
C37   C45   A    
O20   V4    S    
C29   C31   A    
C5    C19   A    
C58   H26   S    
C10   C12   A    
C24   H8    S    
C6    C20   A    
C2    C27   S    
O19   V4    S    
O3    V1    S    
O16   V4    S    
C54   O17   A    
C61   H34   S    
C62   H36   S    
C37   C51   A    
C10   C18   A    
C28   C50   A    
C6    C53   S    
C38   C52   A    
C35   C37   A    
C27   C47   A    
C5    C54   S    
O14   C54   A    
O3    C1    A    
C30   H18   S    
C34   O22   S    
C13   C15   A    
C51   C56   S    
C14   C16   A    
C25   C49   A    
C9    C11   A    
H12   C44   S    
H9    C49   S    
C1    O8    A    
C17   C19   A    
O11   V4    S    
O8    V2    S    
C60   H30   S    
C18   C20   A    
O11   C55   A    
C31   O23   S    
C8    C14   A    
C4    C7    S    
C16   C18   A    
C21   C23   A    
C30   C32   A    
C22   C24   A    
C38   C46   A    
O7    V1    S    
C57   H21   S    
C7    C13   A    
O15   C55   A    
C35   C39   A    
C16   C24   A    
C42   C44   A    
O20   V3    S    
O9    V2    S    
O13   C53   A    
O10   V1    S    
C44   C46   A    
O15   V3    S    
C59   H29   S    
C61   H33   S    
C62   H37   S    
