data_mof_unit_2050.cif
_audit_creation_date              2012-12-10T18:45:03-0500
_audit_creation_method            fapswitch 2.2
_symmetry_space_group_name_H-M    P1
_symmetry_Int_Tables_number       1
_space_group_crystal_system       triclinic
_cell_length_a                    10.884291
_cell_length_b                    10.176301
_cell_length_c                    10.677326
_cell_angle_alpha                 89.999889
_cell_angle_beta                  96.455593
_cell_angle_gamma                 90.0
_cell_volume                      1175.14130372

loop_
_atom_site_label
_atom_site_type_symbol
_atom_type_description
_atom_site_fract_x
_atom_site_fract_y
_atom_site_fract_z
_atom_type_partial_charge
C1    C     C_R   0.260383 0.499898 0.498068 0.900957
C2    C     C_R   0.739617 0.499898 0.501931 0.900957
C3    C     C_R   0.941282 0.617258 0.518178 0.080001
C4    C     C_R   0.058718 0.617256 0.481815 0.080000
C5    C     C_R   0.579718 0.070316 0.583672 0.058379
C6    C     C_R   0.420282 0.070316 0.416328 0.058379
C7    C     C_R   0.582689 0.927647 0.579267 0.460994
C8    C     C_R   0.417311 0.927647 0.420733 0.460995
C9    C     C_R   0.513367 0.499823 0.261972 0.865371
C10   C     C_R   0.486633 0.499823 0.738028 0.865372
C11   C     C_R   0.593304 0.730179 0.103948 0.188216
C12   C     C_R   0.406696 0.730179 0.896051 0.188215
C13   C     C_R   0.555530 0.847324 0.042271 0.146582
C14   C     C_R   0.444470 0.847324 0.957727 0.146583
C15   C     C_R   0.468242 0.615045 0.939289 -0.063624
C16   C     C_R   0.531759 0.615045 0.060711 -0.063624
C17   C     C_R   0.536233 0.498441 0.128959 -0.140156
C18   C     C_R   0.463767 0.498441 0.871041 -0.140156
C19   C     C_R   0.526006 0.380440 0.062966 0.166126
C20   C     C_R   0.473995 0.380439 0.937035 0.166126
C21   C     C_R   0.064610 0.380053 0.512617 0.414180
C22   C     C_R   0.935390 0.380053 0.487384 0.414182
C23   C     C_R   0.873502 0.499258 0.504904 -0.239638
C24   C     C_R   0.126498 0.499257 0.495094 -0.239637
N1    N     N_R   0.500000 0.857200 0.500000 -0.178747
N2    N     N_R   0.500000 0.142810 0.500000 -0.127495
O1    O     O_R   0.316770 0.614620 0.499990 -0.586279
O2    O     O_R   0.683230 0.614620 0.500010 -0.586279
O3    O     O_R   0.316800 0.385290 0.500000 -0.606368
O4    O     O_R   0.683200 0.385290 0.500000 -0.606364
O5    O     O_R   0.500010 0.614690 0.316770 -0.597198
O6    O     O_R   0.499990 0.614690 0.683230 -0.597198
O7    O     O_R   0.500040 0.385360 0.316770 -0.613829
O8    O     O_R   0.499960 0.385360 0.683230 -0.613830
Zn1   Zn    Zn3+2 0.500000 0.653120 0.500000 0.987697
Zn2   Zn    Zn3+2 0.500000 0.346880 0.500000 0.933899
C25   C     C_3   0.594526 0.263078 0.116854 -0.863828
H1    H     H_    0.661168 0.234002 0.050747 0.238316
H2    H     H_    0.652667 0.283431 0.206934 0.282995
H3    H     H_    0.527183 0.185803 0.131761 0.246436
C26   C     C_3   0.405474 0.263078 0.883147 -0.863830
H4    H     H_    0.338833 0.234002 0.949255 0.238316
H5    H     H_    0.347334 0.283431 0.793068 0.282994
H6    H     H_    0.472818 0.185804 0.868240 0.246436
C27   C     C_3   0.704338 0.727190 0.203837 -0.808192
H7    H     H_    0.787939 0.763724 0.164452 0.217592
H8    H     H_    0.686259 0.789775 0.284963 0.246246
H9    H     H_    0.727601 0.626667 0.238719 0.228444
C28   C     C_3   0.295662 0.727190 0.796162 -0.808188
H10   H     H_    0.212060 0.763722 0.835548 0.217591
H11   H     H_    0.313740 0.789775 0.715036 0.246246
H12   H     H_    0.272399 0.626666 0.761280 0.228444
C29   C     C_3   0.635258 0.966334 0.062342 -0.996017
H13   H     H_    0.731677 0.943185 0.045976 0.245689
H14   H     H_    0.604072 0.040589 0.990878 0.256404
H15   H     H_    0.635352 0.001551 0.160613 0.262869
C30   C     C_3   0.364741 0.966334 0.937655 -0.996017
H16   H     H_    0.268322 0.943184 0.954020 0.245689
H17   H     H_    0.395927 0.040588 0.009120 0.256404
H18   H     H_    0.364649 0.001552 0.839385 0.262869
O9    O     O_3   0.120470 0.291426 0.600088 -0.620728
C31   C     C_3   0.140873 0.168739 0.544919 -0.263981
H19   H     H_    0.240693 0.145562 0.562186 0.208669
H20   H     H_    0.111135 0.163720 0.442133 0.160074
H21   H     H_    0.092335 0.091175 0.593263 0.151958
O10   O     O_3   0.879530 0.291424 0.399916 -0.620726
C32   C     C_3   0.859133 0.168737 0.455087 -0.263980
H22   H     H_    0.759314 0.145554 0.437822 0.208667
H23   H     H_    0.888871 0.163719 0.557873 0.160076
H24   H     H_    0.907673 0.091174 0.406744 0.151958
C33   C     C_3   0.896143 0.740208 0.576030 -0.733265
H25   H     H_    0.833591 0.794784 0.505022 0.269577
H26   H     H_    0.852091 0.712121 0.660758 0.267291
H27   H     H_    0.973466 0.806866 0.610612 0.206296
C34   C     C_3   0.103857 0.740205 0.423959 -0.733264
H28   H     H_    0.166406 0.794785 0.494967 0.269579
H29   H     H_    0.147913 0.712115 0.339234 0.267289
H30   H     H_    0.026533 0.806859 0.389371 0.206298
C35   C     C_3   0.666667 0.138990 0.682260 -0.803277
H31   H     H_    0.760445 0.096305 0.686894 0.221105
H32   H     H_    0.674157 0.244517 0.666051 0.287974
H33   H     H_    0.634953 0.126709 0.776048 0.205697
C36   C     C_3   0.333333 0.138990 0.317740 -0.803275
H34   H     H_    0.239554 0.096306 0.313106 0.221104
H35   H     H_    0.325842 0.244518 0.333950 0.287973
H36   H     H_    0.365047 0.126711 0.223952 0.205698
O11   O     O_3   0.678481 0.858915 0.644297 -0.611769
C37   C     C_3   0.669212 0.857171 0.774353 -0.286626
H37   H     H_    0.586933 0.909325 0.800691 0.174293
H38   H     H_    0.753235 0.903189 0.824185 0.167867
H39   H     H_    0.667045 0.753965 0.807041 0.200494
O12   O     O_3   0.321520 0.858916 0.355701 -0.611770
C38   C     C_3   0.330790 0.857173 0.225646 -0.286628
H40   H     H_    0.413070 0.909327 0.199308 0.174292
H41   H     H_    0.246767 0.903192 0.175814 0.167869
H42   H     H_    0.332957 0.753968 0.192957 0.200494

loop_
_geom_bond_atom_site_label_1
_geom_bond_atom_site_label_2
_ccdc_geom_bond_type
C15   C18   A    
O11   C37   S    
C38   H40   S    
C26   H4    S    
C3    C23   A    
C19   C20   A    
C12   C28   S    
C29   H13   S    
O3    Zn2   S    
C25   H1    S    
C25   H3    S    
C4    C24   A    
C30   H17   S    
C15   C16   A    
O7    Zn2   S    
C22   O10   S    
C4    C34   S    
C31   H20   S    
C19   C25   S    
C7    O11   S    
O2    Zn1   S    
C16   C17   A    
C28   H11   S    
C12   C15   A    
C8    O12   S    
C5    C35   S    
C21   O9    S    
C27   H8    S    
O10   C32   S    
C38   H41   S    
C13   C14   A    
C9    O7    A    
C8    N1    A    
C26   H5    S    
C20   C26   S    
C13   C29   S    
C29   H14   S    
C32   H22   S    
O6    Zn1   S    
C33   H26   S    
C30   H18   S    
C6    C8    A    
C27   H9    S    
O1    Zn1   S    
C27   H7    S    
C35   H31   S    
C32   H23   S    
C3    C33   S    
C34   H28   S    
C31   H19   S    
C35   H33   S    
C11   C16   A    
C36   H34   S    
C37   H39   S    
C28   H12   S    
C1    O3    A    
C10   O8    A    
C34   H29   S    
N1    Zn1   S    
C9    C17   S    
C36   H35   S    
C12   C14   A    
C38   H42   S    
C26   H6    S    
O5    Zn1   S    
C11   C27   S    
C3    C4    A    
C5    C7    A    
C29   H15   S    
N2    Zn2   S    
C14   C30   S    
C6    C36   S    
C31   H21   S    
C37   H38   S    
C33   H27   S    
C35   H32   S    
C7    N1    A    
O4    Zn2   S    
C2    O4    A    
C32   H24   S    
C33   H25   S    
C25   H2    S    
C11   C13   A    
C30   H16   S    
C6    N2    A    
C10   C18   S    
O12   C38   S    
C17   C19   A    
O8    Zn2   S    
C18   C20   A    
O9    C31   S    
C34   H30   S    
C9    O5    A    
C5    N2    A    
C10   O6    A    
C36   H36   S    
C37   H37   S    
C1    C24   S    
C28   H10   S    
C21   C24   A    
C2    C23   S    
C1    O1    A    
C22   C23   A    
C2    O2    A    
C21   C22   A    
