data_mof_unit_4890.cif
_audit_creation_date              2012-12-10T17:56:21-0500
_audit_creation_method            fapswitch 2.2
_symmetry_space_group_name_H-M    P1
_symmetry_Int_Tables_number       1
_space_group_crystal_system       triclinic
_cell_length_a                    13.01357
_cell_length_b                    10.813794
_cell_length_c                    9.516865
_cell_angle_alpha                 89.420473
_cell_angle_beta                  96.02246
_cell_angle_gamma                 91.271417
_cell_volume                      1331.51057809

loop_
_atom_site_label
_atom_site_type_symbol
_atom_type_description
_atom_site_fract_x
_atom_site_fract_y
_atom_site_fract_z
_atom_type_partial_charge
C1    C     C_R   0.500897 0.262115 0.500343 0.777278
C2    C     C_R   0.500899 0.737887 0.499568 0.781057
C3    C     C_R   0.502590 0.871697 0.498603 -0.018893
C4    C     C_R   0.502387 0.128310 0.499660 -0.007373
C5    C     C_R   0.432430 0.426240 0.066258 -0.249774
C6    C     C_R   0.566312 0.575479 0.933723 -0.244183
C7    C     C_R   0.435284 0.420894 0.916450 0.571564
C8    C     C_R   0.566829 0.576183 0.083584 0.558711
C9    C     C_R   0.300312 0.495486 0.473751 0.846045
C10   C     C_R   0.699628 0.499900 0.526942 0.834701
C11   C     C_R   0.812623 0.498565 0.545549 -0.145100
C12   C     C_R   0.187135 0.485048 0.458740 -0.135194
C13   C     C_R   0.022837 0.431414 0.326585 -0.306379
C14   C     C_R   0.977152 0.538720 0.683824 -0.290233
C15   C     C_R   0.131738 0.438745 0.333518 0.462382
C16   C     C_R   0.869062 0.530184 0.676095 0.460281
C17   C     C_R   0.135258 0.517737 0.574352 -0.304166
C18   C     C_R   0.864438 0.464500 0.430840 -0.305835
C19   C     C_R   0.028319 0.507977 0.567070 0.110291
C20   C     C_R   0.971781 0.467718 0.441122 0.115440
C21   C     C_R   0.454435 0.064010 0.382681 -0.174002
C22   C     C_R   0.552101 0.935999 0.614473 -0.174661
C23   C     C_R   0.455174 0.935860 0.381723 -0.211136
C24   C     C_R   0.553576 0.064233 0.613662 -0.182151
Cu1   Cu    Cu3+1 0.500000 0.500020 0.640660 0.978583
Cu2   Cu    Cu3+1 0.500000 0.499980 0.359340 0.985311
H1    H     H_    0.821036 0.436209 0.332611 0.176884
H2    H     H_    0.178333 0.551074 0.670828 0.176005
H3    H     H_    0.976566 0.395521 0.234613 0.132465
H4    H     H_    0.020947 0.571521 0.779894 0.136356
H5    H     H_    0.415426 0.112800 0.293156 0.152016
H6    H     H_    0.591253 0.887182 0.703923 0.146454
H7    H     H_    0.417048 0.886907 0.291359 0.144779
H8    H     H_    0.596735 0.113260 0.699843 0.127814
H9    H     H_    0.378826 0.369475 0.118907 0.183352
H10   H     H_    0.620330 0.633509 0.882851 0.186429
N1    N     N_R   0.500030 0.500030 0.852080 -0.217311
N2    N     N_R   0.499970 0.499970 0.147920 -0.207470
O1    O     O_R   0.499990 0.319660 0.618740 -0.555178
O2    O     O_R   0.500010 0.680340 0.381260 -0.567865
O3    O     O_R   0.499990 0.319630 0.381170 -0.594637
O4    O     O_R   0.500010 0.680370 0.618830 -0.587645
O5    O     O_R   0.349000 0.499990 0.599490 -0.551405
O6    O     O_R   0.651000 0.500010 0.400510 -0.544075
O7    O     O_R   0.348990 0.499960 0.361920 -0.547192
O8    O     O_R   0.651010 0.500040 0.638080 -0.568716
O9    O     O_3   0.817694 0.569528 0.787914 -0.615919
C25   C     C_3   0.836315 0.490663 0.907449 0.036757
H11   H     H_    0.811920 0.540265 0.999572 0.177374
H12   H     H_    0.919458 0.472298 0.934216 0.116859
C26   C     C_3   0.773193 0.368769 0.889954 -0.344691
H13   H     H_    0.691120 0.387990 0.856787 0.257858
H14   H     H_    0.802932 0.311183 0.807710 0.199818
C27   C     C_3   0.776742 0.295621 0.027921 -0.954563
H15   H     H_    0.857036 0.269651 0.064347 0.263379
H16   H     H_    0.728472 0.210226 0.010867 0.262158
H17   H     H_    0.745013 0.350868 0.110421 0.262725
O10   O     O_3   0.188669 0.390737 0.230656 -0.617141
C28   C     C_3   0.136540 0.383427 0.092789 0.049522
H18   H     H_    0.194065 0.407351 0.018085 0.169333
H19   H     H_    0.075374 0.452990 0.070521 0.110525
C29   C     C_3   0.096970 0.250473 0.062750 -0.363933
H20   H     H_    0.159727 0.184835 0.094922 0.221713
H21   H     H_    0.032680 0.226809 0.126458 0.208287
C30   C     C_3   0.060751 0.231574 0.906405 -0.922894
H22   H     H_    0.995468 0.292460 0.872076 0.261126
H23   H     H_    0.034510 0.134035 0.888889 0.258290
H24   H     H_    0.124624 0.252121 0.840490 0.261819
O11   O     O_3   0.373047 0.339899 0.830509 -0.583372
C31   C     C_3   0.354300 0.223254 0.893671 0.013192
H25   H     H_    0.312508 0.164946 0.809775 0.192180
H26   H     H_    0.301245 0.231163 0.976238 0.128956
C32   C     C_3   0.453202 0.156332 0.952229 -0.380801
H27   H     H_    0.512965 0.168208 0.878661 0.232572
H28   H     H_    0.485056 0.195971 0.055143 0.206759
C33   C     C_3   0.431553 0.019152 0.975776 -0.928768
H29   H     H_    0.365875 0.005766 0.040503 0.251053
H30   H     H_    0.500949 0.978183 0.033528 0.250317
H31   H     H_    0.413567 0.971474 0.873012 0.269684
O12   O     O_3   0.639834 0.645445 0.167429 -0.586923
C34   C     C_3   0.639697 0.771880 0.127081 0.028770
H32   H     H_    0.623098 0.826793 0.219784 0.184995
H33   H     H_    0.579665 0.795569 0.039366 0.109920
C35   C     C_3   0.746380 0.810953 0.086584 -0.354783
H34   H     H_    0.805914 0.790332 0.175741 0.232055
H35   H     H_    0.764006 0.758020 0.993048 0.229774
C36   C     C_3   0.751245 0.948757 0.051461 -0.927523
H36   H     H_    0.694179 0.970736 0.959943 0.253894
H37   H     H_    0.829718 0.974752 0.023855 0.264586
H38   H     H_    0.734715 0.004004 0.143956 0.261442

loop_
_geom_bond_atom_site_label_1
_geom_bond_atom_site_label_2
_ccdc_geom_bond_type
C36   H36   S    
C11   C18   A    
C9    O7    A    
C32   H27   S    
C3    C23   A    
C19   C20   A    
C35   C36   S    
Cu1   O5    S    
C34   H32   S    
Cu2   O6    S    
C21   H5    S    
C22   H6    S    
C22   C24   A    
C13   H3    S    
C35   H35   S    
C4    C24   A    
C29   H21   S    
Cu2   O7    S    
Cu1   N1    S    
C25   C26   S    
C23   H7    S    
C12   C17   A    
C10   O8    A    
C33   H31   S    
C31   H25   S    
C13   C20   A    
C25   H12   S    
C28   H18   S    
C5    N2    A    
C32   H28   S    
C8    N2    A    
C14   H4    S    
C16   O9    S    
C34   H33   S    
C27   H16   S    
C9    O5    A    
C28   H19   S    
C10   O6    A    
C26   H13   S    
C35   H34   S    
C5    C7    A    
Cu2   N2    S    
C6    C8    A    
C30   H23   S    
O10   C28   S    
C24   H8    S    
C26   H14   S    
C29   H20   S    
C11   C16   A    
O9    C25   S    
C12   C15   A    
C30   H24   S    
C31   C32   S    
C7    N1    A    
C6    N1    A    
C33   H29   S    
C1    O3    A    
C25   H11   S    
C13   C15   A    
C15   O10   S    
C14   C16   A    
C34   C35   S    
C27   H15   S    
C28   C29   S    
C29   C30   S    
C17   H2    S    
C14   C19   A    
C18   H1    S    
C33   H30   S    
O12   C34   S    
Cu1   O4    S    
C7    O11   S    
C26   C27   S    
C1    C4    S    
C21   C23   A    
C2    C3    S    
Cu1   Cu2   S    
Cu1   O1    S    
C4    C21   A    
Cu2   O2    S    
C2    O4    A    
C5    H9    S    
C17   C19   A    
C6    H10   S    
C18   C20   A    
O11   C31   S    
C9    C12   S    
C10   C11   S    
C1    O1    A    
C2    O2    A    
C32   C33   S    
C30   H22   S    
C36   H38   S    
C8    O12   S    
C36   H37   S    
C3    C22   A    
C31   H26   S    
Cu1   O8    S    
Cu2   O3    S    
C27   H17   S    
