data_mof_unit_3443.cif
_audit_creation_date              2012-12-10T17:09:27-0500
_audit_creation_method            fapswitch 2.2
_symmetry_space_group_name_H-M    P1
_symmetry_Int_Tables_number       1
_space_group_crystal_system       triclinic
_cell_length_a                    10.53732
_cell_length_b                    10.652344
_cell_length_c                    10.092144
_cell_angle_alpha                 90.928392
_cell_angle_beta                  88.866266
_cell_angle_gamma                 90.363262
_cell_volume                      1132.42350257

loop_
_atom_site_label
_atom_site_type_symbol
_atom_type_description
_atom_site_fract_x
_atom_site_fract_y
_atom_site_fract_z
_atom_type_partial_charge
C1    C     C_R   0.503406 0.262337 0.498248 1.004575
C2    C     C_2   0.484077 0.599535 0.077000 -0.026071
C3    C     C_R   0.257976 0.504947 0.501161 1.018623
C4    C     C_R   0.513347 0.736604 0.501097 0.850432
C5    C     C_R   0.742108 0.499169 0.499082 1.007027
C6    C     C_3   0.035500 0.545629 0.619369 0.337337
C7    C     C_3   0.956597 0.426265 0.595112 0.292766
C8    C     C_3   0.876572 0.499800 0.498349 -0.292857
C9    C     C_3   0.953543 0.620377 0.523607 -0.292606
C10   C     C_3   0.041716 0.580119 0.407224 0.339939
C11   C     C_3   0.962171 0.461035 0.379715 -0.245508
C12   C     C_3   0.043810 0.388295 0.477743 0.321966
C13   C     C_3   0.123162 0.507101 0.502944 -0.388945
C14   C     C_2   0.552871 0.930940 0.394609 -0.310278
C15   C     C_2   0.562875 0.862520 0.503772 0.198386
C16   C     C_2   0.572528 0.064456 0.399651 0.487465
C17   C     C_2   0.504551 0.128787 0.491751 -0.301223
C18   C     C_2   0.507201 0.599850 0.929355 0.011975
H1    H     H_    0.004405 0.153907 0.736498 0.406785
H2    H     H_    0.929714 0.427021 0.281413 0.242252
H3    H     H_    0.031611 0.047814 0.422198 0.413857
H4    H     H_    0.512118 0.892744 0.304315 0.187694
H5    H     H_    0.745667 0.817366 0.803036 0.406018
H6    H     H_    0.845473 0.060847 0.172650 0.415693
H7    H     H_    0.441798 0.080638 0.561271 0.181335
H8    H     H_    0.529028 0.689596 0.885028 0.161477
H9    H     H_    0.285539 0.234226 0.811529 0.404639
H10   H     H_    0.454223 0.686201 0.125685 0.180754
H11   H     H_    0.554943 0.431275 0.104114 0.249398
H12   H     H_    0.982693 0.706009 0.938138 0.405043
H13   H     H_    0.913451 0.715508 0.540961 0.251500
H14   H     H_    0.910442 0.701650 0.199698 0.350395
N1    N     N_2   0.501360 0.501330 0.852150 0.045041
N2    N     N_2   0.501400 0.501360 0.147810 -0.143119
O1    O     O_R   0.499980 0.319060 0.613040 -0.536894
O2    O     O_2   0.794397 0.241839 0.664883 -0.222897
O3    O     O_3   0.013703 0.237273 0.780294 -0.459285
O4    O     O_2   0.497378 0.267716 0.940352 -0.226073
O5    O     O_2   0.319960 0.401224 0.016005 -0.208518
O6    O     O_3   0.318430 0.315996 0.779948 -0.437474
O7    O     O_2   0.129146 0.506165 0.860868 -0.150689
O8    O     O_2   0.180701 0.707860 0.757539 -0.271513
O9    O     O_3   0.951850 0.673586 0.851968 -0.515547
O10   O     O_2   0.190755 0.776016 0.342455 -0.266148
O11   O     O_2   0.159642 0.613672 0.170865 -0.214132
O12   O     O_R   0.500020 0.319100 0.386900 -0.571505
O13   O     O_3   0.973477 0.766467 0.225600 -0.490884
O14   O     O_2   0.173429 0.236294 0.309605 -0.226059
O15   O     O_2   0.200534 0.203106 0.547208 -0.333261
O16   O     O_3   0.989431 0.129033 0.441961 -0.441621
O17   O     O_2   0.764822 0.991836 0.594951 -0.200009
O18   O     O_2   0.575014 0.983778 0.739971 -0.256403
O19   O     O_3   0.715073 0.785010 0.716760 -0.550312
O20   O     O_2   0.612843 0.180704 0.169915 -0.232286
O21   O     O_2   0.757302 0.233169 0.350350 -0.281909
O22   O     O_3   0.782718 0.016868 0.229964 -0.481871
O23   O     O_R   0.313930 0.499950 0.613050 -0.546375
O24   O     O_R   0.313970 0.499990 0.386910 -0.551402
O25   O     O_R   0.499980 0.680900 0.613100 -0.583406
O26   O     O_R   0.500020 0.680940 0.386960 -0.654324
O27   O     O_R   0.686030 0.500010 0.613090 -0.571594
O28   O     O_R   0.686070 0.500050 0.386950 -0.629589
O29   O     O_2   0.839249 0.402358 0.833377 -0.199972
S1    S     S_3+6 0.895960 0.325107 0.721535 0.171214
S2    S     S_3+6 0.409709 0.371210 0.902338 0.201145
S3    S     S_3+6 0.079811 0.609081 0.776643 0.138102
S4    S     S_3+6 0.096815 0.685700 0.283058 0.086699
S5    S     S_3+6 0.107320 0.235919 0.442897 0.084599
S6    S     S_3+6 0.655969 0.911101 0.641669 0.059143
S7    S     S_3+6 0.682860 0.129547 0.285098 0.115706
Zn1   Zn    Zn3+2 0.499970 0.499970 0.650990 1.184345
Zn2   Zn    Zn3+2 0.500030 0.500030 0.349010 1.099234

loop_
_geom_bond_atom_site_label_1
_geom_bond_atom_site_label_2
_ccdc_geom_bond_type
O11   S4    D    
C5    C8    S    
C11   C12   S    
H11   N2    S    
C6    C7    S    
O18   S6    D    
O15   S5    D    
H6    O22   S    
O5    S2    D    
C9    C10   S    
C1    C17   S    
C3    C13   S    
O4    S2    D    
H9    O6    S    
O28   Zn2   S    
O19   S6    S    
C18   H8    S    
O27   Zn1   S    
C4    C15   S    
C8    C9    S    
N1    S2    S    
C7    C8    S    
C10   S4    S    
O23   Zn1   S    
C6    C13   S    
C12   S5    S    
O24   Zn2   S    
O7    S3    D    
O16   S5    S    
C6    C9    S    
O9    S3    S    
C15   S6    S    
C3    O23   A    
C4    O25   A    
O13   S4    S    
H3    O16   S    
C18   N1    D    
C5    O28   A    
H5    O19   S    
O22   S7    S    
O6    S2    S    
C8    C11   S    
O26   Zn2   S    
C7    C12   S    
H12   O9    S    
H14   O13   S    
C14   C16   S    
C1    O12   A    
O21   S7    D    
C2    C18   S    
C10   C11   S    
C9    H13   S    
O1    Zn1   S    
O29   S1    D    
C3    O24   A    
N2    Zn2   S    
C6    S3    S    
O3    S1    S    
C16   S7    S    
C12   C13   S    
C1    O1    A    
C14   H4    S    
O8    S3    D    
N1    Zn1   S    
C14   C15   D    
C16   C17   D    
O10   S4    D    
C2    H10   S    
C7    S1    S    
H1    O3    S    
O17   S6    D    
C2    N2    D    
O2    S1    D    
O12   Zn2   S    
C11   H2    S    
O14   S5    D    
C5    O27   A    
O25   Zn1   S    
C17   H7    S    
C4    O26   A    
C10   C13   S    
O20   S7    D    
