data_mof_unit_3671.cif
_audit_creation_date              2012-12-10T19:16:14-0500
_audit_creation_method            fapswitch 2.2
_symmetry_space_group_name_H-M    P1
_symmetry_Int_Tables_number       1
_space_group_crystal_system       triclinic
_cell_length_a                    10.62632
_cell_length_b                    9.678473
_cell_length_c                    27.704557
_cell_angle_alpha                 89.979216
_cell_angle_beta                  89.472304
_cell_angle_gamma                 89.911913
_cell_volume                      2849.19375447

loop_
_atom_site_label
_atom_site_type_symbol
_atom_type_description
_atom_site_fract_x
_atom_site_fract_y
_atom_site_fract_z
_atom_type_partial_charge
C1    C     C_R   0.257671 0.500362 0.500587 0.870410
C2    C     C_R   0.441312 0.412991 0.274899 -0.102950
C3    C     C_R   0.518812 0.512145 0.253103 0.264749
C4    C     C_R   0.530550 0.541773 0.101920 -0.058608
C5    C     C_R   0.417202 0.564604 0.127566 -0.020696
C6    C     C_R   0.306098 0.591032 0.102750 -0.105084
C7    C     C_R   0.643255 0.517019 0.127458 -0.094389
C8    C     C_R   0.497691 0.501683 0.353450 -0.084587
C9    C     C_R   0.508177 0.500988 0.646646 -0.038240
C10   C     C_R   0.417971 0.573480 0.974641 0.047452
C11   C     C_R   0.639516 0.496603 0.974309 0.055425
C12   C     C_R   0.495820 0.500047 0.406052 0.868624
C13   C     C_R   0.527995 0.531130 0.949245 0.072996
C14   C     C_R   0.312203 0.616425 0.947828 -0.212297
C15   C     C_R   0.312336 0.610313 0.897855 -0.135418
C16   C     C_R   0.417985 0.562133 0.872757 -0.021285
C17   C     C_R   0.526360 0.522898 0.898230 -0.053755
C18   C     C_R   0.632959 0.475201 0.872596 -0.020173
C19   C     C_R   0.629227 0.468214 0.822169 0.503649
C20   C     C_R   0.418328 0.553495 0.822411 0.504405
C21   C     C_R   0.516229 0.378327 0.722670 -0.099324
C22   C     C_R   0.509368 0.376304 0.672578 -0.235328
C23   C     C_R   0.742402 0.500089 0.500226 0.869632
C24   C     C_R   0.515876 0.627312 0.671337 -0.229374
C25   C     C_R   0.522836 0.628949 0.721299 -0.106761
C26   C     C_R   0.522167 0.504691 0.746976 0.322145
C27   C     C_R   0.416985 0.570881 0.025755 0.041074
C28   C     C_R   0.530269 0.542051 0.050780 0.077571
C29   C     C_R   0.642696 0.511532 0.025139 0.030316
C30   C     C_R   0.305612 0.593692 0.052847 -0.197306
C31   C     C_R   0.758119 0.505892 0.101399 -0.000629
C32   C     C_R   0.743626 0.445180 0.947622 -0.214162
C33   C     C_R   0.740330 0.435274 0.897694 -0.136834
C34   C     C_R   0.501354 0.500071 0.594048 0.875690
C35   C     C_R   0.755833 0.500438 0.051065 -0.263049
C36   C     C_3   0.072373 0.423799 0.546333 -0.431928
C37   C     C_3   0.075302 0.430997 0.453832 -0.434528
C38   C     C_3   0.927778 0.412384 0.544449 -0.029274
C39   C     C_3   0.930221 0.426902 0.453528 -0.029914
C40   C     C_3   0.071849 0.651615 0.502388 -0.414477
C41   C     C_3   0.121581 0.501124 0.500805 0.120443
C42   C     C_3   0.878354 0.500050 0.500471 0.147049
C43   C     C_3   0.929475 0.651222 0.503461 -0.366858
C44   C     C_3   0.373774 0.081551 0.487297 -0.233251
C45   C     C_3   0.373781 0.918883 0.487303 -0.231915
C46   C     C_3   0.590021 0.081334 0.462763 -0.231448
C47   C     C_3   0.590086 0.918465 0.462785 -0.235354
C48   C     C_3   0.535708 0.081160 0.546639 -0.230119
C49   C     C_3   0.535672 0.918624 0.546644 -0.231175
C50   C     C_R   0.416684 0.558298 0.177818 0.514688
C51   C     C_R   0.635023 0.500282 0.178010 0.538416
C52   C     C_R   0.585281 0.605896 0.281203 -0.101377
C53   C     C_R   0.575135 0.600362 0.330991 -0.269378
C54   C     C_R   0.425671 0.409191 0.325122 0.140958
H1    H     H_    0.643980 0.683900 0.264344 0.160709
H2    H     H_    0.828087 0.407532 0.964447 0.153353
H3    H     H_    0.516312 0.724829 0.652160 0.148916
H4    H     H_    0.822549 0.395639 0.878841 0.192955
H5    H     H_    0.527695 0.726674 0.740215 0.137782
H6    H     H_    0.845628 0.495280 0.032652 0.158411
H7    H     H_    0.102854 0.479545 0.579309 0.184741
H8    H     H_    0.113385 0.487458 0.422008 0.184032
H9    H     H_    0.113754 0.318143 0.548259 0.152194
H10   H     H_    0.112574 0.323544 0.451356 0.151736
H11   H     H_    0.908575 0.301910 0.535812 0.108887
H12   H     H_    0.904826 0.315479 0.456742 0.103129
H13   H     H_    0.389902 0.341830 0.252267 0.152167
H14   H     H_    0.106905 0.705944 0.535064 0.170129
H15   H     H_    0.105465 0.710402 0.470191 0.172639
H16   H     H_    0.896323 0.705049 0.536305 0.174765
H17   H     H_    0.894663 0.717112 0.473938 0.176339
H18   H     H_    0.343317 0.120433 0.451458 0.138546
H19   H     H_    0.343291 0.880062 0.451476 0.146894
H20   H     H_    0.302987 0.119342 0.514030 0.144993
H21   H     H_    0.303059 0.881341 0.514064 0.142877
H22   H     H_    0.565899 0.119550 0.426131 0.152782
H23   H     H_    0.566184 0.880269 0.426151 0.150621
H24   H     H_    0.630425 0.119922 0.556727 0.139057
H25   H     H_    0.630353 0.879466 0.556758 0.139773
H26   H     H_    0.469123 0.118830 0.574920 0.146695
H27   H     H_    0.469015 0.881197 0.574910 0.146578
H28   H     H_    0.686499 0.119619 0.470301 0.139556
H29   H     H_    0.686570 0.880015 0.470381 0.137978
H30   H     H_    0.217887 0.607635 0.121828 0.196520
H31   H     H_    0.504383 0.277644 0.654273 0.147534
H32   H     H_    0.515416 0.282176 0.742669 0.139224
H33   H     H_    0.228806 0.643714 0.878953 0.191699
H34   H     H_    0.228164 0.658162 0.964255 0.144621
H35   H     H_    0.214969 0.609464 0.036676 0.149928
H36   H     H_    0.628163 0.673746 0.352106 0.161047
N1    N     N_R   0.523733 0.523528 0.201742 -0.351820
N2    N     N_R   0.523113 0.507692 0.798371 -0.357318
N3    N     N_3   0.499750 0.138610 0.498940 -0.031512
N4    N     N_3   0.499750 0.861390 0.498940 -0.031530
O1    O     O_R   0.314910 0.616040 0.499990 -0.634648
O2    O     O_R   0.314910 0.383960 0.499990 -0.637537
O3    O     O_R   0.500140 0.616020 0.428740 -0.618928
O4    O     O_R   0.500140 0.383980 0.428740 -0.636574
O5    O     O_R   0.685320 0.616040 0.499970 -0.632845
O6    O     O_R   0.685320 0.383960 0.499970 -0.652039
O7    O     O_R   0.500090 0.616050 0.571230 -0.630917
O8    O     O_R   0.500090 0.383950 0.571230 -0.633647
O9    O     O_2   0.309747 0.585778 0.202772 -0.566184
O10   O     O_2   0.314771 0.590038 0.797542 -0.557742
O11   O     O_2   0.735001 0.455464 0.203268 -0.530200
O12   O     O_2   0.730937 0.423915 0.797023 -0.561741
Zn1   Zn    Zn3+2 0.500150 0.654960 0.499980 0.903054
Zn2   Zn    Zn3+2 0.500150 0.345040 0.499980 0.894019
C55   C     C_3   0.327719 0.311163 0.346035 -0.463149
C56   C     C_3   0.195601 0.346234 0.328289 -0.829532
H37   H     H_    0.172857 0.456112 0.336058 0.267368
H38   H     H_    0.187651 0.327618 0.288911 0.280888
H39   H     H_    0.125604 0.279805 0.347137 0.236451
H40   H     H_    0.351846 0.203545 0.335437 0.210523
H41   H     H_    0.322947 0.314014 0.385854 0.223397
C57   C     C_2   0.883503 0.510233 0.124566 0.983884
O13   O     O_2   0.966337 0.430286 0.111523 -0.635038
O14   O     O_R   0.908778 0.610228 0.159585 -0.764389
H42   H     H_    0.997860 0.603756 0.172201 0.357621
C58   C     C_3   0.862336 0.428254 0.594717 -0.396744
C59   C     C_3   0.857683 0.573142 0.616458 -0.836292
H43   H     H_    0.831897 0.565353 0.655305 0.266463
H44   H     H_    0.950290 0.625366 0.613666 0.255482
H45   H     H_    0.783270 0.635600 0.598965 0.243369
H46   H     H_    0.764498 0.388513 0.592771 0.206610
H47   H     H_    0.911820 0.359691 0.620618 0.216215
C60   C     C_3   0.872571 0.465947 0.403838 -0.373714
C61   C     C_3   0.888189 0.615367 0.386898 -0.854215
H48   H     H_    0.813922 0.681621 0.403161 0.236881
H49   H     H_    0.982673 0.656913 0.395121 0.256167
H50   H     H_    0.875727 0.619888 0.347171 0.261266
H51   H     H_    0.916596 0.398015 0.376041 0.212730
H52   H     H_    0.770718 0.440312 0.403914 0.201613

loop_
_geom_bond_atom_site_label_1
_geom_bond_atom_site_label_2
_ccdc_geom_bond_type
C10   C27   A    
O7    Zn1   S    
C23   O5    A    
C21   C26   A    
C33   H4    S    
C1    O1    A    
C61   H48   S    
C46   H22   S    
C37   H8    S    
C60   H51   S    
C20   N2    A    
C34   O8    A    
C23   C42   S    
C45   H19   S    
C28   C29   A    
C38   C42   S    
C30   H35   S    
N3    Zn2   S    
C5    C6    A    
C58   H47   S    
C9    C22   A    
C26   N2    S    
C15   C16   A    
O4    Zn2   S    
C57   O13   D    
C3    N1    S    
C18   C19   A    
C22   H31   S    
C49   H27   S    
O14   H42   S    
C59   H45   S    
C19   N2    A    
C51   N1    A    
C46   H28   S    
C40   C43   S    
C24   H3    S    
O8    Zn2   S    
C44   N3    S    
C47   H29   S    
C49   N4    S    
C36   H9    S    
C12   O4    A    
C52   H1    S    
C8    C12   S    
C38   C58   S    
C23   O6    A    
O2    Zn2   S    
C50   O9    S    
C21   C22   A    
C27   C30   A    
C36   C41   S    
C4    C7    A    
C45   N4    S    
C4    C28   A    
C39   C42   S    
N4    Zn1   S    
O6    Zn2   S    
C34   O7    A    
C7    C31   A    
C48   N3    S    
C6    H30   S    
C24   C25   A    
C2    H13   S    
C40   H15   S    
C8    C54   A    
C56   H37   S    
C58   H46   S    
C16   C17   A    
C25   C26   A    
C49   H25   S    
C54   C55   S    
C35   H6    S    
C39   C60   S    
C38   H11   S    
C16   C20   A    
C17   C18   A    
C59   H43   S    
C52   C53   A    
C44   H20   S    
C56   H39   S    
C12   O3    A    
O1    Zn1   S    
C55   H40   S    
C1    C41   S    
C48   C49   S    
C6    C30   A    
C11   C32   A    
C43   H16   S    
C2    C54   A    
C9    C34   S    
C39   H12   S    
C31   C35   A    
C5    C50   A    
C42   C43   S    
C47   H23   S    
C36   H7    S    
C61   H50   S    
C48   H24   S    
C31   C57   S    
C53   H36   S    
C37   H10   S    
C58   C59   S    
C15   H33   S    
C46   C47   S    
C40   C41   S    
C43   H17   S    
C44   C45   S    
C60   H52   S    
C4    C5    A    
C10   C13   A    
C61   H49   S    
C8    C53   A    
C21   H32   S    
C3    C52   A    
C9    C24   A    
C20   O10   S    
O5    Zn1   S    
C29   C35   A    
C13   C17   A    
C45   H21   S    
C32   C33   A    
C48   H26   S    
C36   C38   S    
C2    C3    A    
C14   H34   S    
C37   C39   S    
C55   C56   S    
C11   C13   A    
C46   N3    S    
C1    O2    A    
C47   N4    S    
C57   O14   S    
C44   H18   S    
C37   C41   S    
C18   C33   A    
C56   H38   S    
C51   O11   S    
C59   H44   S    
C55   H41   S    
C7    C51   A    
O3    Zn1   S    
C19   O12   S    
C50   N1    A    
C11   C29   A    
C40   H14   S    
C27   C28   A    
C14   C15   A    
C25   H5    S    
C32   H2    S    
C60   C61   S    
C10   C14   A    
