data_mof_unit_2397.cif
_audit_creation_date              2012-12-11T16:06:24-0500
_audit_creation_method            fapswitch 2.2
_symmetry_space_group_name_H-M    P1
_symmetry_Int_Tables_number       1
_space_group_crystal_system       triclinic
_cell_length_a                    8.217682
_cell_length_b                    12.623822
_cell_length_c                    17.383544
_cell_angle_alpha                 94.756064
_cell_angle_beta                  95.994776
_cell_angle_gamma                 97.832234
_cell_volume                      1768.09341371

loop_
_atom_site_label
_atom_site_type_symbol
_atom_type_description
_atom_site_fract_x
_atom_site_fract_y
_atom_site_fract_z
_atom_type_partial_charge
Ba1   Ba    Ba6+2 0.158660 0.552610 0.463110 1.655996
Ba2   Ba    Ba6+2 0.651510 0.447380 0.536830 1.638945
C1    C     C_3   0.398091 0.814948 0.173779 -0.269090
C2    C     C_3   0.478315 0.849180 0.256989 0.692012
C3    C     C_3   0.563721 0.775081 0.643537 0.276047
C4    C     C_3   0.567239 0.895712 0.656759 -0.334377
C5    C     C_3   0.891743 0.154914 0.714996 0.342022
C6    C     C_3   0.951574 0.068117 0.761735 -0.408675
C7    C     C_3   0.401773 0.212526 0.750159 0.359588
C8    C     C_3   0.434395 0.181895 0.832524 -0.355570
C9    C     C_R   0.077695 0.184530 0.530784 -0.285169
C10   C     C_R   0.730498 0.816185 0.471272 -0.283939
C11   C     C_R   0.698303 0.997299 0.443670 -0.045097
C12   C     C_3   0.889340 0.824949 0.216805 0.308501
C13   C     C_R   0.634801 0.888217 0.439560 -0.016626
C14   C     C_R   0.885742 0.851190 0.512561 0.072967
C15   C     C_R   0.948925 0.963753 0.521417 -0.059065
C16   C     C_R   0.854706 0.037851 0.484967 -0.063182
C17   C     C_R   0.921158 0.149814 0.490654 0.046895
C18   C     C_R   0.171982 0.112749 0.564030 -0.012206
C19   C     C_R   0.105990 0.004183 0.562383 -0.111603
C20   C     C_R   0.597324 0.548485 0.280482 -0.271528
C21   C     C_R   0.441041 0.490528 0.256511 0.094258
C22   C     C_R   0.379380 0.477589 0.177158 -0.112495
C23   C     C_3   0.950672 0.907761 0.163332 0.217092
C24   C     C_R   0.476670 0.520136 0.121933 -0.004841
C25   C     C_R   0.638003 0.572491 0.146468 -0.138807
C26   C     C_R   0.698215 0.585932 0.225763 -0.028091
C27   C     C_R   0.413207 0.525607 0.836054 -0.112513
C28   C     C_R   0.358464 0.514807 0.756196 0.033673
C29   C     C_R   0.097058 0.417117 0.780119 0.012426
C30   C     C_R   0.150796 0.426970 0.860141 -0.133766
C31   C     C_R   0.310366 0.480393 0.888369 0.001036
C32   C     C_1   0.366319 0.493267 0.971003 -0.001547
C33   C     C_1   0.415303 0.505075 0.039865 0.000605
C34   C     C_3   0.748161 0.316466 0.304715 0.295244
C35   C     C_R   0.203698 0.457130 0.728624 -0.282550
C36   C     C_3   0.703767 0.286404 0.217780 -0.375165
C37   C     C_3   0.056768 0.683216 0.695805 0.307024
C38   C     C_3   0.094503 0.713316 0.783057 -0.398387
C39   C     C_3   0.231890 0.217964 0.352841 0.255136
C40   C     C_3   0.240138 0.100477 0.325586 -0.118159
H1    H     H_    0.548844 0.783841 0.274272 -0.078293
H2    H     H_    0.590380 0.225819 0.206800 0.132682
H3    H     H_    0.681203 0.358295 0.188222 0.063504
H4    H     H_    0.807034 0.252402 0.193060 0.133788
H5    H     H_    0.164203 0.653035 0.673263 0.010113
H6    H     H_    0.947786 0.619543 0.684804 0.071042
H7    H     H_    0.210110 0.771734 0.795927 0.133736
H8    H     H_    0.109794 0.641167 0.813569 0.065041
H9    H     H_    0.991009 0.750018 0.805315 0.125548
H10   H     H_    0.101912 0.232225 0.352471 0.021393
H11   H     H_    0.299350 0.238376 0.412249 0.030602
H12   H     H_    0.314843 0.737398 0.171643 0.101539
H13   H     H_    0.228104 0.089379 0.261137 0.122034
H14   H     H_    0.363058 0.080305 0.347140 0.113991
H15   H     H_    0.494306 0.804292 0.134659 0.086457
H16   H     H_    0.690425 0.757942 0.636730 0.013075
H17   H     H_    0.480265 0.746457 0.589175 0.062598
H18   H     H_    0.641377 0.927155 0.712813 0.122546
H19   H     H_    0.622583 0.935456 0.609147 0.067144
H20   H     H_    0.439492 0.914346 0.658468 0.138992
H21   H     H_    0.325114 0.876618 0.152477 0.086082
H22   H     H_    0.791420 0.117520 0.669138 0.080055
H23   H     H_    0.997149 0.190994 0.686000 -0.050329
H24   H     H_    0.988408 0.004114 0.722261 0.093653
H25   H     H_    0.059592 0.103569 0.804064 0.114146
H26   H     H_    0.852455 0.032418 0.794511 0.133906
H27   H     H_    0.268723 0.219948 0.738520 -0.074715
H28   H     H_    0.477233 0.291483 0.746479 0.090098
H29   H     H_    0.396472 0.242824 0.874186 0.070500
H30   H     H_    0.568089 0.178116 0.847219 0.156981
H31   H     H_    0.872305 0.865540 0.273948 0.065187
H32   H     H_    0.362861 0.102181 0.837917 0.112307
H33   H     H_    0.622563 0.049148 0.415324 0.107678
H34   H     H_    0.181498 0.952052 0.590669 0.104608
H35   H     H_    0.130392 0.268228 0.532997 0.072152
H36   H     H_    0.679857 0.731894 0.466969 0.062690
H37   H     H_    0.533173 0.571147 0.857404 0.077160
H38   H     H_    0.717621 0.600488 0.104178 0.070197
H39   H     H_    0.068122 0.395197 0.900024 0.079351
H40   H     H_    0.258542 0.431595 0.158338 0.088842
H41   H     H_    0.646035 0.556232 0.341287 0.063914
H42   H     H_    0.768888 0.782625 0.187874 -0.028704
H43   H     H_    0.161561 0.449964 0.667057 0.062482
H44   H     H_    0.076931 0.948040 0.186259 0.051588
H45   H     H_    0.958335 0.865991 0.105293 0.072177
H46   H     H_    0.642324 0.346592 0.329010 0.017440
H47   H     H_    0.857005 0.380407 0.314080 0.070922
O1    O     O_2   0.163080 0.763400 0.536930 -0.460580
O2    O     O_3   0.306097 0.278029 0.298955 -0.654851
O3    O     O_3   0.007576 0.755539 0.227794 -0.598615
O4    O     O_2   0.647210 0.236530 0.463040 -0.461029
O5    O     O_3   0.916960 0.371010 0.461280 -0.496721
O6    O     O_3   0.430470 0.302400 0.600330 -0.477312
O7    O     O_3   0.784017 0.224791 0.339102 -0.640781
O8    O     O_3   0.388290 0.554800 0.590630 -0.478940
O9    O     O_3   0.856660 0.356630 0.638500 -0.477038
O10   O     O_2   0.757685 0.424174 0.773699 -0.491173
O11   O     O_3   0.828712 0.228839 0.764936 -0.590000
O12   O     O_3   0.893330 0.628980 0.538660 -0.495193
O13   O     O_3   0.422000 0.445190 0.409310 -0.485375
O14   O     O_2   0.648720 0.552000 0.685060 -0.459796
O15   O     O_3   0.507801 0.727982 0.708160 -0.640513
O16   O     O_2   0.508534 0.112776 0.553627 -0.490863
O17   O     O_3   0.445612 0.133383 0.697722 -0.598858
O18   O     O_3   0.379830 0.697590 0.399610 -0.472907
O19   O     O_2   0.298507 0.884438 0.449778 -0.471637
O20   O     O_3   0.025001 0.775094 0.660845 -0.646849
O21   O     O_3   0.354043 0.864704 0.305016 -0.576193
O22   O     O_2   0.161570 0.447940 0.314920 -0.461249
O23   O     O_3   0.953630 0.643360 0.361440 -0.460505
O24   O     O_2   0.018997 0.553018 0.226624 -0.475722
P1    P     P_3+3 0.990420 0.746550 0.559720 0.975619
P2    P     P_3+3 0.330880 0.415450 0.326700 0.989433
P3    P     P_3+3 0.916498 0.635980 0.259693 0.965612
P4    P     P_3+3 0.819870 0.253440 0.440220 0.969628
P5    P     P_3+3 0.884861 0.359124 0.740029 0.961211
P6    P     P_3+3 0.419378 0.836770 0.399245 1.001935
P7    P     P_3+3 0.474219 0.588231 0.687392 0.947256
P8    P     P_3+3 0.388251 0.163517 0.603115 0.952778
N1    N     N_3   0.110782 0.026361 0.351728 -0.482209
H48   H     H_    0.133289 0.030993 0.411804 0.197038
H49   H     H_    0.995977 0.050748 0.336947 0.163083
O25   O     O_3   0.588965 0.944814 0.259572 -0.765783
H50   H     H_    0.522766 0.002443 0.246585 0.305187
O26   O     O_3   0.841345 0.983111 0.154438 -0.714951
H51   H     H_    0.869741 0.037600 0.200119 0.321947

loop_
_geom_bond_atom_site_label_1
_geom_bond_atom_site_label_2
_ccdc_geom_bond_type
C34   H47   S    
C6    H24   S    
Ba1   O1    S    
Ba1   O12   S    
C39   C40   S    
O14   P7    D    
C12   H42   S    
C5    C6    S    
C34   H46   S    
Ba2   O9    S    
C30   H39   S    
C19   H34   S    
C9    C17   A    
C24   C25   A    
C3    H16   S    
C4    H19   S    
C35   H43   S    
Ba2   O6    S    
C22   C24   A    
C32   C33   T    
Ba1   O23   S    
C3    C4    S    
C1    H12   S    
Ba2   O13   S    
C38   H7    S    
O2    P2    S    
C27   C31   A    
C23   H45   S    
Ba1   Ba2   S    
C22   H40   S    
C36   H3    S    
O13   P2    S    
C26   P3    S    
C40   H14   S    
C11   H33   S    
Ba2   O8    S    
C13   P6    S    
C14   C15   A    
C10   H36   S    
C21   C22   A    
C9    H35   S    
C7    C8    S    
C39   H10   S    
O24   P3    D    
C8    H29   S    
O6    P8    S    
C3    O15   S    
C20   C26   A    
O12   P1    S    
O19   P6    D    
O4    P4    D    
C10   C14   A    
O18   P6    S    
Ba2   P4    S    
O9    P5    S    
C9    C18   A    
C5    O11   S    
C3    H17   S    
C12   H31   S    
C4    H18   S    
O7    P4    S    
Ba2   O5    S    
C7    H28   S    
C2    O25   S    
C25   H38   S    
Ba1   O8    S    
C37   C38   S    
C16   C17   A    
Ba2   O12   S    
C7    O17   S    
C15   C19   A    
C29   C35   A    
C28   C35   A    
C29   P5    S    
C36   H2    S    
C27   C28   A    
C40   H13   S    
C5    H23   S    
C34   O7    S    
C29   C30   A    
C27   H37   S    
C10   C13   A    
C12   O3    S    
C15   C16   A    
O16   P8    D    
O3    P3    S    
C39   H11   S    
C18   P8    S    
O20   P1    S    
Ba1   O18   S    
C11   C16   A    
C39   O2    S    
C6    H26   S    
C11   C13   A    
O25   H50   S    
O11   P5    S    
Ba1   P1    S    
N1    H49   S    
O26   H51   S    
C1    H15   S    
O23   P3    S    
C40   N1    S    
C37   H5    S    
C2    O21   S    
Ba2   O4    S    
C7    H27   S    
C14   P1    S    
O21   P6    S    
Ba1   O5    S    
C2    H1    S    
C1    H21   S    
C38   H9    S    
C20   H41   S    
C4    H20   S    
O8    P7    S    
C34   C36   S    
C23   O26   S    
Ba1   O22   S    
O10   P5    D    
C8    H32   S    
C28   P7    S    
Ba2   O14   S    
C38   H8    S    
O17   P8    S    
C23   H44   S    
O5    P4    S    
C31   C32   S    
O1    P1    D    
C12   C23   S    
C30   C31   A    
C5    H22   S    
C36   H4    S    
C21   P2    S    
C24   C33   S    
C37   O20   S    
C18   C19   A    
C17   P4    S    
C6    H25   S    
C25   C26   A    
C20   C21   A    
O22   P2    D    
Ba1   P2    S    
N1    H48   S    
Ba1   O13   S    
C1    C2    S    
C37   H6    S    
O15   P7    S    
C8    H30   S    
