data_mof_unit_4852.cif
_audit_creation_date              2012-12-10T17:30:21-0500
_audit_creation_method            fapswitch 2.2
_symmetry_space_group_name_H-M    P1
_symmetry_Int_Tables_number       1
_space_group_crystal_system       triclinic
_cell_length_a                    11.982725
_cell_length_b                    12.877123
_cell_length_c                    14.868798
_cell_angle_alpha                 89.877319
_cell_angle_beta                  87.190998
_cell_angle_gamma                 93.01857
_cell_volume                      2288.33865857

loop_
_atom_site_label
_atom_site_type_symbol
_atom_type_description
_atom_site_fract_x
_atom_site_fract_y
_atom_site_fract_z
_atom_type_partial_charge
C1    C     C_R   0.521813 0.700405 0.498631 0.894952
C2    C     C_R   0.478190 0.299617 0.502212 0.947355
C3    C     C_R   0.600669 0.679472 0.953176 0.443438
C4    C     C_R   0.317744 0.391705 0.052006 0.472724
C5    C     C_R   0.465108 0.188386 0.502820 -0.077349
C6    C     C_R   0.534797 0.811647 0.499107 -0.059350
C7    C     C_R   0.647440 0.969193 0.518868 -0.159735
C8    C     C_R   0.352416 0.030817 0.483512 -0.169640
C9    C     C_R   0.638770 0.861831 0.513875 -0.128489
C10   C     C_R   0.361092 0.138150 0.488333 -0.129674
C11   C     C_R   0.440057 0.867944 0.487841 -0.246843
C12   C     C_R   0.559831 0.132146 0.514328 -0.258337
C13   C     C_R   0.447716 0.974549 0.493280 0.167640
C14   C     C_R   0.552157 0.025508 0.509084 0.168163
C15   C     C_R   0.950357 0.382948 0.437027 0.082336
C16   C     C_R   0.049846 0.617503 0.562104 0.088470
C17   C     C_R   0.835016 0.396967 0.441047 -0.016752
C18   C     C_R   0.164959 0.602822 0.559160 -0.017182
C19   C     C_R   0.860382 0.553950 0.521961 0.063470
C20   C     C_R   0.140031 0.447006 0.476394 0.008901
C21   C     C_R   0.977303 0.543860 0.521044 -0.017956
C22   C     C_R   0.022993 0.456773 0.477747 -0.013157
C23   C     C_R   0.501507 0.501581 0.673746 0.927865
C24   C     C_R   0.498633 0.499270 0.326962 0.987482
C25   C     C_R   0.428047 0.427033 0.187211 0.418909
C26   C     C_R   0.578844 0.570414 0.816358 0.343104
C27   C     C_R   0.494066 0.502329 0.231478 -0.168472
C28   C     C_R   0.501967 0.505021 0.770701 -0.198108
C29   C     C_R   0.547477 0.587197 0.186534 -0.273401
C30   C     C_R   0.413751 0.449967 0.817454 -0.233788
C31   C     C_R   0.541779 0.594942 0.094302 0.107871
C32   C     C_R   0.404634 0.453860 0.910207 0.070863
C33   C     C_R   0.472606 0.522656 0.049126 -0.008652
C34   C     C_R   0.475504 0.524151 0.955443 -0.000132
C35   C     C_R   0.404195 0.446133 0.097246 -0.144914
C36   C     C_R   0.552440 0.593190 0.907165 -0.113300
C37   C     C_R   0.599631 0.676478 0.046955 -0.254480
C38   C     C_R   0.322124 0.392678 0.958112 -0.219173
H1    H     H_    0.596132 0.644996 0.223239 0.160716
H2    H     H_    0.355328 0.400074 0.781521 0.175160
H3    H     H_    0.641282 0.739174 0.083083 0.164193
H4    H     H_    0.259352 0.347808 0.922434 0.197965
H5    H     H_    0.640136 0.171205 0.526435 0.172090
H6    H     H_    0.359769 0.828973 0.475518 0.167970
H7    H     H_    0.287497 0.181639 0.479084 0.192110
H8    H     H_    0.712368 0.818288 0.522981 0.186481
H9    H     H_    0.727823 0.007955 0.530846 0.164296
H10   H     H_    0.272033 0.992041 0.471559 0.165077
H11   H     H_    0.178409 0.382774 0.442704 0.189420
H12   H     H_    0.822514 0.619294 0.553967 0.194093
H13   H     H_    0.220983 0.659289 0.589980 0.163244
H14   H     H_    0.778911 0.340113 0.410786 0.171701
N1    N     N_R   0.207800 0.519350 0.516680 -0.131027
N2    N     N_R   0.792200 0.480650 0.483320 -0.128826
O1    O     O_R   0.421700 0.658830 0.504450 -0.638590
O2    O     O_R   0.578300 0.341170 0.495550 -0.626867
O3    O     O_R   0.609310 0.646410 0.493750 -0.631234
O4    O     O_R   0.390690 0.353590 0.506250 -0.625116
O5    O     O_R   0.406180 0.506230 0.637500 -0.625801
O6    O     O_R   0.593820 0.493770 0.362500 -0.600962
O7    O     O_R   0.593800 0.493820 0.626800 -0.544586
O8    O     O_R   0.406200 0.506180 0.373200 -0.600640
Zn1   Zn    Zn3+2 0.374730 0.508290 0.507150 0.992398
Zn2   Zn    Zn3+2 0.625270 0.491710 0.492850 1.021448
S1    S     S_3+6 0.412379 0.299237 0.234278 0.064285
O9    O     O_2   0.311191 0.289801 0.298085 -0.253095
O10   O     O_2   0.402246 0.219439 0.161112 -0.246643
O11   O     O_3   0.526317 0.275707 0.291247 -0.590152
H15   H     H_    0.519085 0.200422 0.305565 0.381083
S2    S     S_3+6 0.717961 0.596292 0.770198 0.084354
O12   O     O_2   0.717180 0.678791 0.698725 -0.241173
O13   O     O_2   0.796433 0.631344 0.841150 -0.225519
O14   O     O_3   0.767698 0.487697 0.724230 -0.530215
H16   H     H_    0.759477 0.435064 0.773109 0.354629
I1    I     I_    0.006030 0.248050 0.370194 -0.225000
I2    I     I_    0.994763 0.753067 0.628117 -0.201432
S3    S     S_3+6 0.631704 0.802290 0.900664 0.106416
O15   O     O_2   0.755951 0.826215 0.892940 -0.212840
O16   O     O_2   0.585260 0.805236 0.808701 -0.223583
O17   O     O_3   0.572438 0.894698 0.963907 -0.508042
H17   H     H_    0.627300 0.913968 0.009529 0.363099
S4    S     S_3+6 0.188879 0.348500 0.107048 0.093918
O18   O     O_2   0.185353 0.232953 0.122120 -0.189711
O19   O     O_2   0.172501 0.403324 0.195487 -0.264557
O20   O     O_3   0.083954 0.376019 0.041250 -0.542569
H18   H     H_    0.014762 0.351684 0.075915 0.397379

loop_
_geom_bond_atom_site_label_1
_geom_bond_atom_site_label_2
_ccdc_geom_bond_type
C15   I1    S    
C8    C13   A    
C27   C29   A    
N1    Zn1   S    
O14   H16   S    
C24   C27   S    
C6    C9    A    
C15   C22   A    
S3    O15   D    
C23   O5    A    
O8    Zn1   S    
C19   C21   A    
C38   H4    S    
C12   H5    S    
C7    C9    A    
C18   N1    A    
C7    C14   A    
O11   H15   S    
S1    O10   D    
O1    Zn1   S    
C31   C33   A    
S2    O12   D    
C32   C38   A    
C4    C35   A    
C9    H8    S    
C21   C22   A    
S2    O14   S    
C17   H14   S    
C18   H13   S    
S3    O16   D    
C1    C6    S    
C25   S1    S    
C5    C12   A    
C6    C11   A    
C20   N1    A    
O20   H18   S    
C31   C37   A    
C32   C34   A    
O7    Zn2   S    
C8    H10   S    
C20   H11   S    
C1    O3    A    
C24   O6    A    
S1    O11   S    
C29   H1    S    
C10   H7    S    
O2    Zn2   S    
C33   C34   A    
C30   H2    S    
C11   H6    S    
C23   C28   S    
C25   C35   A    
C19   N2    A    
C26   C36   A    
C12   C14   A    
S1    O9    D    
S4    O19   D    
C26   S2    S    
C13   C14   A    
C2    C5    S    
C3    S3    S    
O3    Zn2   S    
S3    O17   S    
O4    Zn1   S    
C15   C17   A    
C24   O8    A    
C16   I2    S    
O5    Zn1   S    
C8    C10   A    
C20   C22   A    
O17   H17   S    
C2    O4    A    
C16   C21   A    
C25   C27   A    
S4    O20   S    
C26   C28   A    
O6    Zn2   S    
C28   C30   A    
C1    O1    A    
C5    C10   A    
C29   C31   A    
C2    O2    A    
C30   C32   A    
C11   C13   A    
C19   H12   S    
N2    Zn2   S    
C3    C36   A    
C33   C35   A    
C34   C36   A    
C37   H3    S    
C23   O7    A    
C4    S4    S    
C3    C37   A    
C16   C18   A    
S4    O18   D    
S2    O13   D    
C4    C38   A    
C17   N2    A    
C7    H9    S    
