data_mof_unit_2231.cif
_audit_creation_date              2012-12-10T17:39:20-0500
_audit_creation_method            fapswitch 2.2
_symmetry_space_group_name_H-M    P1
_symmetry_Int_Tables_number       1
_space_group_crystal_system       triclinic
_cell_length_a                    12.345856
_cell_length_b                    13.172839
_cell_length_c                    27.794092
_cell_angle_alpha                 77.672377
_cell_angle_beta                  101.291972
_cell_angle_gamma                 116.588034
_cell_volume                      3922.84915327

loop_
_atom_site_label
_atom_site_type_symbol
_atom_type_description
_atom_site_fract_x
_atom_site_fract_y
_atom_site_fract_z
_atom_type_partial_charge
C1    C     C_R   0.854896 0.286541 0.504265 0.757231
C2    C     C_R   0.900582 0.508601 0.711195 0.680257
C3    C     C_R   0.994219 0.496647 0.746221 0.235579
C4    C     C_R   0.996554 0.497218 0.898190 -0.047260
C5    C     C_R   0.974308 0.395848 0.880925 -0.026499
C6    C     C_R   0.953831 0.295460 0.914549 -0.126162
C7    C     C_R   0.015719 0.597840 0.864089 -0.038354
C8    C     C_R   0.997504 0.498431 0.645346 -0.120917
C9    C     C_R   0.001415 0.500121 0.354686 -0.139110
C10   C     C_R   0.964911 0.393512 0.033336 0.075450
C11   C     C_R   0.041544 0.604630 0.018429 -0.089394
C12   C     C_R   0.999296 0.499521 0.592407 0.812398
C13   C     C_R   0.003159 0.499150 0.051141 0.009417
C14   C     C_R   0.920095 0.290468 0.066734 -0.187492
C15   C     C_R   0.917930 0.291514 0.116402 -0.127214
C16   C     C_R   0.960697 0.395175 0.134756 -0.011438
C17   C     C_R   0.003773 0.499269 0.102284 -0.048929
C18   C     C_R   0.047870 0.603462 0.121108 -0.129526
C19   C     C_R   0.046999 0.601722 0.171719 0.608868
C20   C     C_R   0.960876 0.397265 0.185057 0.606123
C21   C     C_R   0.088740 0.474853 0.289456 0.676291
C22   C     C_R   0.087956 0.475115 0.339536 -0.265519
C23   C     C_R   0.145058 0.713446 0.492781 0.826505
C24   C     C_R   0.915942 0.525182 0.318795 -0.182581
C25   C     C_R   0.917045 0.525132 0.268740 -0.195831
C26   C     C_R   0.003163 0.499799 0.253929 0.232715
C27   C     C_R   0.971819 0.394134 0.982884 0.046529
C28   C     C_R   0.999168 0.497891 0.949448 0.072314
C29   C     C_R   0.028089 0.602160 0.966628 0.054073
C30   C     C_R   0.952315 0.294328 0.964529 -0.194227
C31   C     C_R   0.033760 0.697567 0.880842 -0.158481
C32   C     C_R   0.094314 0.708355 0.039251 0.580519
C33   C     C_R   0.094998 0.706959 0.089476 -0.181662
C34   C     C_R   0.000458 0.500140 0.407598 0.856481
C35   C     C_R   0.038150 0.699338 0.931015 -0.116807
C36   C     C_R   0.275725 0.022032 0.434421 -0.176748
C37   C     C_R   0.228078 0.834710 0.482691 -0.063110
C38   C     C_R   0.815176 0.084802 0.536386 -0.176530
C39   C     C_R   0.736342 0.969870 0.546110 -0.132252
C40   C     C_R   0.613095 0.932351 0.528873 -0.169804
C41   C     C_R   0.566408 0.009306 0.499552 0.080359
C42   C     C_R   0.649881 0.123765 0.484862 0.079830
C43   C     C_R   0.439869 0.976166 0.483832 0.076188
C44   C     C_R   0.400261 0.053680 0.450188 0.154572
C45   C     C_R   0.973490 0.397439 0.830193 0.563825
C46   C     C_R   0.485447 0.160801 0.431651 -0.217397
C47   C     C_R   0.608439 0.194693 0.448047 -0.188685
C48   C     C_R   0.351065 0.868409 0.500834 -0.214942
C49   C     C_R   0.189954 0.912644 0.450344 -0.161146
C50   C     C_R   0.772913 0.163397 0.506968 -0.095917
C51   C     C_R   0.349142 0.331920 0.579447 -0.285341
C52   C     C_R   0.761631 0.647154 0.433562 0.795786
C53   C     C_R   0.668637 0.682943 0.420114 -0.331641
C54   C     C_R   0.565927 0.629962 0.445248 -0.229120
C55   C     C_R   0.553144 0.538025 0.484178 0.016365
C56   C     C_R   0.014250 0.595740 0.813681 0.617361
C57   C     C_R   0.653142 0.506326 0.497491 0.173070
C58   C     C_R   0.447650 0.477893 0.511109 -0.112411
C59   C     C_R   0.448162 0.391350 0.551565 0.098952
C60   C     C_R   0.547319 0.363841 0.564219 -0.222372
C61   C     C_R   0.646965 0.419545 0.537717 -0.151099
C62   C     C_R   0.340327 0.497511 0.500190 0.728746
C63   C     C_R   0.248786 0.357260 0.567430 -0.040959
C64   C     C_R   0.088974 0.485050 0.730773 -0.192145
C65   C     C_R   0.090648 0.485758 0.680703 -0.208615
C66   C     C_R   0.902334 0.509676 0.661060 -0.301479
Cu1   Cu    Cu3+1 0.098270 0.475420 0.511360 0.998957
Cu2   Cu    Cu3+1 0.901730 0.524580 0.488640 0.983603
H1    H     H_    0.828956 0.518833 0.634669 0.186056
H2    H     H_    0.161622 0.475932 0.757650 0.174943
H3    H     H_    0.043504 0.774796 0.855128 0.196813
H4    H     H_    0.848293 0.544899 0.329318 0.201219
H5    H     H_    0.135106 0.788137 0.103672 0.217476
H6    H     H_    0.850746 0.544436 0.241390 0.174913
H7    H     H_    0.043946 0.776808 0.940547 0.218288
H8    H     H_    0.094931 0.887621 0.435837 0.201797
H9    H     H_    0.456936 0.218822 0.404251 0.161185
H10   H     H_    0.374972 0.807819 0.527944 0.149837
H11   H     H_    0.909073 0.112612 0.552990 0.157997
H12   H     H_    0.557622 0.842061 0.538250 0.138694
H13   H     H_    0.770292 0.909856 0.568508 0.155942
H14   H     H_    0.670372 0.276107 0.430299 0.175969
H15   H     H_    0.349486 0.266219 0.610452 0.166805
H16   H     H_    0.938419 0.216765 0.902355 0.191991
H17   H     H_    0.500833 0.665837 0.433488 0.252099
H18   H     H_    0.676648 0.753033 0.390294 0.192706
H19   H     H_    0.155037 0.455713 0.366349 0.207151
H20   H     H_    0.882604 0.210230 0.140448 0.192719
H21   H     H_    0.882753 0.206953 0.055331 0.146965
H22   H     H_    0.938621 0.214220 0.988146 0.149275
H23   H     H_    0.165098 0.476898 0.669718 0.179255
N1    N     N_R   0.993628 0.496533 0.797798 -0.449148
N2    N     N_R   0.003592 0.499579 0.202427 -0.447123
N3    N     N_R   0.246290 0.438210 0.528570 -0.220847
N4    N     N_R   0.754320 0.561170 0.471730 -0.262289
O1    O     O_R   0.972510 0.318140 0.514280 -0.584824
O2    O     O_2   0.918321 0.297964 0.216356 -0.515304
O3    O     O_2   0.034436 0.692271 0.780848 -0.513285
O4    O     O_2   0.089706 0.701205 0.190192 -0.516378
O5    O     O_R   0.806530 0.359640 0.495100 -0.613923
O6    O     O_R   0.082990 0.479270 0.579320 -0.590718
O7    O     O_R   0.917010 0.520770 0.560140 -0.606808
O8    O     O_R   0.193470 0.640360 0.504900 -0.539433
O9    O     O_R   0.027490 0.681860 0.485720 -0.541148
O10   O     O_R   0.082990 0.479230 0.439860 -0.530293
O11   O     O_R   0.917010 0.520730 0.420680 -0.547812
O12   O     O_2   0.951928 0.300616 0.813278 -0.527981
F1    F     F_    0.155661 0.812009 0.012928 -0.669456
H24   H     H_    0.245089 0.080826 0.408666 0.156555
F2    F     F_    0.807440 0.518402 0.725783 -0.642039
H25   H     H_    0.172189 0.312052 0.588909 0.154319
H26   H     H_    0.547938 0.297856 0.595088 0.158294
F3    F     F_    0.324932 0.572465 0.461091 -0.681752
F4    F     F_    0.861246 0.700780 0.408726 -0.663394
H27   H     H_    0.718070 0.392242 0.550576 0.202885
F5    F     F_    0.173133 0.451041 0.275393 -0.637441

loop_
_geom_bond_atom_site_label_1
_geom_bond_atom_site_label_2
_ccdc_geom_bond_type
C10   C27   A    
C58   C62   A    
C20   N2    A    
C8    C66   A    
C41   C42   A    
C56   O3    S    
C21   C26   A    
Cu1   O8    S    
C53   C54   A    
C63   N3    A    
C35   H7    S    
C28   C29   A    
Cu2   O7    S    
C25   H6    S    
C21   F5    S    
C38   C39   A    
C9    C22   A    
C66   H1    S    
C38   H11   S    
C15   C16   A    
C52   N4    A    
C18   C19   A    
C47   H14   S    
C48   H10   S    
C45   N1    A    
C6    H16   S    
C54   C55   A    
C23   O8    A    
C20   O2    S    
C16   C17   A    
C61   H27   S    
Cu1   N3    S    
C40   H12   S    
C53   H18   S    
C64   H2    S    
C43   C48   A    
C19   N2    A    
C16   C20   A    
C26   N2    S    
C31   H3    S    
C8    C65   A    
C21   C22   A    
C27   C30   A    
C41   C43   A    
Cu2   O11   S    
C7    C56   A    
C4    C7    A    
C1    O5    A    
C4    C28   A    
C44   C46   A    
C24   H4    S    
Cu2   N4    S    
C7    C31   A    
Cu1   Cu2   S    
C34   O11   A    
C51   C63   A    
C24   C25   A    
C39   H13   S    
C62   F3    S    
C10   C14   A    
C39   C40   A    
C19   O4    S    
Cu1   O10   S    
C58   C59   A    
C23   C37   S    
C5    C45   A    
C3    N1    S    
C43   C44   A    
Cu2   O5    S    
C14   H21   S    
C12   O7    A    
C60   H26   S    
C46   H9    S    
C37   C49   A    
C23   O9    A    
C56   N1    A    
C8    C12   S    
C17   C18   A    
C49   H8    S    
C22   H19   S    
C37   C48   A    
Cu1   O1    S    
C42   C50   A    
C33   H5    S    
C40   C41   A    
C6    C30   A    
C11   C32   A    
C62   N3    A    
C32   F1    S    
C9    C34   S    
C31   C35   A    
C36   C44   A    
C51   C59   A    
C51   H15   S    
C36   H24   S    
C52   C53   A    
Cu1   O6    S    
C1    C50   S    
C65   H23   S    
C46   C47   A    
C2    F2    S    
C34   O10   A    
Cu2   O9    S    
C4    C5    A    
C2    C66   A    
C10   C13   A    
C54   H17   S    
C9    C24   A    
C57   C61   A    
C38   C50   A    
C52   F4    S    
C3    C64   A    
C29   C35   A    
C13   C17   A    
C32   C33   A    
C55   C57   A    
C2    C3    A    
C25   C26   A    
C12   O6    A    
C64   C65   A    
C11   C13   A    
C5    C6    A    
C1    O1    A    
C42   C47   A    
C63   H25   S    
C18   C33   A    
C59   C60   A    
C11   C29   A    
C57   N4    A    
C55   C58   A    
C27   C28   A    
C14   C15   A    
C60   C61   A    
C30   H22   S    
C36   C49   A    
C45   O12   S    
C15   H20   S    
