data_mof_unit_211.cif
_audit_creation_date              2012-12-10T18:29:38-0500
_audit_creation_method            fapswitch 2.2
_symmetry_space_group_name_H-M    P1
_symmetry_Int_Tables_number       1
_space_group_crystal_system       triclinic
_cell_length_a                    11.517182
_cell_length_b                    15.165207
_cell_length_c                    15.535022
_cell_angle_alpha                 80.177906
_cell_angle_beta                  93.071157
_cell_angle_gamma                 103.944986
_cell_volume                      2594.56465899

loop_
_atom_site_label
_atom_site_type_symbol
_atom_type_description
_atom_site_fract_x
_atom_site_fract_y
_atom_site_fract_z
_atom_type_partial_charge
C1    C     C_R   0.481716 0.440423 0.662096 0.853255
C2    C     C_R   0.559308 0.672857 0.968836 -0.242895
C3    C     C_R   0.625316 0.824217 0.665427 -0.308329
C4    C     C_R   0.376634 0.176536 0.333847 -0.310487
C5    C     C_R   0.632479 0.749195 0.627008 0.328566
C6    C     C_R   0.369312 0.251555 0.372107 0.324314
C7    C     C_R   0.513304 0.797663 0.505817 0.126553
C8    C     C_R   0.485336 0.201902 0.494791 0.122719
C9    C     C_R   0.534229 0.884971 0.532892 -0.041196
C10   C     C_R   0.464989 0.114721 0.467333 -0.041327
C11   C     C_R   0.567661 0.889469 0.620941 0.081296
C12   C     C_R   0.519270 0.560006 0.337589 0.861224
C13   C     C_R   0.432709 0.110604 0.378950 0.083412
C14   C     C_R   0.510455 0.964316 0.479996 0.027241
C15   C     C_R   0.488326 0.035168 0.520226 0.026240
C16   C     C_R   0.717553 0.501172 0.500430 0.887187
C17   C     C_R   0.282427 0.498712 0.499805 0.883266
C18   C     C_R   0.484314 0.022104 0.611806 -0.228482
C19   C     C_R   0.514489 0.977154 0.388449 -0.231123
C20   C     C_R   0.536722 0.956310 0.662297 0.226297
C21   C     C_R   0.463121 0.043398 0.337767 0.228537
C22   C     C_1   0.839102 0.503263 0.500750 -0.200061
C23   C     C_R   0.460256 0.346371 0.938663 0.113102
C24   C     C_1   0.160836 0.496384 0.499876 -0.199713
C25   C     C_1   0.941049 0.501588 0.500599 -0.004400
C26   C     C_1   0.058849 0.497899 0.500239 -0.005983
C27   C     C_R   0.469751 0.400985 0.756133 -0.118201
C28   C     C_R   0.537784 0.599943 0.243195 -0.129293
C29   C     C_R   0.426793 0.278098 0.883235 0.077123
C30   C     C_R   0.594589 0.720623 0.114114 0.064822
C31   C     C_R   0.417091 0.307121 0.791120 0.071280
C32   C     C_R   0.584978 0.695164 0.207182 0.130615
C33   C     C_R   0.513629 0.463035 0.812532 -0.309685
C34   C     C_R   0.562969 0.650954 0.060280 0.110898
C35   C     C_R   0.509076 0.535254 0.187276 -0.313796
C36   C     C_R   0.494633 0.440557 0.901586 0.064223
C37   C     C_R   0.529741 0.556930 0.098310 0.063180
C38   C     C_3   0.625304 0.770879 0.263728 -0.396915
C39   C     C_3   0.761391 0.793442 0.280800 -0.392750
C40   C     C_3   0.798575 0.727449 0.356486 -0.740428
C41   C     C_3   0.347740 0.240279 0.732488 -0.419535
C42   C     C_3   0.233682 0.268466 0.693986 -0.299916
C43   C     C_3   0.176000 0.210529 0.624902 -0.849002
C44   C     C_3   0.406385 0.176148 0.921697 -0.443446
C45   C     C_R   0.514215 0.510671 0.954239 0.098580
C46   C     C_3   0.277663 0.136039 0.953830 -0.332838
C47   C     C_3   0.258690 0.034525 0.993639 -0.906866
C48   C     C_3   0.640336 0.821399 0.071645 -0.440585
C49   C     C_3   0.536411 0.868304 0.045772 -0.334698
C50   C     C_3   0.582357 0.968929 0.004895 -0.909409
C51   C     C_3   0.550997 0.955075 0.759572 -0.964325
C52   C     C_3   0.449125 0.044497 0.240448 -0.970229
C53   C     C_3   0.586616 0.228427 0.559944 -0.389852
C54   C     C_3   0.708781 0.231681 0.522653 -0.316035
C55   C     C_3   0.809838 0.257109 0.588166 -0.882344
C56   C     C_R   0.511564 0.486172 0.045909 0.097027
C57   C     C_3   0.409807 0.770718 0.442412 -0.396753
C58   C     C_3   0.288838 0.765795 0.482611 -0.307720
C59   C     C_3   0.185739 0.742324 0.418108 -0.887739
C60   C     C_3   0.292778 0.312212 0.324761 -0.865902
C61   C     C_3   0.711507 0.689753 0.672792 -0.874547
C62   C     C_R   0.492051 0.391661 0.082195 -0.243168
C63   C     C_R   0.531223 0.604582 0.917437 -0.244498
C64   C     C_R   0.462274 0.323605 0.030075 -0.244226
H1    H     H_    0.441235 0.253301 0.063513 0.154951
H2    H     H_    0.338032 0.170268 0.269385 0.168938
H3    H     H_    0.756318 0.732068 0.417595 0.278222
H4    H     H_    0.772745 0.655820 0.342685 0.253839
H5    H     H_    0.897185 0.746661 0.365626 0.220486
H6    H     H_    0.810517 0.791970 0.221644 0.219293
H7    H     H_    0.789720 0.864265 0.296851 0.205467
H8    H     H_    0.599358 0.834413 0.231523 0.151600
H9    H     H_    0.576898 0.759659 0.324750 0.216350
H10   H     H_    0.238382 0.220838 0.570023 0.275308
H11   H     H_    0.151828 0.136376 0.653794 0.247086
H12   H     H_    0.573312 0.742709 0.934721 0.155137
H13   H     H_    0.093586 0.231745 0.598784 0.243874
H14   H     H_    0.168838 0.258555 0.747309 0.202671
H15   H     H_    0.252521 0.342072 0.663783 0.227898
H16   H     H_    0.406374 0.233588 0.681081 0.213311
H17   H     H_    0.317118 0.169211 0.767298 0.192091
H18   H     H_    0.275782 0.994118 0.944377 0.263796
H19   H     H_    0.319571 0.026021 0.050772 0.267288
H20   H     H_    0.164910 0.007338 0.015884 0.250789
H21   H     H_    0.257606 0.174327 0.003900 0.222137
H22   H     H_    0.213288 0.142948 0.898683 0.222294
H23   H     H_    0.442174 0.063888 0.644053 0.136908
H24   H     H_    0.428943 0.136125 0.874167 0.189463
H25   H     H_    0.471294 0.165608 0.975625 0.198150
H26   H     H_    0.636308 0.008239 0.053398 0.262224
H27   H     H_    0.638156 0.974280 0.947268 0.268247
H28   H     H_    0.505565 0.999815 0.983185 0.258418
H29   H     H_    0.475587 0.832239 0.998252 0.223598
H30   H     H_    0.483231 0.865237 0.104259 0.216739
H31   H     H_    0.704324 0.861987 0.113927 0.204542
H32   H     H_    0.696170 0.826422 0.014180 0.193031
H33   H     H_    0.515334 0.009698 0.780773 0.238269
H34   H     H_    0.555449 0.934510 0.356367 0.136038
H35   H     H_    0.502077 0.887496 0.795026 0.247280
H36   H     H_    0.647266 0.967082 0.778133 0.238313
H37   H     H_    0.484112 0.989429 0.219484 0.238612
H38   H     H_    0.352977 0.033120 0.221611 0.241360
H39   H     H_    0.498859 0.111795 0.204991 0.245412
H40   H     H_    0.800979 0.201999 0.646232 0.260830
H41   H     H_    0.897158 0.265159 0.557146 0.250458
H42   H     H_    0.808055 0.322942 0.609600 0.263451
H43   H     H_    0.710327 0.163496 0.506224 0.223549
H44   H     H_    0.725159 0.283040 0.461732 0.241493
H45   H     H_    0.465438 0.466188 0.214171 0.180375
H46   H     H_    0.588726 0.294531 0.578372 0.258314
H47   H     H_    0.576333 0.184203 0.624113 0.168901
H48   H     H_    0.193452 0.798707 0.361214 0.259517
H49   H     H_    0.186307 0.677348 0.394525 0.264731
H50   H     H_    0.099325 0.733733 0.450701 0.252039
H51   H     H_    0.274206 0.712952 0.542520 0.241838
H52   H     H_    0.288018 0.833083 0.501493 0.221834
H53   H     H_    0.416906 0.816157 0.378932 0.169287
H54   H     H_    0.408431 0.705469 0.422080 0.253708
H55   H     H_    0.294066 0.373153 0.353557 0.288570
H56   H     H_    0.563757 0.530556 0.785741 0.176473
H57   H     H_    0.321093 0.334925 0.255839 0.207402
H58   H     H_    0.198475 0.271930 0.324782 0.214080
H59   H     H_    0.705162 0.626270 0.646939 0.288834
H60   H     H_    0.806060 0.729483 0.667093 0.216750
H61   H     H_    0.689950 0.671075 0.743234 0.205727
H62   H     H_    0.499727 0.367326 0.151147 0.152531
H63   H     H_    0.520850 0.627910 0.848500 0.154779
H64   H     H_    0.665273 0.831092 0.729410 0.167174
N1    N     N_R   0.566020 0.731700 0.552730 -0.119767
N2    N     N_R   0.433980 0.268300 0.447270 -0.119441
O1    O     O_R   0.466720 0.383110 0.605620 -0.634294
O2    O     O_R   0.533280 0.616890 0.394380 -0.639755
O3    O     O_R   0.509090 0.531900 0.639510 -0.606395
O4    O     O_R   0.490910 0.468100 0.360490 -0.606305
O5    O     O_R   0.644370 0.425610 0.483050 -0.614638
O6    O     O_R   0.355630 0.574390 0.516950 -0.615908
O7    O     O_R   0.686740 0.574390 0.516930 -0.627358
O8    O     O_R   0.313260 0.425610 0.483070 -0.616377
Zn1   Zn    Zn3+2 0.471710 0.400660 0.477370 0.911790
Zn2   Zn    Zn3+2 0.528290 0.599340 0.522630 0.904109

loop_
_geom_bond_atom_site_label_1
_geom_bond_atom_site_label_2
_ccdc_geom_bond_type
C53   H46   S    
C51   H33   S    
C15   C18   A    
C4    H2    S    
C52   H39   S    
C48   H31   S    
C34   C37   A    
C41   C42   S    
C16   O7    A    
C6    N2    A    
C41   H16   S    
C53   C54   S    
C27   C33   A    
O5    Zn1   S    
C52   H38   S    
C54   H43   S    
C55   H41   S    
C61   H60   S    
C23   C29   A    
C30   C48   S    
C19   C21   A    
C24   C26   T    
C20   C51   S    
C10   C15   A    
C38   C39   S    
C23   C36   A    
C48   H32   S    
C33   C36   A    
C22   C25   T    
C60   H55   S    
C47   H18   S    
C4    C13   A    
C62   C64   A    
C46   C47   S    
C37   C56   A    
C50   H26   S    
C45   C56   A    
C40   H3    S    
C17   O8    A    
C47   H19   S    
C49   H30   S    
C12   O2    A    
C35   H45   S    
O6    Zn2   S    
C46   H21   S    
C53   H47   S    
C43   H10   S    
C5    N1    A    
C42   H15   S    
C12   O4    A    
C58   H52   S    
C1    O3    A    
N2    Zn1   S    
C19   H34   S    
C44   C46   S    
C51   H35   S    
C52   H37   S    
O7    Zn2   S    
C38   H8    S    
C11   C20   A    
C17   C24   S    
C40   H5    S    
C30   C34   A    
C55   H42   S    
C27   C31   A    
C6    C60   S    
C28   C32   A    
C3    C11   A    
C28   C35   A    
C4    C6    A    
O4    Zn1   S    
C62   H62   S    
C3    H64   S    
C1    O1    A    
C58   C59   S    
C55   H40   S    
C45   C63   A    
C9    C14   A    
C59   H49   S    
C41   H17   S    
C17   O6    A    
C59   H48   S    
C5    C61   S    
C36   C45   A    
C47   H20   S    
C60   H58   S    
C9    C11   A    
O3    Zn2   S    
C50   H28   S    
C48   C49   S    
C12   C28   S    
C42   H14   S    
C32   C38   S    
C29   C44   S    
C8    N2    A    
C58   H51   S    
C56   C62   A    
O2    Zn2   S    
C42   C43   S    
C39   C40   S    
C2    H12   S    
C2    C63   A    
C43   H11   S    
C57   H53   S    
C51   H36   S    
C7    C9    A    
C54   C55   S    
C23   C64   A    
C16   C22   S    
C31   C41   S    
C35   C37   A    
C14   C19   A    
C3    C5    A    
C10   C13   A    
C8    C53   S    
C43   H13   S    
C18   H23   S    
C54   H44   S    
C61   H59   S    
C64   H1    S    
C25   C26   S    
C29   C31   A    
C13   C21   A    
C30   C32   A    
C2    C34   A    
C57   C58   S    
N1    Zn2   S    
C59   H50   S    
C39   H6    S    
C18   C20   A    
C60   H57   S    
C7    N1    A    
O1    Zn1   S    
O8    Zn1   S    
C50   H27   S    
C33   H56   S    
C8    C10   A    
C49   C50   S    
C40   H4    S    
C1    C27   S    
C39   H7    S    
C14   C15   A    
C61   H61   S    
C49   H29   S    
C44   H24   S    
C16   O5    A    
C7    C57   S    
C21   C52   S    
C63   H63   S    
C44   H25   S    
C57   H54   S    
C46   H22   S    
C38   H9    S    
