data_mof_unit_199.cif
_audit_creation_date              2012-12-10T19:12:31-0500
_audit_creation_method            fapswitch 2.2
_symmetry_space_group_name_H-M    P1
_symmetry_Int_Tables_number       1
_space_group_crystal_system       triclinic
_cell_length_a                    15.6977
_cell_length_b                    10.786986
_cell_length_c                    9.884503
_cell_angle_alpha                 91.790381
_cell_angle_beta                  89.902795
_cell_angle_gamma                 89.636812
_cell_volume                      1672.89778596

loop_
_atom_site_label
_atom_site_type_symbol
_atom_type_description
_atom_site_fract_x
_atom_site_fract_y
_atom_site_fract_z
_atom_type_partial_charge
C1    C     C_R   0.495703 0.258731 0.499476 0.889408
C2    C     C_3   0.083120 0.497894 0.499268 0.164297
C3    C     C_3   0.973603 0.594580 0.578319 -0.000642
C4    C     C_3   0.917275 0.501529 0.501516 0.104091
C5    C     C_3   0.029146 0.606749 0.450951 -0.176341
C6    C     C_3   0.971717 0.512325 0.373368 -0.164533
C7    C     C_1   0.174015 0.497343 0.499161 -0.025322
C8    C     C_1   0.826219 0.500808 0.500694 0.031383
C9    C     C_3   0.486735 0.077474 0.648977 -0.359474
C10   C     C_3   0.483683 0.935277 0.649801 -0.197162
C11   C     C_3   0.422884 0.067522 0.412027 -0.197694
C12   C     C_R   0.338303 0.499594 0.499986 0.958124
C13   C     C_3   0.582439 0.078510 0.444852 -0.446219
C14   C     C_3   0.495537 0.122891 0.501581 -0.099860
C15   C     C_3   0.503811 0.880578 0.503160 -0.183044
C16   C     C_3   0.429971 0.925135 0.410258 -0.478170
C17   C     C_3   0.593548 0.936319 0.452746 0.670320
C18   C     C_3   0.504189 0.366636 0.072723 0.329646
C19   C     C_3   0.495830 0.369717 0.911282 -0.326038
C20   C     C_3   0.418834 0.557305 0.077871 -0.186773
C21   C     C_3   0.571437 0.566813 0.084551 -0.281298
C22   C     C_3   0.422011 0.560012 0.917858 -0.318392
C23   C     C_R   0.503573 0.742501 0.501391 0.975402
C24   C     C_3   0.576610 0.555801 0.925181 -0.137306
C25   C     C_R   0.661758 0.499071 0.499957 0.997854
C26   C     C_3   0.971754 0.392835 0.549611 -0.166976
C27   C     C_3   0.027728 0.403591 0.421440 -0.131029
C28   C     C_1   0.249369 0.498152 0.499701 -0.085820
C29   C     C_1   0.750814 0.499766 0.500034 -0.044310
C30   C     C_3   0.029182 0.486962 0.627628 -0.206308
H1    H     H_    0.052314 0.325087 0.357043 0.158930
H2    H     H_    0.368534 0.882778 0.438127 0.222687
H3    H     H_    0.585354 0.106327 0.338248 0.260866
H4    H     H_    0.635085 0.128993 0.497641 0.204235
H5    H     H_    0.433750 0.096803 0.306951 0.203135
H6    H     H_    0.440195 0.892378 0.305572 0.262678
H7    H     H_    0.946406 0.305446 0.589829 0.174554
H8    H     H_    0.546381 0.313523 0.859548 0.233546
H9    H     H_    0.436107 0.325178 0.873689 0.166684
H10   H     H_    0.362852 0.500259 0.100991 0.165837
H11   H     H_    0.363849 0.514235 0.876483 0.167599
H12   H     H_    0.566805 0.664314 0.120565 0.249765
H13   H     H_    0.631715 0.532968 0.128896 0.224562
H14   H     H_    0.632393 0.497530 0.896244 0.194541
H15   H     H_    0.946320 0.522663 0.269541 0.168909
H16   H     H_    0.417553 0.655082 0.879189 0.236985
H17   H     H_    0.054530 0.694253 0.411024 0.174040
H18   H     H_    0.054574 0.476946 0.731524 0.165778
H19   H     H_    0.430191 0.120614 0.699760 0.228301
H20   H     H_    0.541723 0.110544 0.710647 0.249195
H21   H     H_    0.535073 0.905702 0.716273 0.249929
N1    N     N_3   0.498170 0.499750 0.138610 -0.155425
N2    N     N_3   0.498850 0.496730 0.861320 -0.128327
O1    O     O_R   0.499980 0.314910 0.616040 -0.657975
O2    O     O_R   0.500040 0.314680 0.383960 -0.558244
O3    O     O_R   0.376750 0.500100 0.616020 -0.635907
O4    O     O_R   0.376810 0.499870 0.383940 -0.553531
O5    O     O_R   0.499960 0.685320 0.616040 -0.614256
O6    O     O_R   0.500020 0.685090 0.383960 -0.588857
O7    O     O_R   0.623190 0.500130 0.616060 -0.618695
O8    O     O_R   0.623250 0.499900 0.383980 -0.555858
Zn1   Zn    Zn3+2 0.499960 0.500150 0.654960 0.976268
Zn2   Zn    Zn3+2 0.500040 0.499850 0.345040 1.063613
C31   C     C_2   0.402411 0.892994 0.719521 1.044860
O9    O     O_2   0.352930 0.820636 0.664152 -0.639841
O10   O     O_R   0.385759 0.936408 0.851748 -0.709043
H22   H     H_    0.330781 0.902528 0.889347 0.353519
C32   C     C_2   0.333684 0.111227 0.452230 0.913204
O11   O     O_2   0.303938 0.087836 0.562823 -0.616553
O12   O     O_R   0.283755 0.174145 0.359505 -0.767563
H23   H     H_    0.225597 0.198161 0.397063 0.342677
S1    S     S_3+6 0.681839 0.904872 0.566366 0.014695
O13   O     O_2   0.683855 0.768983 0.592953 -0.276490
O14   O     O_2   0.764746 0.938433 0.500745 -0.245741
O15   O     O_3   0.674825 0.987360 0.713382 -0.610193
H24   H     H_    0.734143 0.996084 0.746126 0.391792
S2    S     S_3+6 0.631928 0.880258 0.287584 0.061702
O16   O     O_2   0.565624 0.889533 0.179695 -0.240420
O17   O     O_2   0.705787 0.959045 0.246291 -0.247773
O18   O     O_3   0.667077 0.733466 0.297743 -0.562454
H25   H     H_    0.713982 0.725002 0.230873 0.375201
C33   C     C_2   0.432320 0.281786 0.117971 0.846884
O19   O     O_2   0.381145 0.315368 0.204509 -0.589003
O20   O     O_R   0.422397 0.164989 0.054044 -0.732471
H26   H     H_    0.370532 0.119194 0.087108 0.372637
S3    S     S_3+6 0.605509 0.282334 0.103793 0.019554
O21   O     O_2   0.591832 0.146203 0.075495 -0.194267
O22   O     O_2   0.674598 0.322151 0.009569 -0.347868
O23   O     O_3   0.644470 0.298624 0.260439 -0.571727
H27   H     H_    0.700176 0.254908 0.257884 0.384134
C34   C     C_2   0.600140 0.681071 0.876831 1.003830
O24   O     O_2   0.549831 0.767238 0.887250 -0.569487
O25   O     O_R   0.685801 0.703339 0.849080 -0.746024
H28   H     H_    0.699456 0.794887 0.851207 0.389086
C35   C     C_2   0.393581 0.682715 0.137089 0.960866
O26   O     O_2   0.426274 0.776493 0.095562 -0.563667
O27   O     O_R   0.324580 0.692229 0.226555 -0.800604
H29   H     H_    0.306386 0.781167 0.246630 0.328759
C36   C     C_2   0.945892 0.702476 0.667064 0.934273
O28   O     O_2   0.999574 0.769555 0.720034 -0.603583
O29   O     O_R   0.859398 0.725979 0.689169 -0.712731
H30   H     H_    0.849196 0.801869 0.750258 0.366449

loop_
_geom_bond_atom_site_label_1
_geom_bond_atom_site_label_2
_ccdc_geom_bond_type
O5    Zn1   S    
C23   O5    A    
O29   H30   S    
C6    H15   S    
C35   O26   D    
C4    C8    S    
O27   H29   S    
C18   N1    S    
S2    O16   D    
C23   O6    A    
C5    H17   S    
C26   C27   S    
O25   H28   S    
C12   C28   S    
C8    C29   T    
C30   H18   S    
C10   C15   S    
C5    C6    S    
C20   H10   S    
C11   C14   S    
S3    O22   D    
C22   H11   S    
C15   C16   S    
O7    Zn1   S    
C18   C19   S    
N2    Zn1   S    
O8    Zn2   S    
C18   C33   S    
C21   H13   S    
C2    C7    S    
C32   O11   D    
O2    Zn2   S    
C2    C27   S    
C25   O7    A    
C9    C10   S    
C19   N2    S    
C15   C23   S    
O10   H22   S    
C13   C14   S    
S1    O15   S    
C10   H21   S    
O4    Zn2   S    
C22   N2    S    
S2    O17   D    
C25   C29   S    
C27   H1    S    
C9    H19   S    
O20   H26   S    
S1    O14   D    
C34   O24   D    
C18   S3    S    
C9    C14   S    
S3    O21   D    
S1    O13   D    
O1    Zn1   S    
C24   N2    S    
N1    Zn2   S    
C7    C28   T    
C31   O10   S    
C3    C30   S    
O15   H24   S    
C13   H3    S    
C19   H8    S    
C34   O25   S    
C11   C16   S    
C6    C27   S    
C17   S2    S    
C25   O8    A    
O12   H23   S    
C19   H9    S    
C1    O1    A    
C12   O4    A    
C4    C6    S    
C36   O29   S    
C20   C35   S    
C20   C22   S    
C26   C30   S    
C33   O20   S    
C24   H14   S    
O3    Zn1   S    
C2    C5    S    
C3    C4    S    
C24   C34   S    
C11   C32   S    
S2    O18   S    
C15   C17   S    
C22   H16   S    
C10   C31   S    
C9    H20   S    
O18   H25   S    
C3    C5    S    
S3    O23   S    
C4    C26   S    
C35   O27   S    
C26   H7    S    
C16   H2    S    
O6    Zn2   S    
C36   O28   D    
C13   C17   S    
C2    C30   S    
C31   O9    D    
C11   H5    S    
C1    O2    A    
C13   H4    S    
C20   N1    S    
C16   H6    S    
C12   O3    A    
C21   H12   S    
C3    C36   S    
C17   S1    S    
C32   O12   S    
C33   O19   D    
C21   C24   S    
C1    C14   S    
O23   H27   S    
C21   N1    S    
