data_mof_unit_4750.cif
_audit_creation_date              2012-12-10T17:31:22-0500
_audit_creation_method            fapswitch 2.2
_symmetry_space_group_name_H-M    P1
_symmetry_Int_Tables_number       1
_space_group_crystal_system       triclinic
_cell_length_a                    19.003857
_cell_length_b                    18.731467
_cell_length_c                    12.422987
_cell_angle_alpha                 90.000347
_cell_angle_beta                  129.131388
_cell_angle_gamma                 89.99907
_cell_volume                      3430.3134842

loop_
_atom_site_label
_atom_site_type_symbol
_atom_type_description
_atom_site_fract_x
_atom_site_fract_y
_atom_site_fract_z
_atom_type_partial_charge
C1    C     C_R   0.612048 0.897900 0.652549 0.875406
C2    C     C_R   0.612034 0.102099 0.652475 0.879311
C3    C     C_R   0.112036 0.397901 0.652476 0.879311
C4    C     C_R   0.112044 0.602101 0.652544 0.875381
C5    C     C_R   0.260976 0.748986 0.073834 0.028731
C6    C     C_R   0.260584 0.250536 0.072851 0.026173
C7    C     C_R   0.760585 0.249461 0.072856 0.026177
C8    C     C_R   0.760989 0.751030 0.073860 0.028713
C9    C     C_R   0.686731 0.237916 0.071448 -0.051343
C10   C     C_R   0.687288 0.762707 0.072793 -0.059172
C11   C     C_R   0.187278 0.737308 0.072771 -0.059212
C12   C     C_R   0.186726 0.262080 0.071435 -0.051312
C13   C     C_R   0.605117 0.211802 0.948711 0.562237
C14   C     C_R   0.605667 0.788949 0.950252 0.544984
C15   C     C_R   0.105656 0.711067 0.950231 0.544913
C16   C     C_R   0.105113 0.288191 0.948694 0.562288
C17   C     C_R   0.599914 0.198387 0.833389 -0.079155
C18   C     C_R   0.600200 0.802177 0.834640 -0.088849
C19   C     C_R   0.100189 0.697835 0.834619 -0.088890
C20   C     C_R   0.099914 0.301609 0.833377 -0.079130
C21   C     C_R   0.320703 0.806001 0.154386 -0.022535
C22   C     C_R   0.320373 0.193610 0.153609 -0.022543
C23   C     C_R   0.820373 0.306388 0.153611 -0.022528
C24   C     C_R   0.820713 0.694011 0.154405 -0.022555
C25   C     C_R   0.260333 0.811248 0.279333 -0.091268
C26   C     C_R   0.260296 0.188851 0.278981 -0.093145
C27   C     C_R   0.760302 0.311147 0.278991 -0.093129
C28   C     C_R   0.760335 0.688756 0.279339 -0.091272
C29   C     C_R   0.680660 0.157270 0.746344 -0.210688
C30   C     C_R   0.680694 0.842779 0.746727 -0.208967
C31   C     C_R   0.180683 0.657228 0.746709 -0.208952
C32   C     C_R   0.180664 0.342731 0.746346 -0.210688
C33   C     C_R   0.685126 0.991193 0.289544 0.498785
C34   C     C_R   0.185108 0.508853 0.289514 0.498825
C35   C     C_R   0.343672 0.001246 0.627014 0.701838
C36   C     C_R   0.843671 0.498745 0.627012 0.701847
C37   C     C_R   0.308470 0.000723 0.696910 -0.296124
C38   C     C_R   0.808465 0.499265 0.696903 -0.296131
C39   C     C_R   0.385614 0.101027 0.344525 0.794594
C40   C     C_R   0.385615 0.898972 0.344554 0.793939
C41   C     C_R   0.885616 0.601029 0.344555 0.793937
C42   C     C_R   0.885615 0.398973 0.344526 0.794597
C43   C     C_R   0.366343 0.998675 0.841964 0.540025
C44   C     C_R   0.866334 0.501322 0.841955 0.540039
C45   C     C_R   0.462220 0.997035 0.921299 -0.109634
C46   C     C_R   0.962207 0.502970 0.921290 -0.109631
C47   C     C_R   0.495219 0.997305 0.843828 0.003638
C48   C     C_R   0.995212 0.502703 0.843824 0.003577
C49   C     C_R   0.526656 0.995653 0.073044 -0.006701
C50   C     C_R   0.026641 0.504361 0.073033 -0.006723
C51   C     C_R   0.621343 0.989656 0.142803 -0.133388
C52   C     C_R   0.121316 0.510397 0.142778 -0.133415
C53   C     C_R   0.651084 0.983940 0.065319 -0.191767
C54   C     C_R   0.151040 0.516155 0.065281 -0.191637
C55   C     C_R   0.591176 0.993145 0.922806 0.583607
C56   C     C_R   0.091163 0.506889 0.922800 0.583646
C57   C     C_R   0.502477 0.999736 0.160881 0.108847
C58   C     C_R   0.002471 0.500258 0.160878 0.108849
C59   C     C_R   0.655977 0.996914 0.366572 0.029108
C60   C     C_R   0.155974 0.503104 0.366558 0.029080
C61   C     C_R   0.692733 0.261494 0.184406 -0.058498
C62   C     C_R   0.693243 0.738899 0.185599 -0.054383
C63   C     C_R   0.193238 0.761110 0.185584 -0.054365
C64   C     C_R   0.192725 0.238502 0.184390 -0.058503
C65   C     C_R   0.321422 0.838413 0.258897 -0.152507
C66   C     C_R   0.321313 0.161474 0.258549 -0.151126
C67   C     C_R   0.821315 0.338525 0.258552 -0.151132
C68   C     C_R   0.821426 0.661592 0.258905 -0.152506
C69   C     C_R   0.758821 0.165703 0.757222 -0.260467
C70   C     C_R   0.758801 0.834158 0.757526 -0.259005
C71   C     C_R   0.258786 0.665854 0.757499 -0.259003
C72   C     C_R   0.258826 0.334301 0.757229 -0.260471
C73   C     C_R   0.341577 0.681379 0.886504 0.604920
C74   C     C_R   0.341551 0.318602 0.886199 0.603886
C75   C     C_R   0.841546 0.181399 0.886192 0.603888
C76   C     C_R   0.841592 0.818639 0.886537 0.604942
C77   C     C_R   0.344293 0.698759 0.997900 0.550805
C78   C     C_R   0.344133 0.300912 0.997372 0.551293
C79   C     C_R   0.844130 0.199085 0.997368 0.551271
C80   C     C_R   0.844308 0.801260 0.997934 0.550754
C81   C     C_R   0.762655 0.212271 0.975081 -0.153677
C82   C     C_R   0.762907 0.788149 0.975880 -0.159935
C83   C     C_R   0.262893 0.711869 0.975851 -0.159919
C84   C     C_R   0.262657 0.287727 0.975081 -0.153650
C85   C     C_R   0.680178 0.188509 0.850354 -0.101576
C86   C     C_R   0.680348 0.811837 0.851128 -0.108953
C87   C     C_R   0.180336 0.688176 0.851105 -0.108994
C88   C     C_R   0.180180 0.311490 0.850351 -0.101550
Cu1   Cu    Cu3+1 0.526340 0.000000 0.421010 0.996051
Cu2   Cu    Cu3+1 0.026340 0.500000 0.421010 0.996052
Cu3   Cu    Cu3+1 0.473640 0.000000 0.578990 1.077962
Cu4   Cu    Cu3+1 0.973640 0.500000 0.578990 1.077962
H1    H     H_    0.433847 0.002383 0.121748 0.227435
H2    H     H_    0.933842 0.497598 0.121744 0.227427
N1    N     N_R   0.566260 1.000000 0.302220 -0.275301
N2    N     N_R   0.066260 0.500000 0.302220 -0.275287
N3    N     N_R   0.434410 0.000000 0.697680 -0.242819
N4    N     N_R   0.934410 0.500000 0.697680 -0.242821
O1    O     O_R   0.608610 0.924520 0.551740 -0.601358
O2    O     O_R   0.608610 0.075480 0.551740 -0.601192
O3    O     O_R   0.108610 0.424520 0.551740 -0.601182
O4    O     O_R   0.108610 0.575480 0.551740 -0.601353
O5    O     O_R   0.564110 0.924510 0.685150 -0.524016
O6    O     O_R   0.564110 0.075490 0.685150 -0.513387
O7    O     O_R   0.064110 0.424510 0.685150 -0.513382
O8    O     O_R   0.064110 0.575490 0.685150 -0.524064
O9    O     O_R   0.435880 0.075470 0.314850 -0.593293
O10   O     O_R   0.435880 0.924530 0.314850 -0.592166
O11   O     O_R   0.935880 0.575470 0.314850 -0.592160
O12   O     O_R   0.935880 0.424530 0.314850 -0.593297
O13   O     O_R   0.391380 0.075460 0.448260 -0.531797
O14   O     O_R   0.391380 0.924540 0.448260 -0.533977
O15   O     O_R   0.891380 0.575460 0.448260 -0.533982
O16   O     O_R   0.891380 0.424540 0.448260 -0.531790
C89   C     C_1   0.261292 0.835595 0.391059 0.405332
N5    N     N_1   0.261086 0.853449 0.480022 -0.217500
C90   C     C_1   0.262199 0.165665 0.392145 0.408138
N6    N     N_1   0.262706 0.148934 0.482285 -0.218462
C91   C     C_1   0.762211 0.334330 0.392161 0.408153
N7    N     N_1   0.762722 0.351056 0.482308 -0.218475
C92   C     C_1   0.761284 0.664399 0.391051 0.405316
N8    N     N_1   0.761070 0.646537 0.480002 -0.217495
C93   C     C_1   0.745278 0.969154 0.128921 0.493827
N9    N     N_1   0.819977 0.957212 0.178499 -0.165593
C94   C     C_1   0.245168 0.531096 0.128829 0.493749
N10   N     N_1   0.319810 0.543180 0.178368 -0.165715
F1    F     F_    0.776222 0.989237 0.360206 -0.649766
F2    F     F_    0.276199 0.510816 0.360145 -0.649727
F3    F     F_    0.286471 0.001968 0.486293 -0.634606
F4    F     F_    0.786472 0.498020 0.486291 -0.634607
F5    F     F_    0.325740 0.996689 0.900425 -0.682449
F6    F     F_    0.825732 0.503317 0.900416 -0.682444
C95   C     C_1   0.211412 0.001766 0.618420 0.485375
N11   N     N_1   0.133584 0.002602 0.555435 -0.180493
C96   C     C_1   0.711407 0.498215 0.618409 0.485371
N12   N     N_1   0.633579 0.497373 0.555420 -0.180487
F7    F     F_    0.634267 0.000562 0.870648 -0.659193
F8    F     F_    0.134275 0.499437 0.870688 -0.659171
F9    F     F_    0.527124 0.211712 0.931771 -0.619159
F10   F     F_    0.527815 0.789302 0.933721 -0.619441
F11   F     F_    0.027805 0.710713 0.933705 -0.619442
F12   F     F_    0.027119 0.288277 0.931746 -0.619159
C97   C     C_1   0.632072 0.232680 0.207031 0.447417
N13   N     N_1   0.584472 0.209347 0.226198 -0.163257
C98   C     C_1   0.632727 0.767671 0.208542 0.445124
N14   N     N_1   0.585205 0.790953 0.227907 -0.166441
C99   C     C_1   0.132725 0.732335 0.208532 0.445110
N15   N     N_1   0.085207 0.709050 0.227899 -0.166455
C100  C     C_1   0.132058 0.267314 0.207005 0.447432
N16   N     N_1   0.084454 0.290646 0.226166 -0.163245
C101  C     C_1   0.366177 0.838848 0.107355 0.402496
N17   N     N_1   0.401223 0.863516 0.066720 -0.197346
C102  C     C_1   0.365686 0.160725 0.106327 0.396633
N18   N     N_1   0.400483 0.136207 0.065168 -0.208794
C103  C     C_1   0.865685 0.339270 0.106326 0.396624
N19   N     N_1   0.900479 0.363786 0.065164 -0.208822
C104  C     C_1   0.866191 0.661166 0.107376 0.402499
N20   N     N_1   0.901240 0.636498 0.066744 -0.197336
C105  C     C_1   0.755186 0.162407 0.637736 0.449197
N21   N     N_1   0.752722 0.161104 0.542265 -0.264297
C106  C     C_1   0.755009 0.836752 0.637874 0.446639
N22   N     N_1   0.752502 0.837415 0.542352 -0.261303
C107  C     C_1   0.254993 0.663257 0.637845 0.446637
N23   N     N_1   0.252485 0.662593 0.542322 -0.261306
C108  C     C_1   0.255192 0.337599 0.637743 0.449198
N24   N     N_1   0.252728 0.338904 0.542271 -0.264298
F13   F     F_    0.426161 0.704131 0.126392 -0.616110
F14   F     F_    0.425937 0.295437 0.125916 -0.616888
F15   F     F_    0.925935 0.204557 0.125911 -0.616895
F16   F     F_    0.926175 0.795887 0.126428 -0.616123
F17   F     F_    0.419896 0.678914 0.904761 -0.567456
F18   F     F_    0.419949 0.321369 0.904728 -0.568188
F19   F     F_    0.919943 0.178631 0.904718 -0.568185
F20   F     F_    0.919913 0.821107 0.904799 -0.567456
C109  C     C_1   0.514420 0.211436 0.698040 0.386798
N25   N     N_1   0.446697 0.223772 0.589819 -0.273290
C110  C     C_1   0.514375 0.789380 0.699542 0.396286
N26   N     N_1   0.446310 0.777311 0.591569 -0.271559
C111  C     C_1   0.014362 0.710624 0.699521 0.396301
N27   N     N_1   0.946294 0.722688 0.591548 -0.271581
C112  C     C_1   0.014425 0.288556 0.698026 0.386770
N28   N     N_1   0.946707 0.276218 0.589801 -0.273293
C113  C     C_1   0.722459 0.998780 0.515579 0.450026
N29   N     N_1   0.776770 0.000117 0.635321 -0.240434
C114  C     C_1   0.222465 0.501230 0.515562 0.449988
N30   N     N_1   0.276783 0.499887 0.635302 -0.240417

loop_
_geom_bond_atom_site_label_1
_geom_bond_atom_site_label_2
_ccdc_geom_bond_type
C83   C87   A    
C37   C43   A    
C108  N24   T    
C23   C103  S    
C75   F19   S    
C72   C108  S    
C14   C18   A    
C53   C55   A    
C107  N23   T    
C26   C90   S    
C80   F16   S    
Cu3   O6    S    
C1    O1    A    
C106  N22   T    
Cu4   N4    S    
C93   N9    T    
C40   O14   A    
C112  N28   T    
C3    O7    A    
C15   C19   A    
C104  N20   T    
C71   C107  S    
Cu1   O1    S    
C2    C29   S    
C9    C61   A    
C13   F9    S    
C28   C68   A    
C5    C11   A    
C19   C87   A    
C25   C89   S    
C105  N21   T    
C6    C12   A    
C12   C64   A    
C58   N2    A    
C42   C67   S    
C77   C83   A    
Cu3   O13   S    
C89   N5    T    
C6    C22   A    
C33   F1    S    
C49   C57   A    
C48   C56   A    
C25   C63   A    
C23   C67   A    
C26   C64   A    
C22   C66   A    
C9    C13   A    
C27   C61   A    
C6    C84   A    
C8    C24   A    
C15   F11   S    
C11   C15   A    
C42   O16   A    
Cu2   O4    S    
C99   N15   T    
C18   C110  S    
C44   C46   A    
C49   C51   A    
C62   C98   S    
C4    O4    A    
C50   C52   A    
C101  N17   T    
C5    C83   A    
C45   C49   A    
C73   F17   S    
Cu4   O15   S    
C35   F3    S    
C29   C85   A    
C60   C114  S    
C40   O10   A    
C21   C65   A    
C3    O3    A    
C31   C71   A    
C2    O2    A    
C33   C59   A    
C57   H1    S    
C77   F13   S    
C34   C60   A    
C10   C62   A    
C59   N1    A    
C63   C99   S    
C30   C70   A    
C52   C54   A    
C98   N14   T    
C41   C68   S    
C29   C69   A    
C45   C47   A    
C54   C94   S    
C46   C48   A    
C31   C87   A    
Cu1   O2    S    
C26   C66   A    
C12   C16   A    
C96   N12   T    
C25   C65   A    
C32   C72   A    
C53   C93   S    
Cu3   O5    S    
C79   C81   A    
C28   C92   S    
C76   C80   A    
C41   O11   A    
C82   C86   A    
C4    O8    A    
C51   C53   A    
C50   C58   A    
Cu3   O14   S    
Cu1   N1    S    
C16   F12   S    
C113  N29   T    
Cu2   O3    S    
C38   C44   A    
C36   F4    S    
C56   F8    S    
Cu2   Cu4   S    
C109  N25   T    
C2    O6    A    
C16   C20   A    
Cu1   O9    S    
C18   C86   A    
C38   C96   S    
Cu3   N3    S    
C59   C113  S    
C43   C45   A    
C92   N8    T    
C43   F5    S    
C60   N2    A    
C72   C74   A    
C7    C81   A    
C14   F10   S    
C110  N26   T    
C40   C65   S    
C10   C14   A    
C94   N10   T    
C39   C66   S    
C17   C85   A    
C30   C86   A    
Cu2   O12   S    
C70   C106  S    
C19   C111  S    
C47   C55   A    
Cu4   O8    S    
C7    C9    A    
C1    O5    A    
C57   N1    A    
C35   C37   A    
C24   C104  S    
C78   F14   S    
C8    C10   A    
C44   F6    S    
C84   C88   A    
C41   O15   A    
C47   N3    A    
C39   O9    A    
C91   N7    T    
C54   C56   A    
Cu2   N2    S    
C27   C91   S    
C33   C51   A    
C48   N4    A    
C46   C50   A    
C34   C52   A    
C55   F7    S    
C13   C17   A    
C64   C100  S    
C79   F15   S    
C61   C97   S    
C97   N13   T    
C58   H2    S    
C35   N3    A    
C90   N6    T    
C70   C76   A    
C39   O13   A    
C114  N30   T    
C95   N11   T    
C75   C79   A    
C7    C23   A    
C20   C88   A    
Cu1   O10   S    
C36   C38   A    
C1    C30   S    
C69   C105  S    
C80   C82   A    
C69   C75   A    
C37   C95   S    
C76   F20   S    
C21   C101  S    
C42   O12   A    
C3    C32   S    
C4    C31   S    
C27   C67   A    
C24   C68   A    
C111  N27   T    
C78   C84   A    
Cu4   O7    S    
C8    C82   A    
C5    C21   A    
C34   F2    S    
Cu1   Cu3   S    
C74   C78   A    
C71   C73   A    
C103  N19   T    
C73   C77   A    
C36   N4    A    
Cu2   O11   S    
C102  N18   T    
C100  N16   T    
C11   C63   A    
Cu4   O16   S    
C74   F18   S    
C81   C85   A    
C17   C109  S    
C28   C62   A    
C20   C112  S    
C22   C102  S    
C32   C88   A    
