data_mof_unit_285.cif
_audit_creation_date              2012-12-11T14:01:09-0500
_audit_creation_method            fapswitch 2.2
_symmetry_space_group_name_H-M    P1
_symmetry_Int_Tables_number       1
_space_group_crystal_system       triclinic
_cell_length_a                    19.111133
_cell_length_b                    10.985024
_cell_length_c                    18.795369
_cell_angle_alpha                 89.934628
_cell_angle_beta                  90.613825
_cell_angle_gamma                 89.721003
_cell_volume                      3945.55334956

loop_
_atom_site_label
_atom_site_type_symbol
_atom_type_description
_atom_site_fract_x
_atom_site_fract_y
_atom_site_fract_z
_atom_type_partial_charge
C1    C     C_R   0.272863 0.042467 0.853536 0.575008
C2    C     C_R   0.728788 0.048370 0.150190 0.545217
C3    C     C_R   0.772304 0.543574 0.852877 0.564450
C4    C     C_R   0.207425 0.490613 0.141112 0.543181
C5    C     C_R   0.484425 0.059831 0.067622 0.107175
C6    C     C_R   0.535827 0.037448 0.927938 0.118459
C7    C     C_R   0.956078 0.547810 0.082114 0.091272
C8    C     C_R   0.000378 0.552191 0.939069 0.134840
C9    C     C_R   0.958441 0.659024 0.044890 -0.033265
C10   C     C_R   0.984134 0.661651 0.974687 -0.025791
C11   C     C_R   0.501537 0.164684 0.028040 0.022086
C12   C     C_R   0.530770 0.153486 0.959468 0.028900
C13   C     C_2   0.247091 0.588705 0.921451 -0.058882
C14   C     C_2   0.750010 0.579101 0.079864 -0.118499
C15   C     C_2   0.779653 0.173632 0.931936 -0.022014
C16   C     C_2   0.250855 0.072558 0.082161 -0.096078
C17   C     C_2   0.214564 0.490395 0.064118 -0.015993
C18   C     C_2   0.746719 0.595955 0.919443 0.004754
C19   C     C_2   0.751038 0.106164 0.085288 0.051324
C20   C     C_2   0.249721 0.092021 0.921819 0.014062
C21   C     C_2   0.278486 0.491177 0.033535 -0.103591
C22   C     C_2   0.707303 0.524950 0.961812 -0.210980
C23   C     C_2   0.770567 0.031712 0.032296 -0.115357
C24   C     C_2   0.207687 0.023082 0.962877 -0.202603
C25   C     C_2   0.290574 0.516150 0.957622 -0.092852
C26   C     C_2   0.695684 0.551934 0.037074 -0.166971
C27   C     C_2   0.766648 0.062753 0.956849 -0.042268
C28   C     C_2   0.196569 0.047642 0.038630 -0.181123
C29   C     C_2   0.456766 0.830143 0.567951 -0.167417
C30   C     C_2   0.491171 0.830174 0.415261 -0.151508
C31   C     C_2   0.956933 0.330123 0.568015 -0.168750
C32   C     C_2   0.991015 0.330075 0.415194 -0.141401
C33   C     C_2   0.507767 0.749411 0.466270 0.037714
C34   C     C_2   0.460366 0.734737 0.524038 0.008066
C35   C     C_2   0.006617 0.248271 0.465967 0.040504
C36   C     C_2   0.959095 0.235130 0.523710 0.003945
C37   C     C_2   0.253582 0.611584 0.569733 -0.113208
C38   C     C_2   0.754684 0.566078 0.416625 -0.112874
C39   C     C_2   0.745125 0.065118 0.583739 -0.109201
C40   C     C_2   0.254672 0.065620 0.416500 -0.112876
C41   C     C_2   0.256377 0.602969 0.414493 -0.105635
C42   C     C_2   0.762334 0.568224 0.571807 -0.090596
C43   C     C_2   0.737807 0.067998 0.428293 -0.089055
C44   C     C_2   0.262258 0.067826 0.571712 -0.102180
C45   C     C_R   0.470390 0.820284 0.854909 0.569920
C46   C     C_R   0.527181 0.822948 0.147095 0.584192
C47   C     C_R   0.966762 0.320624 0.857113 0.557167
C48   C     C_R   0.025636 0.321837 0.148711 0.577384
C49   C     C_2   0.217341 0.681188 0.450791 -0.162461
C50   C     C_2   0.818138 0.563289 0.528739 -0.162677
C51   C     C_2   0.682182 0.060632 0.471511 -0.158379
C52   C     C_2   0.318055 0.062591 0.528649 -0.165232
C53   C     C_2   0.229369 0.700202 0.526134 -0.153837
C54   C     C_2   0.813340 0.587490 0.453190 -0.161529
C55   C     C_2   0.686723 0.087545 0.546747 -0.150037
C56   C     C_2   0.313335 0.086757 0.453086 -0.161752
C57   C     C_R   0.261303 0.638188 0.851783 0.567758
C58   C     C_R   0.738529 0.636872 0.148429 0.549988
C59   C     C_R   0.777330 0.194589 0.856576 0.546723
C60   C     C_R   0.238968 0.134917 0.149298 0.554914
C61   C     C_R   0.274159 0.041436 0.646003 0.546285
C62   C     C_R   0.725950 0.041699 0.353969 0.553485
C63   C     C_R   0.774164 0.541522 0.646044 0.551467
C64   C     C_R   0.228908 0.548000 0.350443 0.567375
C65   C     C_R   0.436454 0.819521 0.640683 0.533087
C66   C     C_R   0.528651 0.823837 0.350232 0.543397
C67   C     C_R   0.936475 0.319542 0.640685 0.535329
C68   C     C_R   0.028799 0.323791 0.350349 0.548515
C69   C     C_R   0.261396 0.641735 0.644103 0.544733
C70   C     C_R   0.740315 0.634107 0.352352 0.547190
C71   C     C_R   0.759747 0.134014 0.647596 0.553813
C72   C     C_R   0.240317 0.134023 0.352329 0.547026
C73   C     C_R   0.489235 0.834493 0.077660 0.022754
C74   C     C_R   0.500147 0.822438 0.928775 -0.035996
C75   C     C_R   0.980239 0.328937 0.084066 0.025553
C76   C     C_R   0.985110 0.325080 0.934680 0.012026
C77   C     C_R   0.494762 0.943281 0.037392 -0.043390
C78   C     C_R   0.509590 0.934753 0.963898 -0.044576
C79   C     C_R   0.973538 0.438816 0.046499 -0.068971
C80   C     C_R   0.985427 0.438764 0.971962 -0.022178
C81   C     C_R   0.492418 0.714962 0.969884 -0.048705
C82   C     C_R   0.475645 0.724753 0.042191 -0.017075
C83   C     C_R   0.977676 0.214962 0.974835 -0.053785
C84   C     C_R   0.967346 0.219672 0.048344 -0.026753
Cr1   Cr    Cr6+3 0.230530 0.836340 0.748870 1.071332
Cr2   Cr    Cr6+3 0.769470 0.836340 0.251130 1.123956
Cr3   Cr    Cr6+3 0.730530 0.336340 0.748870 1.083227
Cr4   Cr    Cr6+3 0.269470 0.336340 0.251130 1.107029
Cr5   Cr    Cr6+3 0.387420 0.989430 0.750820 1.109530
Cr6   Cr    Cr6+3 0.612580 0.989430 0.249180 1.064356
Cr7   Cr    Cr6+3 0.887420 0.489430 0.750820 1.103889
Cr8   Cr    Cr6+3 0.112580 0.489430 0.249180 1.076311
Cr9   Cr    Cr6+3 0.385640 0.677860 0.749230 1.081332
Cr10  Cr    Cr6+3 0.614360 0.677860 0.250770 1.067136
Cr11  Cr    Cr6+3 0.885640 0.177860 0.749230 1.091726
Cr12  Cr    Cr6+3 0.114360 0.177860 0.250770 1.077246
H1    H     H_    0.171505 0.724492 0.426977 0.177155
H2    H     H_    0.870627 0.549686 0.550114 0.154921
H3    H     H_    0.629970 0.043455 0.450353 0.159311
H4    H     H_    0.370525 0.049066 0.550071 0.154744
H5    H     H_    0.212563 0.787748 0.547024 0.171738
H6    H     H_    0.857147 0.634593 0.429350 0.181973
H7    H     H_    0.643186 0.137213 0.569762 0.180542
H8    H     H_    0.357166 0.133862 0.429294 0.177423
H9    H     H_    0.304322 0.565516 0.437192 0.152376
H10   H     H_    0.709531 0.582095 0.552172 0.155708
H11   H     H_    0.790475 0.084829 0.447847 0.132704
H12   H     H_    0.209391 0.081505 0.552039 0.150804
H13   H     H_    0.270877 0.523364 0.550587 0.108201
H14   H     H_    0.712746 0.512318 0.439092 0.141386
H15   H     H_    0.786353 0.008553 0.561825 0.119948
H16   H     H_    0.212718 0.011794 0.438910 0.131214
H17   H     H_    0.325179 0.483797 0.066312 0.212211
H18   H     H_    0.687794 0.438177 0.942835 0.183213
H19   H     H_    0.779569 0.936064 0.043861 0.122528
H20   H     H_    0.183307 0.941404 0.941769 0.154909
H21   H     H_    0.339521 0.487898 0.934294 0.239200
H22   H     H_    0.642310 0.551679 0.056398 0.160041
H23   H     H_    0.753663 0.989998 0.920032 0.187525
H24   H     H_    0.142962 0.051298 0.057227 0.160493
H25   H     H_    0.201883 0.627954 0.947379 0.131113
H26   H     H_    0.802874 0.577014 0.059186 0.127430
H27   H     H_    0.799422 0.246314 0.965361 0.079641
H28   H     H_    0.304041 0.066729 0.062561 0.147566
H29   H     H_    0.444938 0.888018 0.418269 0.092822
H30   H     H_    0.479603 0.916832 0.552266 0.098716
H31   H     H_    0.945484 0.389562 0.418382 0.093109
H32   H     H_    0.980797 0.416086 0.552584 0.106524
O1    O     O_R   0.215090 0.709860 0.828130 -0.493327
O2    O     O_R   0.784910 0.709860 0.171870 -0.469304
O3    O     O_R   0.715090 0.209860 0.828130 -0.459025
O4    O     O_R   0.284910 0.209860 0.171870 -0.470034
O5    O     O_R   0.445660 0.919250 0.676780 -0.480169
O6    O     O_R   0.554340 0.919250 0.323220 -0.499864
O7    O     O_R   0.945660 0.419250 0.676780 -0.476866
O8    O     O_R   0.054340 0.419250 0.323220 -0.486233
O9    O     O_R   0.456260 0.718170 0.670000 -0.494323
O10   O     O_R   0.543740 0.718170 0.330000 -0.486557
O11   O     O_R   0.956260 0.218170 0.670000 -0.492745
O12   O     O_R   0.043740 0.218170 0.330000 -0.486590
O13   O     O_R   0.320940 0.626760 0.674370 -0.535212
O14   O     O_R   0.679060 0.626760 0.325630 -0.507672
O15   O     O_R   0.820940 0.126760 0.674370 -0.537118
O16   O     O_R   0.179060 0.126760 0.325630 -0.505657
O17   O     O_3   0.334530 0.834540 0.749640 -0.310688
O18   O     O_3   0.665470 0.834540 0.250360 -0.287877
O19   O     O_3   0.834530 0.334540 0.749640 -0.340821
O20   O     O_3   0.165470 0.334540 0.250360 -0.310255
O21   O     O_R   0.236990 0.958390 0.823710 -0.516465
O22   O     O_R   0.763010 0.958390 0.176290 -0.477788
O23   O     O_R   0.736990 0.458390 0.823710 -0.536428
O24   O     O_R   0.263010 0.458390 0.176290 -0.465935
O25   O     O_R   0.332380 0.074750 0.830850 -0.439564
O26   O     O_R   0.667620 0.074750 0.169150 -0.499781
O27   O     O_R   0.832380 0.574750 0.830850 -0.435310
O28   O     O_R   0.167620 0.574750 0.169150 -0.500091
O29   O     O_R   0.445800 0.917770 0.825070 -0.464871
O30   O     O_R   0.554200 0.917770 0.174930 -0.485698
O31   O     O_R   0.945800 0.417770 0.825070 -0.474838
O32   O     O_R   0.054200 0.417770 0.174930 -0.509269
O33   O     O_R   0.456410 0.716580 0.829970 -0.490896
O34   O     O_R   0.543590 0.716580 0.170030 -0.493133
O35   O     O_R   0.956410 0.216580 0.829970 -0.495284
O36   O     O_R   0.043590 0.216580 0.170030 -0.486888
O37   O     O_R   0.321080 0.625290 0.822650 -0.477415
O38   O     O_R   0.678920 0.625290 0.177350 -0.505651
O39   O     O_R   0.821080 0.125290 0.822650 -0.445372
O40   O     O_R   0.178920 0.125290 0.177350 -0.504970
O41   O     O_R   0.214930 0.711450 0.668160 -0.485764
O42   O     O_R   0.785070 0.711450 0.331840 -0.486610
O43   O     O_R   0.714930 0.211450 0.668160 -0.483992
O44   O     O_R   0.285070 0.211450 0.331840 -0.496392
O45   O     O_R   0.236850 0.959870 0.675420 -0.493994
O46   O     O_R   0.763150 0.959870 0.324580 -0.473230
O47   O     O_R   0.736850 0.459870 0.675420 -0.483487
O48   O     O_R   0.263150 0.459870 0.324580 -0.480671
O49   O     O_R   0.332230 0.076350 0.670880 -0.507863
O50   O     O_R   0.667770 0.076350 0.329120 -0.513124
O51   O     O_R   0.832230 0.576350 0.670880 -0.505529
O52   O     O_R   0.167770 0.576350 0.329120 -0.502098
C85   C     C_2   0.508209 0.594525 0.937515 0.216485
H33   H     H_    0.553322 0.585562 0.903268 0.135790
O53   O     O_2   0.469357 0.507798 0.944372 -0.533220
C86   C     C_2   0.445901 0.621391 0.082540 0.264695
H34   H     H_    0.457055 0.529206 0.068098 0.177607
O54   O     O_2   0.408168 0.639883 0.133519 -0.479171
C87   C     C_2   0.980891 0.093252 0.941167 0.222137
H35   H     H_    0.027725 0.065285 0.913272 0.137649
O55   O     O_2   0.929668 0.027314 0.940875 -0.488795
C88   C     C_2   0.946655 0.109314 0.089074 0.290067
H36   H     H_    0.962564 0.019730 0.071847 0.134133
O56   O     O_2   0.911756 0.118581 0.142881 -0.480749
I1    I     I_    0.431896 0.079552 0.168170 -0.238526
I2    I     I_    0.599848 0.009676 0.835714 -0.232654
I3    I     I_    0.912836 0.538788 0.187826 -0.249132
I4    I     I_    0.070646 0.562596 0.849839 -0.191234
C89   C     C_2   0.933272 0.773353 0.077908 0.231303
H37   H     H_    0.902793 0.837306 0.046168 0.135415
O57   O     O_2   0.948356 0.799412 0.139262 -0.459520
C90   C     C_2   0.998428 0.780372 0.940737 0.288135
H38   H     H_    0.020774 0.853260 0.972342 0.078227
O58   O     O_2   0.983769 0.798685 0.878236 -0.410433
C91   C     C_2   0.487676 0.286419 0.057874 0.278662
H39   H     H_    0.529126 0.353347 0.060753 0.099487
O59   O     O_2   0.428989 0.313816 0.077412 -0.486671
C92   C     C_2   0.552382 0.263974 0.919836 0.332624
H40   H     H_    0.574525 0.340803 0.947987 0.114566
O60   O     O_2   0.543079 0.272548 0.855676 -0.443019
C93   C     C_2   0.149281 0.469709 0.024320 0.173207
H41   H     H_    0.102528 0.515463 0.041764 0.124545
O61   O     O_2   0.147020 0.398481 0.974562 -0.524771
C94   C     C_2   0.767767 0.721096 0.940676 0.208086
H42   H     H_    0.741496 0.766287 0.984116 0.084721
O62   O     O_2   0.813692 0.775439 0.909283 -0.448104
C95   C     C_2   0.727497 0.233823 0.075672 0.214466
H43   H     H_    0.751591 0.305350 0.107068 0.124464
O63   O     O_2   0.678053 0.257979 0.036492 -0.572306
C96   C     C_2   0.278743 0.210092 0.947185 0.269168
H44   H     H_    0.256026 0.255717 0.992384 0.155547
O64   O     O_2   0.328557 0.257296 0.918112 -0.457132
C97   C     C_2   0.576546 0.684757 0.471260 0.297397
H45   H     H_    0.620971 0.716536 0.441221 0.097656
O65   O     O_2   0.584349 0.597018 0.510507 -0.489508
C98   C     C_2   0.429026 0.612573 0.535422 0.287435
H46   H     H_    0.400428 0.591134 0.582450 0.143227
O66   O     O_2   0.435055 0.532974 0.490547 -0.477592
C99   C     C_2   0.074675 0.181178 0.471017 0.296815
H47   H     H_    0.119517 0.211512 0.441133 0.099971
O67   O     O_2   0.081492 0.093138 0.510230 -0.494033
C100  C     C_2   0.926294 0.114164 0.534702 0.279928
H48   H     H_    0.900343 0.091444 0.583063 0.141568
O68   O     O_2   0.928410 0.036886 0.488083 -0.476870

loop_
_geom_bond_atom_site_label_1
_geom_bond_atom_site_label_2
_ccdc_geom_bond_type
Cr12  O12   S    
C16   C28   D    
C91   H39   S    
C38   C70   S    
Cr10  O18   S    
C88   H36   S    
C14   H26   S    
C37   C69   S    
Cr8   O20   S    
C67   O7    A    
C35   C36   S    
C50   C54   S    
C81   C85   S    
C83   C87   S    
C98   H46   S    
C60   O4    A    
Cr7   O19   S    
C81   C82   A    
C96   H44   S    
Cr9   O13   S    
C40   H16   S    
C47   O31   A    
C77   C78   A    
Cr5   O17   S    
C91   O59   D    
C59   O3    A    
C60   O40   A    
C7    C79   A    
C15   H27   S    
C2    O22   A    
Cr4   O44   S    
C72   O44   A    
C32   H31   S    
C57   O1    A    
Cr1   O17   S    
C47   C76   S    
C5    C11   A    
C17   C93   S    
Cr2   O22   S    
C6    C12   A    
C64   O52   A    
C92   O60   D    
C75   C84   A    
C6    C78   A    
C13   C57   S    
C69   O13   A    
C46   O30   A    
C82   C86   S    
C63   O51   A    
C86   H34   S    
C3    C18   S    
C72   O16   A    
C16   C60   S    
Cr3   O3    S    
C89   O57   D    
C45   O33   A    
Cr8   O52   S    
Cr1   O1    S    
C66   O6    A    
Cr5   O25   S    
C39   C55   D    
C99   H47   S    
C53   H5    S    
C90   H38   S    
C40   C56   D    
C66   O10   A    
Cr1   O45   S    
Cr12  O40   S    
C45   O29   A    
Cr9   O17   S    
Cr5   O49   S    
C64   O48   A    
C67   O11   A    
C9    C10   A    
Cr10  O34   S    
C37   H13   S    
C65   O9    A    
C32   C68   S    
C47   O35   A    
C44   C52   D    
C39   H15   S    
C30   H29   S    
Cr9   O37   S    
C2    O26   A    
C97   O65   D    
Cr2   O42   S    
C29   H30   S    
Cr4   O24   S    
C48   C75   S    
Cr10  O38   S    
Cr8   O8    S    
C20   C96   S    
C31   H32   S    
C4    O24   A    
Cr2   O18   S    
C76   C83   A    
C41   C49   D    
C9    C89   S    
C93   H41   S    
Cr1   O21   S    
C44   H12   S    
C51   H3    S    
C14   C58   S    
C50   H2    S    
Cr5   O5    S    
Cr10  O14   S    
C32   C35   D    
C76   C80   A    
C68   O8    A    
Cr11  O19   S    
C56   H8    S    
C21   H17   S    
C28   H24   S    
C85   O53   D    
C46   O34   A    
C92   H40   S    
Cr2   O2    S    
C69   O41   A    
C51   C55   S    
C85   H33   S    
C98   O66   D    
C29   C34   D    
C52   H4    S    
C100  H48   S    
Cr1   O41   S    
Cr12  O36   S    
Cr12  O20   S    
C25   H21   S    
C45   C74   S    
Cr2   O46   S    
C12   C92   S    
Cr6   O30   S    
C19   C23   D    
C95   H43   S    
Cr7   O27   S    
C97   H45   S    
Cr11  O35   S    
Cr12  O16   S    
C48   O32   A    
C15   C27   D    
C83   C84   A    
C38   C54   D    
Cr9   O33   S    
C18   C94   S    
C100  O68   D    
Cr3   O43   S    
C3    O27   A    
C33   C34   S    
Cr4   O20   S    
C61   O45   A    
Cr7   O31   S    
Cr8   O28   S    
C11   C91   S    
C14   C26   D    
C55   H7    S    
C1    O25   A    
C42   H10   S    
Cr5   O29   S    
C30   C66   S    
C41   H9    S    
C42   C50   D    
C29   C65   S    
C4    C17   S    
C8    C10   A    
C99   O67   D    
C94   O62   D    
C24   H20   S    
C23   C27   S    
C22   C26   S    
Cr10  O10   S    
C71   O43   A    
Cr11  O11   S    
C68   O12   A    
C38   H14   S    
Cr4   O4    S    
C74   C81   A    
C5    C77   A    
C4    O28   A    
C73   C82   A    
C6    I2    S    
C59   O39   A    
C5    I1    S    
C7    C9    A    
C21   C25   S    
C1    C20   S    
C88   O56   D    
C40   C72   S    
C30   C33   D    
C13   H25   S    
C2    C19   S    
C18   C22   D    
C15   C59   S    
C54   H6    S    
C10   C90   S    
Cr11  O15   S    
C24   C28   S    
C49   H1    S    
C1    O21   A    
C13   C25   D    
Cr11  O39   S    
C62   O50   A    
C70   O14   A    
C11   C12   A    
C63   O47   A    
C48   O36   A    
C27   H23   S    
C44   C61   S    
Cr3   O47   S    
C74   C78   A    
C3    O23   A    
Cr4   O48   S    
C26   H22   S    
C96   O64   D    
Cr8   O32   S    
Cr7   O51   S    
C34   C98   S    
C95   O63   D    
C70   O42   A    
C37   C53   D    
C87   H35   S    
Cr6   O18   S    
C61   O49   A    
C43   C51   D    
Cr6   O26   S    
C71   O15   A    
C75   C79   A    
C58   O2    A    
Cr6   O6    S    
C35   C99   S    
C93   O61   D    
C86   O54   D    
C8    I4    S    
C19   C95   S    
C46   C73   S    
C16   H28   S    
C89   H37   S    
C58   O38   A    
C17   C21   D    
C84   C88   S    
C87   O55   D    
C49   C53   S    
Cr9   O9    S    
C31   C67   S    
C23   H19   S    
C79   C80   A    
C22   H18   S    
Cr7   O7    S    
C94   H42   S    
C73   C77   A    
C36   C100  S    
Cr3   O19   S    
C8    C80   A    
C39   C71   S    
C31   C36   D    
C57   O37   A    
Cr3   O23   S    
C41   C64   S    
C43   H11   S    
C7    I3    S    
C42   C63   S    
C20   C24   D    
C90   O58   D    
C65   O5    A    
C52   C56   S    
C43   C62   S    
C33   C97   S    
Cr6   O50   S    
C62   O46   A    
