data_mof_unit_606.cif
_audit_creation_date              2012-12-11T16:29:33-0500
_audit_creation_method            fapswitch 2.2
_symmetry_space_group_name_H-M    P1
_symmetry_Int_Tables_number       1
_space_group_crystal_system       triclinic
_cell_length_a                    6.95339
_cell_length_b                    17.346967
_cell_length_c                    18.746286
_cell_angle_alpha                 106.306069
_cell_angle_beta                  89.717198
_cell_angle_gamma                 90.461833
_cell_volume                      2170.14759743

loop_
_atom_site_label
_atom_site_type_symbol
_atom_type_description
_atom_site_fract_x
_atom_site_fract_y
_atom_site_fract_z
_atom_type_partial_charge
O1    O     O_R   0.494360 0.415680 0.413760 -0.533362
O2    O     O_R   0.818810 0.432910 0.557230 -0.526744
O3    O     O_R   0.994290 0.584320 0.586240 -0.533013
C1    C     C_R   0.649845 0.415986 0.580641 0.711182
O4    O     O_R   0.823740 0.406440 0.412520 -0.534725
O5    O     O_R   0.999250 0.557660 0.440500 -0.523911
C2    C     C_R   0.654768 0.383610 0.384913 0.694638
O6    O     O_R   0.489400 0.442340 0.559500 -0.523459
O7    O     O_3   0.662500 0.549650 0.509350 -0.359792
V1    V     V_3+5 0.935340 0.490790 0.498270 1.417385
O8    O     O_R   0.329270 0.567090 0.442770 -0.526204
C3    C     C_R   0.161133 0.584062 0.419397 0.712192
O9    O     O_R   0.324340 0.593560 0.587480 -0.535404
C4    C     C_R   0.155398 0.616344 0.615121 0.695704
V2    V     V_3+5 0.435970 0.509210 0.501730 1.414789
O10   O     O_3   0.158940 0.450350 0.490650 -0.358209
C5    C     C_R   0.310819 0.605191 0.755042 -0.141248
C6    C     C_R   0.385434 0.597529 0.821505 -0.122119
C7    C     C_R   0.372412 0.660791 0.885962 -0.121341
C8    C     C_R   0.284920 0.732252 0.884440 -0.131995
C9    C     C_R   0.210332 0.742420 0.817523 0.070557
C10   C     C_R   0.223291 0.677435 0.751398 0.068459
C11   C     C_R   0.119976 0.815071 0.816154 -0.186181
C12   C     C_R   0.042143 0.822537 0.748565 0.068737
C13   C     C_R   0.055109 0.757555 0.682441 0.069748
C14   C     C_R   0.145423 0.684895 0.683810 -0.188381
C15   C     C_R   0.954650 0.894789 0.744922 -0.141365
C16   C     C_R   0.880088 0.902463 0.678456 -0.122830
C17   C     C_R   0.893126 0.839205 0.613997 -0.120750
C18   C     C_R   0.980572 0.767736 0.615521 -0.130695
H1    H     H_    0.321411 0.553486 0.706965 0.109917
H2    H     H_    0.452214 0.541876 0.823100 0.117407
H3    H     H_    0.428966 0.654256 0.937634 0.114309
H4    H     H_    0.274982 0.778845 0.936538 0.102926
H5    H     H_    0.944057 0.946493 0.793000 0.109298
H6    H     H_    0.813343 0.958122 0.676859 0.117406
H7    H     H_    0.990530 0.721147 0.563423 0.105794
C19   C     C_1   0.111671 0.864108 0.132771 -0.215592
C20   C     C_1   0.119157 0.821625 0.176407 -0.010837
C21   C     C_1   0.128568 0.771427 0.228312 -0.009408
C22   C     C_1   0.136568 0.729088 0.272078 -0.007520
C23   C     C_1   0.145887 0.678774 0.323899 -0.005243
C24   C     C_1   0.153303 0.636125 0.367405 -0.220383
C25   C     C_1   0.641285 0.364065 0.632681 -0.220254
C26   C     C_1   0.637114 0.321477 0.676257 -0.004313
C27   C     C_1   0.633774 0.271220 0.728139 -0.005063
C28   C     C_1   0.631299 0.228878 0.771945 -0.005382
C29   C     C_1   0.627959 0.178620 0.823826 -0.005506
C30   C     C_1   0.623790 0.136028 0.867399 -0.216876
H8    H     H_    0.859132 0.139530 0.442324 0.138842
C31   C     C_R   0.531358 0.404580 0.244790 -0.144857
C32   C     C_R   0.472567 0.417205 0.178101 -0.121091
C33   C     C_R   0.463637 0.353353 0.114002 -0.114030
C34   C     C_R   0.512696 0.276373 0.116198 -0.139184
C35   C     C_R   0.570323 0.261234 0.183435 0.058097
C36   C     C_R   0.580639 0.326874 0.248966 0.075967
C37   C     C_R   0.620359 0.182623 0.185552 -0.195799
C38   C     C_R   0.681595 0.169399 0.253920 -0.023425
C39   C     C_R   0.694891 0.236289 0.319049 0.022796
C40   C     C_R   0.643626 0.314536 0.316607 -0.160515
C41   C     C_R   0.726549 0.091192 0.260624 0.442158
C42   C     C_R   0.795809 0.082400 0.327982 -0.184764
C43   C     C_R   0.809098 0.147705 0.390350 -0.200672
C44   C     C_R   0.756726 0.223406 0.386555 -0.138395
H9    H     H_    0.539029 0.456664 0.292690 0.105461
H10   H     H_    0.435264 0.477019 0.176061 0.117306
H11   H     H_    0.419513 0.363554 0.062116 0.114988
H12   H     H_    0.505935 0.229295 0.064328 0.095801
H13   H     H_    0.837626 0.023773 0.332024 0.131494
H14   H     H_    0.765974 0.271670 0.437519 0.116566
O11   O     O_R   0.775690 0.057750 0.940570 -0.527928
O12   O     O_R   0.441200 0.093570 0.087490 -0.544252
O13   O     O_R   0.265840 0.942320 0.059480 -0.536201
C45   C     C_R   0.609939 0.115447 0.115884 0.797709
O14   O     O_R   0.446270 0.067110 0.942790 -0.528671
O15   O     O_R   0.270950 0.915660 0.913750 -0.534485
C46   C     C_R   0.615237 0.084088 0.919422 0.698509
O16   O     O_R   0.770580 0.084400 0.086300 -0.512606
O17   O     O_3   0.602640 0.950400 0.990690 -0.359081
V3    V     V_3+5 0.329740 0.009200 0.001730 1.415398
O18   O     O_R   0.940900 0.906360 0.912450 -0.539041
C47   C     C_R   0.109892 0.883605 0.884848 0.687120
O19   O     O_R   0.935830 0.932820 0.057160 -0.502108
C48   C     C_R   0.103935 0.915978 0.080630 0.734116
V4    V     V_3+5 0.829130 0.990680 0.998180 1.462373
O20   O     O_3   0.106100 0.049590 0.009310 -0.362419
H15   H     H_    0.836620 0.845752 0.562322 0.114899
O21   O     O_3   0.714251 0.023055 0.201016 -0.561385
C49   C     C_3   0.551337 0.977825 0.210342 -0.233527
H16   H     H_    0.417193 0.013577 0.214828 0.125242
H17   H     H_    0.566262 0.954224 0.259402 0.127038
H18   H     H_    0.538139 0.925250 0.160670 0.170208

loop_
_geom_bond_atom_site_label_1
_geom_bond_atom_site_label_2
_ccdc_geom_bond_type
C35   C36   A    
C11   C47   S    
C22   C23   S    
C7    C8    A    
C12   C15   A    
O17   V4    S    
C1    O6    A    
O18   C47   A    
V4    O20   S    
C25   C26   T    
C39   C44   A    
C17   C18   A    
C16   C17   A    
C31   C36   A    
C3    C24   S    
O5    C3    A    
C19   C20   T    
C34   H12   S    
V2    O10   S    
C6    C7    A    
C31   H9    S    
V3    O20   S    
C27   C28   T    
O8    V2    S    
O19   C48   A    
C11   C12   A    
O1    V2    S    
C44   H14   S    
C49   H17   S    
O7    V1    S    
O13   C48   A    
C8    H4    S    
O21   C49   S    
C38   C41   A    
C39   C40   A    
O11   V4    S    
O9    C4    A    
H8    C43   S    
C31   C32   A    
C12   C13   A    
O12   C45   A    
C7    H3    S    
O15   C47   A    
C20   C21   S    
O4    C2    A    
C1    C25   S    
C15   H5    S    
C38   C39   A    
C26   C27   S    
C36   C40   A    
C42   H13   S    
C37   C45   S    
O2    C1    A    
C42   C43   A    
C41   O21   S    
C28   C29   S    
C5    C6    A    
C35   C37   A    
C4    C14   S    
C49   H18   S    
O14   C46   A    
C16   H6    S    
O3    C4    A    
O16   V4    S    
C29   C30   T    
O19   V4    S    
O6    V2    S    
O9    V2    S    
C10   C14   A    
C5    H1    S    
O17   V3    S    
C6    H2    S    
C23   C24   T    
O2    V1    S    
C2    C40   S    
O11   C46   A    
C32   H10   S    
C32   C33   A    
O14   V3    S    
C13   C18   A    
C34   C35   A    
C21   C22   T    
C19   C48   S    
O1    C2    A    
O15   V3    S    
O5    V1    S    
O8    C3    A    
C33   C34   A    
C5    C10   A    
C9    C11   A    
C13   C14   A    
O4    V1    S    
O12   V3    S    
O3    V1    S    
V1    O10   S    
C37   C38   A    
O13   V3    S    
C30   C46   S    
O7    V2    S    
C41   C42   A    
C33   H11   S    
C17   H15   S    
C43   C44   A    
C8    C9    A    
C18   H7    S    
C45   O16   A    
C15   C16   A    
C49   H16   S    
C9    C10   A    
O18   V4    S    
