data_mof_unit_1421.cif
_audit_creation_date              2012-12-10T20:35:48-0500
_audit_creation_method            fapswitch 2.2
_symmetry_space_group_name_H-M    P1
_symmetry_Int_Tables_number       1
_space_group_crystal_system       triclinic
_cell_length_a                    15.732493
_cell_length_b                    10.735049
_cell_length_c                    9.882166
_cell_angle_alpha                 89.902576
_cell_angle_beta                  90.069104
_cell_angle_gamma                 89.433475
_cell_volume                      1668.90471005

loop_
_atom_site_label
_atom_site_type_symbol
_atom_type_description
_atom_site_fract_x
_atom_site_fract_y
_atom_site_fract_z
_atom_type_partial_charge
C1    C     C_R   0.498860 0.260367 0.500004 0.910805
C2    C     C_3   0.948708 0.457239 0.645216 -0.477418
C3    C     C_3   0.917009 0.495227 0.501540 0.306128
C4    C     C_3   0.949813 0.628614 0.473323 -0.414794
C5    C     C_3   0.047395 0.628024 0.467938 -0.421924
C6    C     C_1   0.825594 0.496591 0.500953 -0.112021
C7    C     C_1   0.174191 0.500065 0.503177 -0.124220
C8    C     C_1   0.249473 0.501048 0.500873 -0.215750
C9    C     C_R   0.493486 0.063144 0.620277 0.135353
C10   C     C_R   0.493488 0.128818 0.498964 -0.190134
C11   C     C_R   0.492819 0.066241 0.375105 -0.318512
C12   C     C_R   0.338334 0.500809 0.500092 0.905193
C13   C     C_R   0.502373 0.938527 0.372547 0.463625
C14   C     C_R   0.503297 0.872320 0.496297 -0.252556
C15   C     C_R   0.498249 0.935599 0.618672 0.091263
C16   C     C_3   0.561922 0.933065 0.731102 -0.485650
C17   C     C_3   0.555005 0.073352 0.734880 -0.458817
C18   C     C_R   0.432283 0.454056 0.071414 0.181985
C19   C     C_R   0.570910 0.530262 0.071956 -0.128449
C20   C     C_R   0.571137 0.529258 0.928149 -0.177332
C21   C     C_R   0.430890 0.460051 0.929632 0.201427
C22   C     C_3   0.341041 0.509991 0.930293 -0.159939
C23   C     C_R   0.503052 0.739834 0.499215 0.885833
C24   C     C_3   0.341663 0.494078 0.083834 -0.519537
C25   C     C_R   0.661602 0.499824 0.500040 0.893174
C26   C     C_3   0.048414 0.447643 0.649471 0.261357
C27   C     C_3   0.051266 0.410604 0.389278 -0.474543
C28   C     C_3   0.953277 0.397504 0.397946 -0.030436
C29   C     C_1   0.750352 0.498209 0.500406 -0.207897
C30   C     C_3   0.082684 0.496744 0.506111 0.301036
H1    H     H_    0.919084 0.367376 0.674107 0.160969
H2    H     H_    0.924348 0.525451 0.720727 0.179457
H3    H     H_    0.924027 0.668476 0.378392 0.161933
H4    H     H_    0.492712 0.116013 0.279570 0.195181
H5    H     H_    0.536890 0.888081 0.823053 0.217959
H6    H     H_    0.625485 0.898310 0.698341 0.195126
H7    H     H_    0.524213 0.109296 0.828407 0.201880
H8    H     H_    0.614923 0.120648 0.705995 0.199094
H9    H     H_    0.627325 0.558846 0.125734 0.156558
H10   H     H_    0.627803 0.556727 0.874489 0.161064
H11   H     H_    0.296648 0.444287 0.880591 0.147872
H12   H     H_    0.332589 0.580614 0.143606 0.224862
H13   H     H_    0.301046 0.416116 0.118487 0.179841
H14   H     H_    0.069973 0.449918 0.289502 0.186877
H15   H     H_    0.082589 0.317382 0.392449 0.146967
H16   H     H_    0.941490 0.304205 0.443153 0.115115
H17   H     H_    0.073780 0.704041 0.529387 0.162074
H18   H     H_    0.067337 0.652443 0.363105 0.170944
H19   H     H_    0.927505 0.693099 0.553979 0.158196
N1    N     N_R   0.499430 0.499140 0.142800 -0.099225
N2    N     N_R   0.499430 0.499180 0.857150 -0.111772
O1    O     O_R   0.500010 0.316790 0.614690 -0.614800
O2    O     O_R   0.500000 0.316760 0.385350 -0.624053
O3    O     O_R   0.377150 0.500020 0.614720 -0.631463
O4    O     O_R   0.377140 0.499990 0.385380 -0.614256
O5    O     O_R   0.500000 0.683240 0.614650 -0.621547
O6    O     O_R   0.499990 0.683210 0.385310 -0.575709
O7    O     O_R   0.622860 0.500010 0.614620 -0.621466
O8    O     O_R   0.622850 0.499980 0.385280 -0.630367
Zn1   Zn    Zn3+2 0.500010 0.500020 0.653130 0.930118
Zn2   Zn    Zn3+2 0.499990 0.499980 0.346870 0.950172
C31   C     C_3   0.084289 0.519354 0.776684 -0.392559
C32   C     C_3   0.073695 0.661976 0.784856 -0.360299
C33   C     C_3   0.071801 0.707713 0.931381 -0.940358
H20   H     H_    0.010306 0.683339 0.978912 0.264941
H21   H     H_    0.123949 0.664925 0.991708 0.260622
H22   H     H_    0.078332 0.810595 0.933570 0.256854
H23   H     H_    0.128464 0.706557 0.733808 0.217850
H24   H     H_    0.013579 0.693637 0.737656 0.228969
H25   H     H_    0.052195 0.481441 0.867605 0.213095
H26   H     H_    0.153077 0.497215 0.788570 0.184054
O9    O     O_3   0.516729 0.881966 0.248941 -0.590088
C34   C     C_3   0.605646 0.874179 0.227198 0.124034
H27   H     H_    0.631837 0.788877 0.276487 0.151162
H28   H     H_    0.640705 0.956603 0.266602 0.115599
C35   C     C_3   0.622977 0.866753 0.076402 -0.880830
H29   H     H_    0.603972 0.956051 0.027719 0.256526
H30   H     H_    0.691805 0.850006 0.058456 0.207259
H31   H     H_    0.586400 0.789622 0.030940 0.258875
C36   C     C_3   0.075865 0.305947 0.667654 -0.446987
C37   C     C_3   0.059643 0.246684 0.807817 -0.377572
C38   C     C_3   0.073641 0.105674 0.804368 -0.891948
H32   H     H_    0.027954 0.061639 0.733726 0.256832
H33   H     H_    0.139566 0.083131 0.771730 0.263387
H34   H     H_    0.063633 0.066333 0.907058 0.245612
H35   H     H_    0.104410 0.285176 0.883679 0.216216
H36   H     H_    0.993642 0.265784 0.841822 0.219335
H37   H     H_    0.042319 0.247345 0.593065 0.203407
H38   H     H_    0.144914 0.295287 0.646365 0.201618
C39   C     C_3   0.325486 0.646816 0.884826 -0.352396
C40   C     C_3   0.390420 0.742954 0.934469 -0.292354
C41   C     C_3   0.359035 0.875528 0.906045 -0.897946
H39   H     H_    0.349691 0.889697 0.795651 0.261734
H40   H     H_    0.297986 0.893638 0.959195 0.260212
H41   H     H_    0.406442 0.943382 0.943206 0.264895
H42   H     H_    0.402463 0.734316 0.044616 0.248384
H43   H     H_    0.451365 0.727938 0.881123 0.236604
H44   H     H_    0.322054 0.651674 0.773100 0.223452
H45   H     H_    0.261708 0.674645 0.921975 0.204149
C42   C     C_3   0.909559 0.387236 0.257009 -0.399839
C43   C     C_3   0.900580 0.508613 0.175715 -0.312801
C44   C     C_3   0.871474 0.482864 0.031074 -0.937577
H46   H     H_    0.918654 0.423100 0.978057 0.254816
H47   H     H_    0.808927 0.435699 0.031459 0.267623
H48   H     H_    0.864799 0.572070 0.974840 0.247972
H49   H     H_    0.851471 0.569175 0.223086 0.219918
H50   H     H_    0.962079 0.558201 0.172374 0.217229
H51   H     H_    0.946202 0.318092 0.196165 0.199007
H52   H     H_    0.845048 0.347648 0.270802 0.196459

loop_
_geom_bond_atom_site_label_1
_geom_bond_atom_site_label_2
_ccdc_geom_bond_type
C43   H50   S    
C43   C44   S    
C18   C21   A    
C24   H12   S    
C34   H27   S    
C19   C20   A    
C35   H31   S    
C3    C6    S    
C37   C38   S    
C7    C8    T    
O3    Zn1   S    
C5    H17   S    
C28   H16   S    
C18   C24   S    
C3    C28   S    
C35   H30   S    
C20   N2    A    
C16   H5    S    
C20   H10   S    
C22   H11   S    
O7    Zn1   S    
C15   C16   S    
C31   H25   S    
C44   H48   S    
C2    H2    S    
C36   H38   S    
C1    O2    A    
C41   H39   S    
O1    Zn1   S    
C40   H42   S    
C32   H23   S    
O2    Zn2   S    
C27   H14   S    
C32   H24   S    
C16   C17   S    
C9    C10   A    
C37   H35   S    
C28   C42   S    
C42   H52   S    
C7    C30   S    
C21   C22   S    
C27   C30   S    
C34   H28   S    
C25   C29   S    
C5    H18   S    
O8    Zn2   S    
C42   H51   S    
C33   H22   S    
C23   O5    A    
C35   H29   S    
C40   C41   S    
O9    C34   S    
C41   H41   S    
C26   C36   S    
O5    Zn1   S    
C2    H1    S    
C33   H21   S    
C14   C23   S    
C31   C32   S    
C8    C12   S    
C41   H40   S    
C22   C39   S    
C2    C26   S    
C17   H7    S    
C40   H43   S    
C44   H47   S    
C37   H36   S    
C19   H9    S    
C9    C17   S    
C26   C30   S    
C38   H33   S    
C34   C35   S    
C22   C24   S    
C25   O7    A    
C3    C4    S    
C39   H45   S    
C21   N2    A    
C18   N1    A    
C5    C30   S    
C43   H49   S    
C23   O6    A    
C4    H3    S    
C11   H4    S    
C1    C10   S    
C36   C37   S    
O6    Zn2   S    
C13   O9    S    
C38   H34   S    
C4    H19   S    
C33   H20   S    
C2    C3    S    
C26   C31   S    
C36   H37   S    
C16   H6    S    
C11   C13   A    
C19   N1    A    
C27   H15   S    
C39   C40   S    
O4    Zn2   S    
C42   C43   S    
C31   H26   S    
C17   H8    S    
C9    C15   A    
C44   H46   S    
C24   H13   S    
C1    O1    A    
C12   O4    A    
C10   C11   A    
C32   C33   S    
C4    C5    S    
C6    C29   T    
C38   H32   S    
C27   C28   S    
N1    Zn2   S    
C14   C15   A    
N2    Zn1   S    
C25   O8    A    
C13   C14   A    
C39   H44   S    
C12   O3    A    
