data_mof_unit_1190.cif
_audit_creation_date              2012-12-10T17:06:14-0500
_audit_creation_method            fapswitch 2.2
_symmetry_space_group_name_H-M    P1
_symmetry_Int_Tables_number       1
_space_group_crystal_system       triclinic
_cell_length_a                    10.628683
_cell_length_b                    11.081835
_cell_length_c                    9.846165
_cell_angle_alpha                 111.773514
_cell_angle_beta                  97.860941
_cell_angle_gamma                 91.120613
_cell_volume                      1063.75572863

loop_
_atom_site_label
_atom_site_type_symbol
_atom_type_description
_atom_site_fract_x
_atom_site_fract_y
_atom_site_fract_z
_atom_type_partial_charge
C1    C     C_R   0.490324 0.253741 0.439499 0.813002
C2    C     C_R   0.509676 0.746259 0.560500 0.813002
C3    C     C_R   0.259635 0.500299 0.501541 0.798877
C4    C     C_R   0.740365 0.499701 0.498459 0.798877
C5    C     C_3   0.057429 0.524370 0.639935 -0.175874
C6    C     C_3   0.942571 0.475630 0.360065 -0.175874
C7    C     C_3   0.960631 0.406595 0.545296 -0.210029
C8    C     C_3   0.039369 0.593405 0.454704 -0.210028
C9    C     C_3   0.876705 0.499340 0.496449 -0.038367
C10   C     C_3   0.123295 0.500660 0.503551 -0.038367
C11   C     C_3   0.971759 0.615233 0.589621 0.019858
C12   C     C_3   0.028241 0.384767 0.410379 0.019858
C13   C     C_2   0.483862 0.113407 0.402836 -0.188371
C14   C     C_2   0.516138 0.886593 0.597164 -0.188371
C15   C     C_2   0.502499 0.069451 0.513151 -0.203180
C16   C     C_2   0.497501 0.930549 0.486848 -0.203180
C17   C     C_2   0.510604 0.510676 0.081518 -0.061074
C18   C     C_2   0.489396 0.489324 0.918482 -0.061074
Cu1   Cu    Cu3+1 0.522260 0.521810 0.644920 0.967317
Cu2   Cu    Cu3+1 0.477740 0.478190 0.355080 0.967317
H1    H     H_    0.925570 0.329431 0.580498 0.148492
H2    H     H_    0.074430 0.670569 0.419502 0.148492
H3    H     H_    0.106464 0.545320 0.754223 0.154480
H4    H     H_    0.893536 0.454680 0.245777 0.154480
H5    H     H_    0.477811 0.861422 0.373029 0.189078
H6    H     H_    0.522189 0.138577 0.626971 0.189078
H7    H     H_    0.415743 0.416280 0.845008 0.159344
H8    H     H_    0.584257 0.583720 0.154992 0.159344
H9    H     H_    0.624463 0.623910 0.935157 0.203904
H10   H     H_    0.375537 0.376090 0.064843 0.203904
N1    N     N_2   0.444270 0.445410 0.137360 -0.278697
N2    N     N_2   0.555730 0.554590 0.862640 -0.278697
O1    O     O_R   0.511880 0.332340 0.577400 -0.587983
O2    O     O_R   0.488120 0.667660 0.422600 -0.587983
O3    O     O_R   0.474280 0.295500 0.332650 -0.557153
O4    O     O_R   0.525720 0.704500 0.667350 -0.557153
O5    O     O_R   0.335640 0.518390 0.622350 -0.582017
O6    O     O_R   0.664360 0.481610 0.377650 -0.582017
O7    O     O_R   0.298050 0.481550 0.377590 -0.571101
O8    O     O_R   0.701950 0.518450 0.622410 -0.571101
C19   C     C_1   0.937919 0.742451 0.687615 0.226857
N3    N     N_1   0.911020 0.842693 0.764795 -0.261861
C20   C     C_1   0.062081 0.257549 0.312385 0.226857
N4    N     N_1   0.088980 0.157307 0.235205 -0.261861
C21   C     C_1   0.542896 0.973670 0.751674 0.291521
N5    N     N_1   0.564282 0.043064 0.874839 -0.257021
C22   C     C_1   0.457104 0.026329 0.248326 0.291521
N6    N     N_1   0.435718 0.956936 0.125161 -0.257021

loop_
_geom_bond_atom_site_label_1
_geom_bond_atom_site_label_2
_ccdc_geom_bond_type
C8    H2    S    
C20   N4    T    
C11   C19   S    
C14   C21   S    
C12   C20   S    
Cu2   O6    S    
C19   N3    T    
C22   N6    T    
C5    H3    S    
C6    H4    S    
C2    O2    A    
C6    C9    S    
C17   C18   S    
C1    O1    A    
C5    C10   S    
C3    C10   S    
C21   N5    T    
C9    C11   S    
C1    O3    A    
H10   N1    S    
C10   C12   S    
C8    C11   S    
C2    C14   S    
Cu1   N2    S    
C4    O6    A    
C5    C11   S    
H9    N2    S    
C5    C7    S    
Cu1   O4    S    
C13   C15   D    
C6    C12   S    
C7    C12   S    
C17   N1    D    
C14   C16   D    
C1    C13   S    
Cu1   O8    S    
C3    O7    A    
C15   C16   S    
C4    O8    A    
C18   N2    D    
C3    O5    A    
C8    C10   S    
Cu1   O1    S    
Cu2   O2    S    
C2    O4    A    
C16   H5    S    
C7    C9    S    
Cu2   O7    S    
C15   H6    S    
C6    C8    S    
Cu1   O5    S    
C4    C9    S    
C7    H1    S    
C17   H8    S    
C13   C22   S    
Cu2   O3    S    
C18   H7    S    
Cu1   Cu2   S    
Cu2   N1    S    
