data_mof_unit_4267.cif
_audit_creation_date              2012-12-11T16:24:10-0500
_audit_creation_method            fapswitch 2.2
_symmetry_space_group_name_H-M    P1
_symmetry_Int_Tables_number       1
_space_group_crystal_system       triclinic
_cell_length_a                    14.757432
_cell_length_b                    14.773323
_cell_length_c                    33.263505
_cell_angle_alpha                 96.05042
_cell_angle_beta                  96.220553
_cell_angle_gamma                 61.202711
_cell_volume                      6305.91735096

loop_
_atom_site_label
_atom_site_type_symbol
_atom_type_description
_atom_site_fract_x
_atom_site_fract_y
_atom_site_fract_z
_atom_type_partial_charge
C1    C     C_R   0.390968 0.699563 0.446109 0.546159
C2    C     C_R   0.329728 0.347571 0.308773 0.041671
C3    C     C_R   0.411444 0.264898 0.328469 -0.108115
C4    C     C_R   0.431436 0.274051 0.370217 -0.124457
C5    C     C_R   0.393886 0.252746 0.165897 -0.108149
C6    C     C_R   0.384909 0.234404 0.124052 -0.124620
C7    C     C_R   0.209651 0.377602 0.121798 -0.125435
C8    C     C_R   0.218834 0.395636 0.163680 -0.107905
C9    C     C_R   0.309756 0.331175 0.185814 0.041547
C10   C     C_1   0.314252 0.339738 0.229123 -0.015269
C11   C     C_1   0.319571 0.343936 0.265472 -0.015350
C12   C     C_R   0.405828 0.386372 0.434008 0.544331
C13   C     C_R   0.291270 0.294236 0.101803 0.019528
C14   C     C_R   0.756413 0.373239 0.410167 0.022062
C15   C     C_R   0.789576 0.434973 0.393600 -0.129558
C16   C     C_R   0.818835 0.414235 0.353895 -0.118837
C17   C     C_R   0.815711 0.331266 0.330116 0.035583
C18   C     C_R   0.792094 0.263764 0.347913 -0.120626
C19   C     C_R   0.762578 0.284639 0.387669 -0.131306
C20   C     C_R   0.834657 0.311902 0.204726 0.347124
C21   C     C_R   0.827078 0.321729 0.286235 0.347348
C22   C     C_R   0.835346 0.390301 0.142186 -0.119515
C23   C     C_R   0.700720 0.410011 0.447529 0.546296
C24   C     C_R   0.865431 0.379089 0.102983 -0.130099
C25   C     C_R   0.909123 0.197997 0.099136 -0.131199
C26   C     C_R   0.878926 0.209258 0.138441 -0.120065
C27   C     C_R   0.846532 0.304353 0.160950 0.034297
C28   C     C_R   0.907294 0.281714 0.081878 0.021663
C29   C     C_R   0.370876 0.754496 0.409073 0.021965
C30   C     C_R   0.276876 0.783997 0.385789 -0.130053
C31   C     C_R   0.266740 0.811966 0.346244 -0.119533
C32   C     C_R   0.350301 0.811211 0.329348 0.035059
C33   C     C_R   0.440746 0.791310 0.353893 -0.119751
C34   C     C_R   0.393490 0.701296 0.561254 0.543011
C35   C     C_R   0.450990 0.763100 0.393483 -0.130633
C36   C     C_R   0.343743 0.828157 0.204286 0.348033
C37   C     C_R   0.346258 0.821570 0.285577 0.348238
C38   C     C_R   0.258710 0.831538 0.135166 -0.119495
C39   C     C_R   0.238902 0.862269 0.095631 -0.130454
C40   C     C_R   0.381830 0.901365 0.104828 -0.131658
C41   C     C_R   0.401704 0.870514 0.144427 -0.120777
C42   C     C_R   0.337031 0.840196 0.160526 0.035302
C43   C     C_R   0.297016 0.902289 0.080812 0.021795
C44   C     C_R   0.371552 0.369191 0.585122 0.022315
C45   C     C_R   0.407355 0.388865 0.549013 0.545720
C46   C     C_R   0.285033 0.448635 0.603963 -0.131228
C47   C     C_R   0.265915 0.439405 0.643063 -0.121838
C48   C     C_R   0.333110 0.350679 0.663869 0.034917
C49   C     C_R   0.413836 0.267596 0.643573 -0.120988
C50   C     C_R   0.432801 0.276698 0.604516 -0.129865
C51   C     C_R   0.318871 0.348360 0.788627 0.346618
C52   C     C_R   0.325481 0.348081 0.707452 0.346831
C53   C     C_R   0.218724 0.403762 0.850594 -0.122179
C54   C     C_R   0.207468 0.384041 0.889326 -0.131761
C55   C     C_R   0.386436 0.249167 0.893094 -0.130342
C56   C     C_R   0.701298 0.413642 0.562688 0.543000
C57   C     C_R   0.397643 0.268827 0.854447 -0.121144
C58   C     C_R   0.312497 0.342820 0.832093 0.034483
C59   C     C_R   0.289858 0.303104 0.910042 0.022171
C60   C     C_R   0.754056 0.380627 0.602940 0.020067
C61   C     C_R   0.778033 0.447795 0.629567 -0.126329
C62   C     C_R   0.806220 0.427338 0.670370 -0.110519
C63   C     C_R   0.811240 0.339485 0.684925 0.040981
C64   C     C_R   0.793804 0.268978 0.658237 -0.111077
C65   C     C_R   0.765649 0.289179 0.617422 -0.125817
C66   C     C_R   0.885872 0.212886 0.822821 -0.110759
C67   C     C_R   0.369979 0.366441 0.392573 0.019913
C68   C     C_R   0.913556 0.201535 0.864215 -0.127463
C69   C     C_R   0.871542 0.382318 0.873472 -0.126153
C70   C     C_R   0.843729 0.393459 0.832138 -0.111015
C71   C     C_R   0.853805 0.308086 0.806621 0.041635
C72   C     C_1   0.838524 0.316821 0.763602 -0.022274
C73   C     C_1   0.826969 0.325813 0.727628 -0.022535
C74   C     C_R   0.910130 0.285330 0.889713 0.019635
C75   C     C_R   0.376367 0.754780 0.601989 0.020084
C76   C     C_R   0.280987 0.790176 0.619067 -0.125668
C77   C     C_R   0.271469 0.819354 0.660309 -0.110843
C78   C     C_R   0.283426 0.446223 0.372855 -0.125705
C79   C     C_R   0.356863 0.813823 0.684885 0.041543
C80   C     C_R   0.450196 0.784900 0.667781 -0.111400
C81   C     C_R   0.459904 0.755879 0.626479 -0.127606
C82   C     C_R   0.396824 0.884297 0.832748 -0.111261
C83   C     C_R   0.376991 0.911838 0.873566 -0.126191
C84   C     C_R   0.228275 0.881591 0.862817 -0.126732
C85   C     C_R   0.248404 0.853957 0.822047 -0.111077
C86   C     C_R   0.330909 0.858052 0.806774 0.040271
C87   C     C_1   0.343192 0.842190 0.764016 -0.023113
C88   C     C_1   0.350462 0.830121 0.727967 -0.022756
C89   C     C_R   0.263744 0.436875 0.331076 -0.108467
C90   C     C_R   0.290441 0.914026 0.888726 0.019554
C91   C     C_R   0.963473 0.264219 0.045519 0.545926
C92   C     C_R   0.272730 0.259426 0.060030 0.544154
C93   C     C_R   0.259256 0.959605 0.043757 0.545798
C94   C     C_R   0.962608 0.267628 0.930729 0.542467
C95   C     C_R   0.270878 0.264065 0.945393 0.545367
C96   C     C_R   0.256105 0.965069 0.928951 0.543012
Cr1   Cr    Cr6+3 0.576280 0.580550 0.506370 1.012709
Cr2   Cr    Cr6+3 0.346780 0.572400 0.496520 1.012677
Cr3   Cr    Cr6+3 0.576960 0.347070 0.497150 1.012624
Cr4   Cr    Cr6+3 0.087320 0.083240 0.984860 1.012957
Cr5   Cr    Cr6+3 0.087720 0.316210 0.996740 1.012947
Cr6   Cr    Cr6+3 0.317350 0.090340 0.995890 1.012879
H1    H     H_    0.449120 0.169752 0.109550 0.129567
H2    H     H_    0.738178 0.235155 0.399769 0.129278
H3    H     H_    0.861749 0.445338 0.090196 0.130463
H4    H     H_    0.838831 0.466412 0.341243 0.135141
H5    H     H_    0.790224 0.198472 0.330453 0.134328
H6    H     H_    0.808462 0.465190 0.158489 0.137171
H7    H     H_    0.940552 0.122076 0.083453 0.131500
H8    H     H_    0.524144 0.741549 0.410852 0.129817
H9    H     H_    0.173894 0.860766 0.077613 0.130161
H10   H     H_    0.464716 0.202784 0.182917 0.117998
H11   H     H_    0.195193 0.829079 0.328310 0.136582
H12   H     H_    0.505977 0.791433 0.341851 0.135798
H13   H     H_    0.208921 0.806339 0.146468 0.135184
H14   H     H_    0.428510 0.931105 0.094090 0.129912
H15   H     H_    0.463558 0.876669 0.163101 0.134787
H16   H     H_    0.235986 0.520640 0.589631 0.129252
H17   H     H_    0.499347 0.213662 0.590581 0.129885
H18   H     H_    0.132209 0.427363 0.901761 0.130250
H19   H     H_    0.465686 0.197313 0.658548 0.132604
H20   H     H_    0.462661 0.195341 0.311314 0.117707
H21   H     H_    0.152086 0.462225 0.834277 0.132170
H22   H     H_    0.451726 0.187286 0.908600 0.129595
H23   H     H_    0.471606 0.222082 0.841311 0.133212
H24   H     H_    0.943510 0.125712 0.875710 0.127942
H25   H     H_    0.797811 0.200609 0.669266 0.111229
H26   H     H_    0.747587 0.235958 0.597755 0.126386
H27   H     H_    0.769487 0.518980 0.619449 0.126647
H28   H     H_    0.818605 0.467564 0.819822 0.110802
H29   H     H_    0.868007 0.448277 0.892272 0.127145
H30   H     H_    0.498537 0.211264 0.384506 0.129288
H31   H     H_    0.819876 0.482222 0.690874 0.112538
H32   H     H_    0.426165 0.936717 0.892656 0.128550
H33   H     H_    0.461029 0.887432 0.821147 0.112739
H34   H     H_    0.516674 0.780528 0.686634 0.110495
H35   H     H_    0.534537 0.728508 0.614326 0.126961
H36   H     H_    0.215287 0.790193 0.601055 0.127157
H37   H     H_    0.197153 0.833404 0.802105 0.113396
H38   H     H_    0.160994 0.882624 0.873491 0.127508
H39   H     H_    0.198811 0.841950 0.673340 0.110564
H40   H     H_    0.234693 0.518376 0.389197 0.128709
H41   H     H_    0.153491 0.456745 0.178967 0.118024
H42   H     H_    0.136499 0.424970 0.105542 0.130102
H43   H     H_    0.200144 0.501101 0.315963 0.116885
H44   H     H_    0.786843 0.503087 0.410380 0.130487
N1    N     N_R   0.828557 0.395644 0.227889 -0.229567
N2    N     N_R   0.243561 0.423217 0.727048 -0.236216
N3    N     N_R   0.404169 0.273679 0.729268 -0.234938
N4    N     N_R   0.400773 0.273626 0.769001 -0.235136
N5    N     N_R   0.824507 0.400606 0.267793 -0.229113
N6    N     N_R   0.832917 0.237893 0.263105 -0.230307
N7    N     N_R   0.837389 0.232742 0.223120 -0.230146
N8    N     N_R   0.267334 0.821549 0.220913 -0.229873
N9    N     N_R   0.268757 0.817953 0.260718 -0.229557
N10   N     N_R   0.423024 0.827821 0.268991 -0.230344
N11   N     N_R   0.421415 0.831766 0.229120 -0.230271
N12   N     N_R   0.239980 0.422942 0.766848 -0.236428
O1    O     O_R   0.679450 0.499830 0.463150 -0.519123
O2    O     O_R   0.356040 0.477400 0.534170 -0.502129
O3    O     O_R   0.495910 0.323070 0.537100 -0.519699
O4    O     O_R   0.663920 0.359620 0.542290 -0.501756
O5    O     O_3   0.500010 0.500010 0.500010 -0.236329
O6    O     O_R   0.170070 0.978950 0.027680 -0.519511
O7    O     O_R   0.001760 0.175230 0.026640 -0.501362
O8    O     O_R   0.984760 0.333570 0.037150 -0.519567
O9    O     O_R   0.183410 0.309240 0.041890 -0.501513
O10   O     O_R   0.340240 0.172500 0.045430 -0.519585
O11   O     O_R   0.309670 0.000990 0.032050 -0.501952
O12   O     O_R   0.480650 0.664000 0.464630 -0.501355
O13   O     O_R   0.168330 0.982130 0.939200 -0.520401
O14   O     O_R   0.000140 0.178170 0.944610 -0.502113
O15   O     O_R   0.983010 0.336750 0.948660 -0.519862
O16   O     O_R   0.181800 0.312190 0.959860 -0.502196
O17   O     O_R   0.338500 0.175680 0.956950 -0.519693
O18   O     O_R   0.308050 0.003930 0.950020 -0.501638
O19   O     O_3   0.164130 0.163270 0.992500 -0.236473
O20   O     O_R   0.323930 0.675950 0.455370 -0.520023
O21   O     O_R   0.354700 0.475360 0.451930 -0.501924
O22   O     O_R   0.494470 0.320860 0.448390 -0.519298
O23   O     O_R   0.662580 0.357570 0.460050 -0.502093
O24   O     O_R   0.680900 0.502040 0.551870 -0.520310
O25   O     O_R   0.481990 0.666040 0.546870 -0.502539
O26   O     O_R   0.325370 0.678160 0.544080 -0.519250
H45   H     H_    0.887177 0.141933 0.151973 0.136920
H46   H     H_    0.213310 0.779278 0.397153 0.130493
H47   H     H_    0.202290 0.504220 0.657773 0.131892
H48   H     H_    0.893705 0.146417 0.803238 0.111069

loop_
_geom_bond_atom_site_label_1
_geom_bond_atom_site_label_2
_ccdc_geom_bond_type
C66   C68   A    
C87   C88   T    
C66   H48   S    
Cr4   O14   S    
C41   C42   A    
C37   N9    A    
C91   O8    A    
C36   C42   S    
Cr2   O5    S    
C36   N8    A    
C7    C8    A    
C4    H30   S    
C40   H14   S    
C53   C54   A    
C25   C28   A    
C89   H43   S    
C67   C78   A    
C93   O11   A    
C33   H12   S    
C29   C30   A    
C59   C95   S    
Cr1   O1    S    
C62   H31   S    
N10   N11   A    
C95   O16   A    
C38   C42   A    
C54   H18   S    
C78   H40   S    
C23   O23   A    
C57   H23   S    
C5    C6    A    
C80   C81   A    
C26   H45   S    
C2    C11   S    
C68   C74   A    
C15   C16   A    
C56   O4    A    
C1    O12   A    
C70   H28   S    
C46   H16   S    
C18   C19   A    
C1    O20   A    
C21   N6    A    
C82   H33   S    
Cr5   O9    S    
C95   O17   A    
C18   H5    S    
C79   C88   S    
C83   H32   S    
C45   O3    A    
C94   O14   A    
Cr3   O3    S    
Cr5   O15   S    
C40   C43   A    
C66   C71   A    
C51   N4    A    
C16   C17   A    
Cr1   O5    S    
C96   O13   A    
C23   O1    A    
Cr5   O8    S    
C55   C59   A    
C34   O26   A    
C70   C71   A    
Cr2   O20   S    
C9    C10   S    
C85   H37   S    
C3    H20   S    
C16   H4    S    
C34   C75   S    
Cr6   O11   S    
C39   H9    S    
C52   N2    A    
C28   C91   S    
Cr4   O13   S    
C37   N10   A    
Cr5   O16   S    
C69   C70   A    
C45   O2    A    
C84   C90   A    
Cr4   O19   S    
C7    H42   S    
C44   C46   A    
Cr1   O25   S    
C54   C59   A    
C77   C79   A    
C78   C89   A    
C12   C67   S    
C32   C37   S    
C20   N7    A    
C63   C64   A    
C50   H17   S    
C65   H26   S    
Cr1   O24   S    
C76   C77   A    
C53   H21   S    
C86   C87   S    
C8    C9    A    
C39   C43   A    
C63   C73   S    
C93   O6    A    
Cr6   O17   S    
C85   C86   A    
C83   C90   A    
C17   C21   S    
Cr1   O12   S    
C56   C60   S    
Cr4   O7    S    
C14   C23   S    
C2    C89   A    
C81   H35   S    
C75   C76   A    
C5    C9    A    
C62   C63   A    
C25   H7    S    
C15   H44   S    
Cr3   O4    S    
C19   H2    S    
C52   N3    A    
C47   C48   A    
C48   C52   S    
C30   C31   A    
C69   H29   S    
C64   H25   S    
C49   H19   S    
C1    C29   S    
C17   C18   A    
C26   C27   A    
C20   N1    A    
C69   C74   A    
Cr4   O6    S    
C51   C58   S    
N2    N12   A    
C6    H1    S    
C84   C85   A    
N8    N9    A    
C35   H8    S    
C36   N11   A    
Cr3   O5    S    
C40   C41   A    
C12   O22   A    
Cr2   O2    S    
C60   C65   A    
C49   C50   A    
C76   H36   S    
C22   C27   A    
C55   C57   A    
C13   C92   S    
C22   C24   A    
C47   H47   S    
C3    C4    A    
C68   H24   S    
C44   C45   S    
C44   C50   A    
C34   O25   A    
C46   C47   A    
C48   C49   A    
Cr6   O10   S    
C96   O18   A    
C14   C19   A    
C91   O7    A    
C31   C32   A    
C75   C81   A    
C24   C28   A    
C72   C73   T    
C4    C67   A    
C53   C58   A    
C90   C96   S    
C20   C27   S    
C61   H27   S    
C5    H10   S    
C29   C35   A    
C51   N12   A    
C80   H34   S    
C43   C93   S    
C64   C65   A    
C2    C3    A    
C25   C26   A    
Cr3   O22   S    
C82   C86   A    
N3    N4    A    
C32   C33   A    
C6    C13   A    
C38   H13   S    
C92   O9    A    
C57   C58   A    
C38   C39   A    
C56   O24   A    
C22   H6    S    
N1    N5    A    
C33   C35   A    
C8    H41   S    
C21   N5    A    
Cr2   O26   S    
C61   C62   A    
C77   H39   S    
C92   O10   A    
Cr3   O23   S    
Cr5   O19   S    
C10   C11   T    
C94   O15   A    
C79   C80   A    
C7    C13   A    
C12   O21   A    
C71   C72   S    
N6    N7    A    
C84   H38   S    
C82   C83   A    
C55   H22   S    
C74   C94   S    
C30   H46   S    
Cr6   O19   S    
C14   C15   A    
C60   C61   A    
C24   H3    S    
C41   H15   S    
Cr2   O21   S    
Cr6   O18   S    
C31   H11   S    
