data_mof_unit_412.cif
_audit_creation_date              2012-12-10T17:59:44-0500
_audit_creation_method            fapswitch 2.2
_symmetry_space_group_name_H-M    P1
_symmetry_Int_Tables_number       1
_space_group_crystal_system       triclinic
_cell_length_a                    10.795707
_cell_length_b                    9.616937
_cell_length_c                    15.903556
_cell_angle_alpha                 90.045056
_cell_angle_beta                  92.885795
_cell_angle_gamma                 89.871328
_cell_volume                      1649.03478662

loop_
_atom_site_label
_atom_site_type_symbol
_atom_type_description
_atom_site_fract_x
_atom_site_fract_y
_atom_site_fract_z
_atom_type_partial_charge
C1    C     C_R   0.262486 0.500070 0.499628 0.790802
C2    C     C_3   0.637256 0.476120 0.958490 0.394498
C3    C     C_3   0.627704 0.467337 0.056580 -0.499395
C4    C     C_1   0.500440 0.500157 0.824226 -0.054090
C5    C     C_1   0.496362 0.500693 0.175485 -0.045883
C6    C     C_1   0.498105 0.500058 0.250953 -0.183424
C7    C     C_R   0.067246 0.410807 0.555083 -0.021349
C8    C     C_R   0.058076 0.588551 0.444654 -0.019670
C9    C     C_R   0.938608 0.410257 0.554090 -0.225130
C10   C     C_R   0.929695 0.589476 0.446525 -0.210204
C11   C     C_R   0.870609 0.499901 0.500473 -0.031562
C12   C     C_R   0.127885 0.499998 0.499853 -0.115348
C13   C     C_R   0.422551 0.074081 0.446029 -0.065625
C14   C     C_R   0.422691 0.926275 0.445986 -0.071261
C15   C     C_R   0.499462 0.499973 0.340468 0.827332
C16   C     C_R   0.579269 0.925381 0.554824 0.293109
C17   C     C_R   0.579141 0.074289 0.554894 0.305158
C18   C     C_R   0.737271 0.499902 0.500473 0.772863
C19   C     C_R   0.500185 0.500037 0.659492 0.812412
C20   C     C_3   0.460615 0.650002 0.046469 0.008672
C21   C     C_3   0.407956 0.383098 0.044990 0.004042
C22   C     C_3   0.408481 0.384098 0.946433 -0.059870
C23   C     C_3   0.442292 0.641116 0.948686 -0.054178
C24   C     C_1   0.500279 0.500109 0.748851 -0.184033
C25   C     C_3   0.494046 0.501745 0.083060 0.174847
C26   C     C_3   0.500761 0.499922 0.916664 0.210134
Cu1   Cu    Cu3+1 0.500020 0.640660 0.500000 0.951907
Cu2   Cu    Cu3+1 0.500020 0.359340 0.500000 0.955637
H1    H     H_    0.340622 0.636321 0.933102 0.167960
H2    H     H_    0.314642 0.415938 0.920879 0.168293
H3    H     H_    0.449056 0.283597 0.069071 0.170110
H4    H     H_    0.541793 0.718160 0.062155 0.170234
H5    H     H_    0.695322 0.538541 0.089675 0.174616
H6    H     H_    0.654507 0.362121 0.080553 0.172370
H7    H     H_    0.891410 0.342637 0.596549 0.132692
H8    H     H_    0.875302 0.656936 0.404200 0.147383
H9    H     H_    0.359973 0.129215 0.402425 0.143181
H10   H     H_    0.360648 0.871455 0.402186 0.166090
N1    N     N_R   0.500030 0.852070 0.500020 -0.176583
N2    N     N_R   0.500030 0.147930 0.500020 -0.172448
O1    O     O_R   0.319660 0.618740 0.500000 -0.568311
O2    O     O_R   0.319660 0.381260 0.500000 -0.571023
O3    O     O_R   0.500020 0.618840 0.379440 -0.571235
O4    O     O_R   0.500020 0.381160 0.379440 -0.576147
O5    O     O_R   0.680370 0.618830 0.500010 -0.590550
O6    O     O_R   0.680370 0.381170 0.500010 -0.585698
O7    O     O_R   0.500010 0.618730 0.620560 -0.583919
O8    O     O_R   0.500010 0.381270 0.620560 -0.573335
C27   C     C_3   0.670451 0.853597 0.616999 -0.786731
H11   H     H_    0.672626 0.741355 0.617894 0.272037
H12   H     H_    0.766760 0.883228 0.603770 0.201466
H13   H     H_    0.650490 0.883479 0.682346 0.197317
C28   C     C_3   0.669224 0.145725 0.617737 -0.800516
H14   H     H_    0.672635 0.257881 0.617530 0.267506
H15   H     H_    0.646805 0.117733 0.682903 0.200573
H16   H     H_    0.765716 0.114007 0.606240 0.196459
C29   C     C_3   0.351051 0.724622 0.086302 -0.859360
H17   H     H_    0.261098 0.674728 0.070021 0.240930
H18   H     H_    0.364840 0.729851 0.155828 0.252157
H19   H     H_    0.344916 0.833462 0.063198 0.230015
C30   C     C_3   0.274313 0.382125 0.075132 -0.879660
H20   H     H_    0.272361 0.398700 0.144077 0.251512
H21   H     H_    0.214859 0.460745 0.042127 0.228415
H22   H     H_    0.231800 0.279129 0.060865 0.234609
C31   C     C_3   0.420956 0.235742 0.909293 -0.868480
H23   H     H_    0.327501 0.187910 0.900845 0.238237
H24   H     H_    0.461802 0.236489 0.846729 0.258963
H25   H     H_    0.475212 0.164172 0.951459 0.221695
C32   C     C_3   0.478642 0.777878 0.904663 -0.887352
H26   H     H_    0.412028 0.861185 0.920092 0.236902
H27   H     H_    0.571229 0.817199 0.924772 0.237046
H28   H     H_    0.473082 0.767158 0.835170 0.252579
C33   C     C_3   0.726841 0.596448 0.937507 -0.828937
H29   H     H_    0.713966 0.688514 0.977767 0.206349
H30   H     H_    0.825420 0.566678 0.950715 0.223448
H31   H     H_    0.716299 0.626646 0.870162 0.236209
C34   C     C_3   0.699405 0.341083 0.926549 -0.826703
H32   H     H_    0.695166 0.335562 0.856744 0.231493
H33   H     H_    0.798711 0.335833 0.948430 0.221990
H34   H     H_    0.658716 0.246123 0.952021 0.220205
C35   C     C_1   0.134562 0.322474 0.615204 0.245137
N3    N     N_1   0.188475 0.251904 0.663350 -0.282181
C36   C     C_1   0.114849 0.673450 0.382319 0.231546
N4    N     N_1   0.159705 0.740975 0.331952 -0.318947

loop_
_geom_bond_atom_site_label_1
_geom_bond_atom_site_label_2
_ccdc_geom_bond_type
C11   C18   S    
C30   H22   S    
C8    C36   S    
C33   H29   S    
C23   C32   S    
C35   N3    T    
C34   H32   S    
C21   H3    S    
Cu2   O6    S    
C23   H1    S    
C15   O4    A    
C5    C6    T    
C4    C24   T    
C19   O7    A    
C34   H34   S    
C20   C25   S    
Cu2   N2    S    
C32   H27   S    
C23   C26   S    
C30   H21   S    
C13   N2    A    
C14   N1    A    
Cu1   N1    S    
C16   C17   A    
C31   H24   S    
C21   C30   S    
C31   H25   S    
C34   H33   S    
C6    C15   S    
C21   C22   S    
C33   H30   S    
C32   H26   S    
C1    C12   S    
C18   O6    A    
C28   H15   S    
C7    C12   A    
C3    C25   S    
C16   C27   S    
C19   O8    A    
C29   H19   S    
C3    H6    S    
C27   H12   S    
C28   H14   S    
Cu2   O4    S    
C17   N2    A    
C32   H28   S    
C22   C31   S    
C14   H10   S    
Cu1   O1    S    
C36   N4    T    
C20   C23   S    
C8    C12   A    
C27   H13   S    
C2    C26   S    
C9    C11   A    
C2    C33   S    
C5    C25   S    
C1    O1    A    
C7    C35   S    
C31   H23   S    
C33   H31   S    
C18   O5    A    
C17   C28   S    
C20   H4    S    
C28   H16   S    
Cu1   O7    S    
C7    C9    A    
C21   C25   S    
Cu2   O8    S    
C22   H2    S    
C13   H9    S    
C4    C26   S    
C19   C24   S    
C15   O3    A    
C2    C34   S    
Cu1   O5    S    
C29   H17   S    
Cu2   O2    S    
C2    C3    S    
C30   H20   S    
C29   H18   S    
C10   C11   A    
C16   N1    A    
Cu1   O3    S    
C1    O2    A    
C8    C10   A    
C27   H11   S    
C22   C26   S    
Cu1   Cu2   S    
C9    H7    S    
C3    H5    S    
C10   H8    S    
C20   C29   S    
C13   C14   A    
