data_mof_unit_3514.cif
_audit_creation_date              2012-12-11T17:32:21-0500
_audit_creation_method            fapswitch 2.2
_symmetry_space_group_name_H-M    P1
_symmetry_Int_Tables_number       1
_space_group_crystal_system       triclinic
_cell_length_a                    25.138839
_cell_length_b                    6.935991
_cell_length_c                    22.706834
_cell_angle_alpha                 90.025611
_cell_angle_beta                  96.023334
_cell_angle_gamma                 90.031783
_cell_volume                      3937.36723161

loop_
_atom_site_label
_atom_site_type_symbol
_atom_type_description
_atom_site_fract_x
_atom_site_fract_y
_atom_site_fract_z
_atom_type_partial_charge
O1    O     O_R   0.192910 0.385540 0.193970 -0.534604
O2    O     O_R   0.807090 0.614460 0.806030 -0.539213
O3    O     O_R   0.307090 0.885540 0.306030 -0.534035
O4    O     O_R   0.692910 0.114460 0.693970 -0.534539
O5    O     O_R   0.301190 0.713810 0.192110 -0.508962
O6    O     O_R   0.698810 0.286190 0.807890 -0.508669
O7    O     O_R   0.198810 0.213810 0.307890 -0.509585
O8    O     O_R   0.801190 0.786190 0.692110 -0.509045
C1    C     C_R   0.319857 0.545598 0.179215 0.751292
C2    C     C_R   0.680180 0.454405 0.820822 0.752080
C3    C     C_R   0.180107 0.045584 0.320730 0.742178
C4    C     C_R   0.819801 0.954432 0.679139 0.739227
O9    O     O_R   0.192950 0.715160 0.186970 -0.541833
O10   O     O_R   0.807050 0.284840 0.813030 -0.536703
O11   O     O_R   0.307050 0.215160 0.313030 -0.530575
O12   O     O_R   0.692950 0.784840 0.686970 -0.530772
O13   O     O_R   0.198080 0.886920 0.300850 -0.562414
O14   O     O_R   0.801920 0.113080 0.699150 -0.563930
O15   O     O_R   0.301920 0.386920 0.199150 -0.561790
O16   O     O_R   0.698080 0.613080 0.800850 -0.561554
C5    C     C_R   0.173855 0.546378 0.171691 0.716833
C6    C     C_R   0.826107 0.453684 0.828361 0.713319
C7    C     C_R   0.326183 0.046519 0.328250 0.714836
C8    C     C_R   0.673818 0.953481 0.671749 0.713354
O17   O     O_3   0.251810 0.552510 0.287370 -0.368570
O18   O     O_3   0.748190 0.447490 0.712630 -0.369351
O19   O     O_3   0.248190 0.052510 0.212630 -0.373440
O20   O     O_3   0.751810 0.947490 0.787370 -0.372552
V1    V     V_3+5 0.249660 0.826790 0.243070 1.466013
V2    V     V_3+5 0.750340 0.173210 0.756930 1.474141
V3    V     V_3+5 0.250340 0.326790 0.256930 1.480975
V4    V     V_3+5 0.749660 0.673210 0.743070 1.481291
C9    C     C_R   0.506017 0.830942 0.535505 -0.179874
C10   C     C_R   0.493994 0.169050 0.464483 -0.179651
C11   C     C_R   0.956789 0.372167 0.010696 -0.146514
C12   C     C_R   0.039935 0.637588 0.993487 -0.164829
C13   C     C_R   0.544500 0.981194 0.543748 -0.044331
C14   C     C_R   0.455510 0.018800 0.456241 -0.044217
C15   C     C_R   0.952945 0.489995 0.959278 -0.096781
C16   C     C_R   0.043525 0.520741 0.044855 -0.103515
C17   C     C_R   0.538797 0.146800 0.507482 0.353086
C18   C     C_R   0.461213 0.853193 0.492506 0.352213
C19   C     C_R   0.993598 0.625960 0.951911 0.447842
C20   C     C_R   0.001522 0.392592 0.053870 0.391892
C21   C     C_1   0.590420 0.970343 0.588971 0.157831
C22   C     C_1   0.409587 0.029656 0.411021 0.157755
C23   C     C_1   0.908003 0.474411 0.912956 0.136209
C24   C     C_1   0.090216 0.529437 0.089186 0.036338
C25   C     C_1   0.371419 0.037397 0.373467 -0.119706
C26   C     C_1   0.628585 0.962603 0.626529 -0.119747
C27   C     C_1   0.128558 0.537017 0.126521 -0.165562
C28   C     C_1   0.870688 0.463922 0.874394 -0.131537
C29   C     C_R   0.091034 0.171466 0.441817 -0.250847
C30   C     C_R   0.908361 0.828018 0.557591 -0.248601
C31   C     C_R   0.408851 0.671694 0.058039 -0.246265
C32   C     C_R   0.591618 0.328565 0.942398 -0.245621
H1    H     H_    0.088045 0.285402 0.474000 0.167583
H2    H     H_    0.911317 0.713660 0.525540 0.166402
H3    H     H_    0.411901 0.785844 0.025968 0.167429
H4    H     H_    0.588755 0.214726 0.974613 0.166274
C33   C     C_R   0.131766 0.179983 0.404032 0.473412
C34   C     C_R   0.867822 0.819605 0.595628 0.477014
C35   C     C_R   0.368176 0.680195 0.095902 0.470508
C36   C     C_R   0.632215 0.320171 0.904438 0.463521
C37   C     C_R   0.136974 0.032179 0.361815 -0.287165
C38   C     C_R   0.862697 0.967826 0.637742 -0.283603
C39   C     C_R   0.362908 0.532200 0.138012 -0.283706
C40   C     C_R   0.637234 0.467780 0.862140 -0.283061
C41   C     C_R   0.099891 0.874805 0.359104 -0.165584
C42   C     C_R   0.899591 0.125705 0.639984 -0.168595
C43   C     C_R   0.399835 0.374543 0.140472 -0.170636
C44   C     C_R   0.600185 0.625039 0.859626 -0.169817
C45   C     C_R   0.058207 0.871934 0.396547 0.479222
C46   C     C_R   0.941061 0.128581 0.602261 0.473159
C47   C     C_R   0.441434 0.371560 0.102921 0.474717
C48   C     C_R   0.558652 0.627868 0.897262 0.473405
C49   C     C_R   0.055119 0.017277 0.439262 -0.083813
C50   C     C_R   0.944125 0.982604 0.559741 -0.080938
C51   C     C_R   0.444620 0.517245 0.060371 -0.080088
C52   C     C_R   0.555683 0.482539 0.939970 -0.079163
C53   C     C_1   0.015962 0.005566 0.481779 0.038983
C54   C     C_1   0.983163 0.993985 0.517083 0.036978
C55   C     C_1   0.483758 0.505652 0.017829 0.038772
C56   C     C_1   0.516583 0.494043 0.982557 0.037578
O21   O     O_3   0.423835 0.706427 0.483560 -0.546461
C57   C     C_3   0.382585 0.740804 0.519847 -0.264758
H5    H     H_    0.353069 0.621767 0.513234 0.163792
H6    H     H_    0.361122 0.877653 0.507670 0.130733
H7    H     H_    0.398102 0.742821 0.567589 0.127179
O22   O     O_3   0.576174 0.293570 0.516431 -0.545976
C58   C     C_3   0.617428 0.259191 0.480150 -0.268464
H8    H     H_    0.638890 0.122341 0.492329 0.130337
H9    H     H_    0.646945 0.378226 0.486767 0.163133
H10   H     H_    0.601916 0.257177 0.432407 0.125917
O23   O     O_3   0.005895 0.277199 0.103910 -0.556404
C59   C     C_3   0.983125 0.375984 0.149458 -0.226583
H11   H     H_    0.939920 0.406098 0.137024 0.116369
H12   H     H_    0.004882 0.512484 0.161540 0.172783
H13   H     H_    0.986326 0.283183 0.189447 0.175028
O24   O     O_3   0.989087 0.741039 0.901814 -0.517065
C60   C     C_3   0.962632 0.912937 0.914726 -0.106714
H14   H     H_    0.921489 0.883866 0.926434 0.113264
H15   H     H_    0.958942 0.005467 0.874671 0.173323
H16   H     H_    0.985843 0.995164 0.950875 0.130422
C61   C     C_2   0.510988 0.647710 0.570265 0.469248
H17   H     H_    0.482857 0.530992 0.559683 0.084672
O25   O     O_2   0.546039 0.622960 0.610954 -0.512925
C62   C     C_2   0.489023 0.352278 0.429721 0.468087
H18   H     H_    0.517155 0.468995 0.440303 0.084441
O26   O     O_2   0.453975 0.377024 0.389030 -0.513159
C63   C     C_2   0.915368 0.225222 0.021166 0.337703
H19   H     H_    0.923125 0.120713 0.056554 0.101192
O27   O     O_2   0.872080 0.218815 0.991370 -0.551632
C64   C     C_2   0.084776 0.770874 0.983531 0.461314
H20   H     H_    0.116348 0.799646 0.018758 0.024516
O28   O     O_2   0.087722 0.848399 0.935726 -0.491513
O29   O     O_3   0.165694 0.337404 0.407834 -0.547292
C65   C     C_3   0.208257 0.300350 0.451887 -0.241621
H21   H     H_    0.236182 0.424661 0.453955 0.157915
H22   H     H_    0.231209 0.169947 0.441137 0.110920
H23   H     H_    0.193703 0.285062 0.496284 0.126944
O30   O     O_3   0.834006 0.661883 0.592168 -0.547205
C66   C     C_3   0.791240 0.698166 0.548292 -0.247597
H24   H     H_    0.768258 0.828493 0.559046 0.111285
H25   H     H_    0.763408 0.573615 0.546503 0.158215
H26   H     H_    0.805574 0.713129 0.503776 0.124225
O31   O     O_3   0.334355 0.837752 0.092264 -0.550380
C67   C     C_3   0.291705 0.800955 0.048269 -0.229231
H27   H     H_    0.263866 0.925375 0.046329 0.162125
H28   H     H_    0.268685 0.670636 0.059000 0.112652
H29   H     H_    0.306171 0.785698 0.003825 0.133022
O32   O     O_3   0.666217 0.163108 0.908192 -0.554210
C68   C     C_3   0.709090 0.201544 0.951774 -0.203798
H30   H     H_    0.731906 0.331734 0.940493 0.126321
H31   H     H_    0.737040 0.077435 0.953843 0.174755
H32   H     H_    0.694908 0.217971 0.996321 0.123110
C69   C     C_2   0.103645 0.709840 0.318056 0.470325
H33   H     H_    0.140297 0.627419 0.318702 0.095400
O33   O     O_2   0.065246 0.661879 0.283797 -0.546910
C70   C     C_2   0.895850 0.291216 0.680817 0.482741
H34   H     H_    0.859127 0.373174 0.680255 0.091763
O34   O     O_2   0.934330 0.340096 0.714814 -0.526417
C71   C     C_2   0.396012 0.209411 0.181386 0.499501
H35   H     H_    0.359331 0.126970 0.180658 0.087802
O35   O     O_2   0.434379 0.161434 0.215647 -0.524449
C72   C     C_2   0.603830 0.789932 0.818584 0.498983
H36   H     H_    0.640451 0.872678 0.819189 0.086802
O36   O     O_2   0.565385 0.837378 0.784357 -0.523783
O37   O     O_3   0.023812 0.715348 0.395024 -0.536567
C73   C     C_3   0.974703 0.766693 0.362920 -0.169340
H37   H     H_    0.980250 0.829696 0.318871 0.153149
H38   H     H_    0.951871 0.868521 0.388417 0.110587
H39   H     H_    0.950110 0.634544 0.355044 0.155053
O38   O     O_3   0.975231 0.285728 0.603305 -0.540530
C74   C     C_3   0.024556 0.235700 0.635182 -0.135250
H40   H     H_    0.048969 0.368403 0.642725 0.162101
H41   H     H_    0.047406 0.134001 0.609665 0.107180
H42   H     H_    0.019340 0.173135 0.679374 0.167077
O39   O     O_3   0.475615 0.214550 0.104156 -0.538888
C75   C     C_3   0.524871 0.265036 0.136152 -0.155582
H43   H     H_    0.547781 0.366672 0.110673 0.109027
H44   H     H_    0.549285 0.132504 0.143817 0.157969
H45   H     H_    0.519537 0.327874 0.180291 0.161434
O40   O     O_3   0.524313 0.784441 0.895938 -0.539587
C76   C     C_3   0.475085 0.733087 0.864040 -0.150883
H46   H     H_    0.452323 0.631264 0.889618 0.110166
H47   H     H_    0.480440 0.670086 0.819928 0.161906
H48   H     H_    0.450514 0.865230 0.856325 0.159509

loop_
_geom_bond_atom_site_label_1
_geom_bond_atom_site_label_2
_ccdc_geom_bond_type
O17   V3    S    
C43   C47   A    
O1    C5    A    
C76   H46   S    
C31   H3    S    
O19   V1    S    
O13   V1    S    
O3    C7    A    
O23   C59   S    
C5    C27   S    
C52   C56   S    
O15   V3    S    
C67   H27   S    
C64   H20   S    
O4    V2    S    
C66   H24   S    
C38   C42   A    
O21   C57   S    
C42   C70   S    
C69   O33   D    
C22   C25   T    
O5    C1    A    
C60   H14   S    
C9    C18   A    
C36   C40   A    
C15   C23   S    
O40   C76   S    
C70   O34   D    
C14   C18   A    
O39   C75   S    
C30   H2    S    
C11   C15   A    
O4    C8    A    
C57   H6    S    
C66   H25   S    
C74   H41   S    
C47   O39   S    
C71   H35   S    
C59   H13   S    
O1    V3    S    
C31   C51   A    
C62   H18   S    
C46   O38   S    
O2    V4    S    
O3    V1    S    
C16   C24   S    
C65   H21   S    
C29   C33   A    
C1    O15   A    
C24   C27   T    
C36   O32   S    
C2    O16   A    
O32   C68   S    
C73   H39   S    
C59   H12   S    
O2    C6    A    
C68   H32   S    
C32   C36   A    
C41   C45   A    
O14   V2    S    
C72   O36   D    
C44   C48   A    
O11   C7    A    
C17   O22   S    
C69   H33   S    
C12   C64   S    
O12   C8    A    
C74   H42   S    
O17   V1    S    
C76   H47   S    
C10   C17   A    
O10   V2    S    
O20   V4    S    
C53   C54   T    
O5    V1    S    
C41   C69   S    
C35   C39   A    
O7    V3    S    
C34   C38   A    
C33   O29   S    
O8    V4    S    
C75   H45   S    
C12   C16   A    
C9    C61   S    
C70   H34   S    
C58   H8    S    
C29   H1    S    
C57   H5    S    
C66   H26   S    
C15   C19   A    
C30   C34   A    
C4    C38   S    
C9    C13   A    
C32   H4    S    
C31   C35   A    
C40   C44   A    
C65   H23   S    
C75   H44   S    
O7    C3    A    
C1    C39   S    
C42   C46   A    
C58   H9    S    
C61   O25   D    
C50   C54   S    
C55   C56   T    
C49   C53   S    
O8    C4    A    
C59   H11   S    
O9    C5    A    
C63   O27   D    
C18   O21   S    
C19   O24   S    
C11   C20   A    
C8    C26   S    
O38   C74   S    
O6    V2    S    
O18   V2    S    
C76   H48   S    
O19   V3    S    
C29   C49   A    
C73   H38   S    
C48   O40   S    
C13   C21   S    
O31   C67   S    
C67   H29   S    
C34   O30   S    
C11   C63   S    
C6    C28   S    
C72   H36   S    
O16   V4    S    
O9    V1    S    
C71   O35   D    
C3    O13   A    
C63   H19   S    
C45   O37   S    
C10   C14   A    
C48   C52   A    
C57   H7    S    
C67   H28   S    
O6    C2    A    
C64   O28   D    
O11   V3    S    
C23   C28   T    
O18   V4    S    
C2    C40   S    
O12   V4    S    
C61   H17   S    
C32   C52   A    
C10   C62   S    
C75   H43   S    
O10   C6    A    
O20   V2    S    
C20   O23   S    
O37   C73   S    
C58   H10   S    
C51   C55   S    
O22   C58   S    
C68   H30   S    
C43   C71   S    
C21   C26   T    
C37   C41   A    
O24   C60   S    
C62   O26   D    
C39   C43   A    
C13   C17   A    
C65   H22   S    
C14   C22   S    
C7    C25   S    
C33   C37   A    
C16   C20   A    
C60   H15   S    
C46   C50   A    
C4    O14   A    
C74   H40   S    
C44   C72   S    
C68   H31   S    
C45   C49   A    
C73   H37   S    
C12   C19   A    
C60   H16   S    
O30   C66   S    
O29   C65   S    
C47   C51   A    
C35   O31   S    
C3    C37   S    
C30   C50   A    
