data_mof_unit_3124.cif
_audit_creation_date              2012-12-11T14:44:30-0500
_audit_creation_method            fapswitch 2.2
_symmetry_space_group_name_H-M    P1
_symmetry_Int_Tables_number       1
_space_group_crystal_system       triclinic
_cell_length_a                    25.068128
_cell_length_b                    16.829161
_cell_length_c                    15.606367
_cell_angle_alpha                 90.429778
_cell_angle_beta                  49.758445
_cell_angle_gamma                 90.468815
_cell_volume                      5025.51805149

loop_
_atom_site_label
_atom_site_type_symbol
_atom_type_description
_atom_site_fract_x
_atom_site_fract_y
_atom_site_fract_z
_atom_type_partial_charge
C1    C     C_R   0.346555 0.139280 0.772452 -0.123129
C2    C     C_R   0.664930 0.884688 0.200882 -0.122994
C3    C     C_R   0.666285 0.111049 0.197337 -0.121522
C4    C     C_R   0.354082 0.851555 0.751358 -0.118112
C5    C     C_R   0.847492 0.640690 0.769883 -0.120720
C6    C     C_R   0.164366 0.382806 0.202673 -0.121509
C7    C     C_R   0.166189 0.611370 0.197545 -0.122470
C8    C     C_R   0.854131 0.351508 0.751270 -0.120630
C9    C     C_3   0.308318 0.327470 0.399003 -0.314499
C10   C     C_3   0.734804 0.763715 0.609122 -0.302415
C11   C     C_3   0.750390 0.268878 0.540150 -0.287311
C12   C     C_3   0.208134 0.827935 0.437793 -0.303138
C13   C     C_3   0.800224 0.803108 0.392608 -0.324243
C14   C     C_3   0.231090 0.251160 0.599456 -0.318392
C15   C     C_3   0.243572 0.768365 0.555370 -0.264014
C16   C     C_3   0.697689 0.336484 0.452695 -0.316603
C17   C     C_2   0.696555 0.148703 0.013407 -0.210277
C18   C     C_2   0.362664 0.732520 0.840323 -0.196931
C19   C     C_2   0.349960 0.251234 0.876129 -0.218273
C20   C     C_2   0.694997 0.844095 0.018357 -0.204918
C21   C     C_2   0.196332 0.649219 0.013768 -0.211745
C22   C     C_2   0.862811 0.232432 0.840119 -0.197454
C23   C     C_2   0.851863 0.754718 0.870059 -0.209776
C24   C     C_2   0.194484 0.339830 0.021449 -0.211089
C25   C     C_2   0.765798 0.141802 0.951917 -0.115521
C26   C     C_2   0.311923 0.691534 0.853001 -0.109196
C27   C     C_2   0.310984 0.299342 0.868591 -0.111036
C28   C     C_2   0.763757 0.854958 0.957999 -0.126612
C29   C     C_2   0.265564 0.642032 0.952147 -0.118161
C30   C     C_2   0.812081 0.191393 0.852828 -0.112140
C31   C     C_2   0.810910 0.801458 0.865216 -0.118398
C32   C     C_2   0.263054 0.352300 0.961180 -0.127594
C33   C     C_R   0.594688 0.142787 0.592980 -0.163868
C34   C     C_R   0.385597 0.899111 0.405135 -0.144038
C35   C     C_R   0.407125 0.142529 0.405711 -0.117621
C36   C     C_R   0.614331 0.893937 0.592670 -0.130068
C37   C     C_R   0.095412 0.641712 0.593257 -0.168049
C38   C     C_R   0.884717 0.400956 0.405727 -0.139999
C39   C     C_R   0.905772 0.641871 0.406646 -0.121942
C40   C     C_R   0.114736 0.396680 0.593091 -0.107439
C41   C     C_R   0.665344 0.145779 0.406163 -0.120981
C42   C     C_R   0.309679 0.900175 0.591069 -0.175237
C43   C     C_R   0.326860 0.137516 0.593209 -0.151090
C44   C     C_R   0.689101 0.894032 0.405718 -0.149354
C45   C     C_R   0.166416 0.644736 0.406129 -0.137936
C46   C     C_R   0.809282 0.401694 0.591266 -0.165794
C47   C     C_R   0.825827 0.635929 0.594580 -0.151789
C48   C     C_R   0.189974 0.397958 0.406744 -0.175829
C49   C     C_R   0.578298 0.107580 0.195887 -0.142797
C50   C     C_R   0.442291 0.854827 0.754076 -0.135632
C51   C     C_R   0.434095 0.135342 0.775484 -0.140596
C52   C     C_R   0.577193 0.888949 0.197969 -0.147888
C53   C     C_R   0.078139 0.607898 0.196155 -0.136559
C54   C     C_R   0.942369 0.354793 0.753932 -0.132386
C55   C     C_R   0.935083 0.637216 0.772683 -0.142637
C56   C     C_R   0.076873 0.387434 0.198955 -0.147601
C57   C     C_R   0.375829 0.177773 0.811589 0.142568
C58   C     C_R   0.646414 0.867094 0.136559 0.147394
C59   C     C_R   0.648196 0.127311 0.132531 0.150981
C60   C     C_R   0.386707 0.808790 0.781427 0.139224
C61   C     C_R   0.877363 0.680351 0.807147 0.141246
C62   C     C_R   0.145711 0.364210 0.138848 0.148550
C63   C     C_R   0.148016 0.627757 0.132852 0.152051
C64   C     C_R   0.886794 0.308734 0.781281 0.141896
C65   C     C_R   0.644958 0.186746 0.499741 0.107615
C66   C     C_R   0.317281 0.888297 0.496483 0.109592
C67   C     C_R   0.349609 0.179271 0.499363 0.102930
C68   C     C_R   0.681034 0.877471 0.498912 0.092541
C69   C     C_R   0.145844 0.685077 0.500044 0.121240
C70   C     C_R   0.815908 0.392241 0.497194 0.101268
C71   C     C_R   0.847853 0.677201 0.501658 0.100803
C72   C     C_R   0.182593 0.384517 0.500156 0.078225
C73   C     C_3   0.321913 0.327950 0.482471 0.564903
C74   C     C_3   0.707158 0.748969 0.547006 0.572511
C75   C     C_3   0.672846 0.282411 0.601351 0.532994
C76   C     C_3   0.282757 0.809630 0.391337 0.514343
C77   C     C_3   0.828108 0.817924 0.455203 0.551800
C78   C     C_3   0.217976 0.250274 0.516341 0.575953
C79   C     C_3   0.169407 0.787338 0.601778 0.522440
C80   C     C_3   0.775805 0.324378 0.391944 0.529722
C81   C     C_3   0.757002 0.848893 0.560457 0.030834
C82   C     C_3   0.294782 0.236657 0.415802 0.049453
C83   C     C_3   0.192726 0.867963 0.542369 0.012185
C84   C     C_3   0.762429 0.239320 0.435386 0.013975
C85   C     C_3   0.244078 0.341932 0.583086 0.043251
C86   C     C_3   0.777316 0.718337 0.442187 0.048780
C87   C     C_3   0.687022 0.367719 0.557452 0.011785
C88   C     C_3   0.260316 0.729376 0.450867 0.080192
C89   C     C_3   0.728707 0.833231 0.499295 -0.105872
C90   C     C_3   0.309372 0.238169 0.497686 -0.109404
C91   C     C_3   0.267412 0.849208 0.493729 -0.062182
C92   C     C_3   0.684169 0.250998 0.498189 -0.060704
C93   C     C_3   0.230318 0.339928 0.500567 -0.105554
C94   C     C_3   0.806332 0.734052 0.502317 -0.104857
C95   C     C_3   0.765036 0.354880 0.494639 -0.039505
C96   C     C_3   0.185471 0.747402 0.498929 -0.091638
H1    H     H_    0.296488 0.151107 0.795954 0.087831
H2    H     H_    0.716497 0.883605 0.175548 0.083490
H3    H     H_    0.718374 0.109013 0.169744 0.080594
H4    H     H_    0.308535 0.835403 0.761423 0.095885
H5    H     H_    0.797620 0.652829 0.792934 0.087642
H6    H     H_    0.215742 0.380796 0.178012 0.084287
H7    H     H_    0.218272 0.609564 0.169997 0.082312
H8    H     H_    0.808613 0.335316 0.761269 0.096985
H9    H     H_    0.573588 0.152036 0.677759 0.148860
H10   H     H_    0.408750 0.902450 0.318172 0.133614
H11   H     H_    0.437006 0.157875 0.318644 0.098911
H12   H     H_    0.592596 0.892636 0.679172 0.107283
H13   H     H_    0.075523 0.650123 0.677681 0.148197
H14   H     H_    0.907918 0.403649 0.318698 0.123082
H15   H     H_    0.933631 0.656865 0.319793 0.109250
H16   H     H_    0.091963 0.395187 0.679984 0.090533
H17   H     H_    0.705771 0.161919 0.319344 0.104985
H18   H     H_    0.261693 0.899876 0.677471 0.102567
H19   H     H_    0.279327 0.146020 0.678356 0.092216
H20   H     H_    0.736415 0.892820 0.318748 0.097676
H21   H     H_    0.207806 0.660303 0.319302 0.107246
H22   H     H_    0.761756 0.400589 0.677940 0.101128
H23   H     H_    0.777601 0.642451 0.679575 0.095848
H24   H     H_    0.237517 0.397305 0.319932 0.095650
H25   H     H_    0.550424 0.102766 0.164687 0.095242
H26   H     H_    0.478482 0.838919 0.766594 0.116752
H27   H     H_    0.463839 0.145150 0.802257 0.099076
H28   H     H_    0.549303 0.892157 0.166746 0.100200
H29   H     H_    0.050161 0.603285 0.165118 0.096091
H30   H     H_    0.978652 0.338870 0.766260 0.109611
H31   H     H_    0.965248 0.648161 0.798425 0.102476
H32   H     H_    0.049179 0.390151 0.167356 0.095925
H33   H     H_    0.339070 0.360701 0.318720 0.148774
H34   H     H_    0.707487 0.746277 0.697212 0.141512
H35   H     H_    0.770667 0.240151 0.577940 0.151674
H36   H     H_    0.193634 0.850726 0.388713 0.164011
H37   H     H_    0.827078 0.820724 0.304732 0.152464
H38   H     H_    0.198486 0.219353 0.680939 0.149168
H39   H     H_    0.256454 0.746471 0.606927 0.156150
H40   H     H_    0.676402 0.363025 0.415388 0.161686
H41   H     H_    0.294945 0.707397 0.806647 0.129357
H42   H     H_    0.787610 0.112675 0.984930 0.126028
H43   H     H_    0.784289 0.888993 0.990467 0.129045
H44   H     H_    0.303091 0.287433 0.809049 0.123216
H45   H     H_    0.795062 0.207249 0.806534 0.131393
H46   H     H_    0.287355 0.612721 0.985082 0.127300
H47   H     H_    0.283165 0.387839 0.993195 0.129641
H48   H     H_    0.801049 0.788332 0.808255 0.124907
H49   H     H_    0.378897 0.716501 0.887821 0.139077
H50   H     H_    0.675425 0.178069 0.979249 0.140431
H51   H     H_    0.675095 0.809699 0.984958 0.130727
H52   H     H_    0.357490 0.262360 0.936428 0.136776
H53   H     H_    0.879093 0.216418 0.887549 0.135151
H54   H     H_    0.175209 0.678750 0.979701 0.140037
H55   H     H_    0.175055 0.303992 0.988390 0.136343
H56   H     H_    0.861167 0.767454 0.927862 0.134851
N1    N     N_R   0.389620 0.081040 0.705440 -0.043511
N2    N     N_R   0.610380 0.918960 0.294560 -0.045031
N3    N     N_R   0.610380 0.081040 0.294560 -0.044139
N4    N     N_R   0.389620 0.918960 0.705440 -0.046371
N5    N     N_R   0.889620 0.581040 0.705440 -0.043572
N6    N     N_R   0.110380 0.418960 0.294560 -0.044660
N7    N     N_R   0.110380 0.581040 0.294560 -0.043883
N8    N     N_R   0.889620 0.418960 0.705440 -0.046569
N9    N     N_R   0.582320 0.079840 0.556630 -0.044310
N10   N     N_R   0.417680 0.920160 0.443370 -0.042820
N11   N     N_R   0.417680 0.079840 0.443370 -0.042865
N12   N     N_R   0.582320 0.920160 0.556630 -0.044573
N13   N     N_R   0.082320 0.579840 0.556630 -0.044117
N14   N     N_R   0.917680 0.420160 0.443370 -0.042174
N15   N     N_R   0.917680 0.579840 0.443370 -0.043543
N16   N     N_R   0.082320 0.420160 0.556630 -0.042736
N17   N     N_R   0.627920 0.078930 0.443400 -0.044039
N18   N     N_R   0.372080 0.921070 0.556600 -0.038352
N19   N     N_R   0.372080 0.078930 0.556600 -0.038601
N20   N     N_R   0.627920 0.921070 0.443400 -0.040714
N21   N     N_R   0.127920 0.578930 0.443400 -0.042456
N22   N     N_R   0.872080 0.421070 0.556600 -0.039505
N23   N     N_R   0.872080 0.578930 0.556600 -0.038742
N24   N     N_R   0.127920 0.421070 0.443400 -0.037385
N25   N     N_R   0.555090 0.077730 0.294590 -0.041184
N26   N     N_R   0.444910 0.922270 0.705410 -0.045325
N27   N     N_R   0.444910 0.077730 0.705410 -0.040604
N28   N     N_R   0.555090 0.922270 0.294590 -0.042348
N29   N     N_R   0.055090 0.577730 0.294590 -0.041889
N30   N     N_R   0.944910 0.422270 0.705410 -0.045775
N31   N     N_R   0.944910 0.577730 0.705410 -0.040935
N32   N     N_R   0.055090 0.422270 0.294590 -0.041918
Ni1   Ni    Ni4+2 0.382970 0.000000 0.629840 0.212286
Ni2   Ni    Ni4+2 0.617030 0.000000 0.370160 0.203688
Ni3   Ni    Ni4+2 0.882970 0.500000 0.629840 0.211839
Ni4   Ni    Ni4+2 0.117030 0.500000 0.370160 0.202717
Ni5   Ni    Ni4+2 0.514540 0.000000 0.629840 0.212514
Ni6   Ni    Ni4+2 0.485460 0.000000 0.370160 0.208114
Ni7   Ni    Ni4+2 0.014540 0.500000 0.629840 0.210573
Ni8   Ni    Ni4+2 0.985460 0.500000 0.370160 0.207724
C97   C     C_3   0.742887 0.923595 0.628783 -0.387873
C98   C     C_3   0.767302 0.914170 0.696359 -0.255799
C99   C     C_3   0.754140 0.989749 0.762174 -0.880172
H57   H     H_    0.782857 0.040736 0.704114 0.256804
H58   H     H_    0.697395 0.003338 0.822691 0.257795
H59   H     H_    0.772648 0.981442 0.809722 0.260262
H60   H     H_    0.738567 0.864253 0.756530 0.188809
H61   H     H_    0.824038 0.900745 0.639077 0.200706
H62   H     H_    0.770201 0.974615 0.571076 0.198984
H63   H     H_    0.685872 0.935614 0.687313 0.185165
C100  C     C_3   0.322972 0.178098 0.319217 -0.379921
C101  C     C_3   0.293350 0.193792 0.260311 -0.255253
C102  C     C_3   0.330208 0.143407 0.154198 -0.912746
H64   H     H_    0.386747 0.158492 0.093229 0.258198
H65   H     H_    0.323903 0.079233 0.175160 0.273713
H66   H     H_    0.307058 0.155202 0.114327 0.250539
H67   H     H_    0.236886 0.178920 0.317206 0.212871
H68   H     H_    0.300005 0.257509 0.236916 0.189991
H69   H     H_    0.380563 0.184954 0.256489 0.185001
H70   H     H_    0.310024 0.116448 0.352384 0.198206
C103  C     C_3   0.153472 0.946740 0.590650 -0.371985
C104  C     C_3   0.151442 0.978287 0.685064 -0.254411
C105  C     C_3   0.100420 0.047193 0.747217 -0.898397
H71   H     H_    0.115360 0.096203 0.688176 0.308103
H72   H     H_    0.046429 0.027147 0.787942 0.258988
H73   H     H_    0.101503 0.069999 0.813035 0.239209
H74   H     H_    0.135425 0.930274 0.746171 0.224132
H75   H     H_    0.204213 0.000030 0.648752 0.201356
H76   H     H_    0.179476 0.991337 0.522112 0.204564
H77   H     H_    0.099437 0.937101 0.622567 0.187711
C106  C     C_3   0.812280 0.172496 0.357235 -0.403417
C107  C     C_3   0.795011 0.093320 0.417681 -0.255783
C108  C     C_3   0.840600 0.027452 0.332985 -0.876644
H78   H     H_    0.830642 0.020459 0.273527 0.244804
H79   H     H_    0.896783 0.041120 0.285372 0.270755
H80   H     H_    0.828133 0.970500 0.377247 0.273184
H81   H     H_    0.804789 0.098626 0.477519 0.195700
H82   H     H_    0.739353 0.077053 0.465590 0.214666
H83   H     H_    0.811228 0.166029 0.287515 0.191190
H84   H     H_    0.866234 0.190094 0.320003 0.176315
C109  C     C_3   0.209423 0.402245 0.679270 -0.405838
C110  C     C_3   0.242623 0.403927 0.733919 -0.257870
C111  C     C_3   0.207159 0.465473 0.828298 -0.895745
H85   H     H_    0.209129 0.525120 0.796357 0.259601
H86   H     H_    0.151795 0.448535 0.897244 0.255198
H87   H     H_    0.234656 0.469134 0.862257 0.265879
H88   H     H_    0.237329 0.344315 0.768692 0.186174
H89   H     H_    0.298885 0.419319 0.670871 0.218105
H90   H     H_    0.212294 0.461890 0.646997 0.201969
H91   H     H_    0.153376 0.386115 0.744035 0.185046
C112  C     C_3   0.788759 0.641974 0.377937 -0.364760
C113  C     C_3   0.752069 0.644107 0.328842 -0.295213
C114  C     C_3   0.768075 0.569355 0.259958 -0.849673
H92   H     H_    0.825116 0.564782 0.188562 0.261829
H93   H     H_    0.750040 0.515611 0.313397 0.273888
H94   H     H_    0.740524 0.571947 0.226020 0.244565
H95   H     H_    0.694710 0.647598 0.397253 0.210256
H96   H     H_    0.769727 0.697082 0.274153 0.199047
H97   H     H_    0.845627 0.634387 0.308032 0.184905
H98   H     H_    0.769205 0.590565 0.435742 0.198553
C115  C     C_3   0.642088 0.441356 0.620387 -0.391827
C116  C     C_3   0.645115 0.470066 0.710414 -0.259155
C117  C     C_3   0.589909 0.533198 0.785434 -0.888853
H99   H     H_    0.536693 0.508035 0.831057 0.254473
H100  H     H_    0.594620 0.554400 0.847856 0.242873
H101  H     H_    0.597377 0.584581 0.734401 0.304745
H102  H     H_    0.636490 0.419395 0.763443 0.219966
H103  H     H_    0.697204 0.496890 0.669127 0.200689
H104  H     H_    0.660428 0.489894 0.558864 0.200683
H105  H     H_    0.587334 0.426445 0.659329 0.188415
C118  C     C_3   0.304746 0.654543 0.389835 -0.396605
C119  C     C_3   0.282327 0.582698 0.466731 -0.216267
C120  C     C_3   0.307056 0.588572 0.534394 -0.858182
H106  H     H_    0.320850 0.528713 0.543801 0.270276
H107  H     H_    0.354216 0.626760 0.492481 0.257991
H108  H     H_    0.264699 0.612322 0.619581 0.238471
H109  H     H_    0.224749 0.574455 0.524119 0.195338
H110  H     H_    0.306030 0.528751 0.412790 0.193446
H111  H     H_    0.302054 0.638181 0.323735 0.156303
H112  H     H_    0.360430 0.668605 0.345587 0.175376
O1    O     O_3   0.378509 0.367275 0.462061 -0.763390
H113  H     H_    0.385822 0.340871 0.510288 0.301364
O2    O     O_3   0.642169 0.713052 0.598815 -0.781407
H114  H     H_    0.629406 0.726409 0.552429 0.306003
O3    O     O_3   0.619825 0.261298 0.713599 -0.781795
H115  H     H_    0.576587 0.285443 0.735549 0.300523
O4    O     O_3   0.340978 0.823671 0.278763 -0.766044
H116  H     H_    0.379646 0.792079 0.262907 0.294367
O5    O     O_3   0.893244 0.852186 0.405692 -0.755388
H117  H     H_    0.902631 0.840587 0.457005 0.305725
O6    O     O_3   0.161575 0.208931 0.538194 -0.779607
H118  H     H_    0.153166 0.233019 0.490213 0.310126
O7    O     O_3   0.109828 0.775695 0.713919 -0.780212
H119  H     H_    0.070414 0.796717 0.720694 0.303888
O8    O     O_3   0.828030 0.349799 0.281255 -0.769110
H120  H     H_    0.869691 0.317097 0.250167 0.294020

loop_
_geom_bond_atom_site_label_1
_geom_bond_atom_site_label_2
_ccdc_geom_bond_type
C115  H105  S    
C79   O7    S    
C65   C92   S    
C24   C32   D    
C100  C101  S    
C88   C96   S    
N21   Ni4   S    
C21   C29   D    
C119  H109  S    
N2    N28   A    
C50   C60   A    
C36   H12   S    
C53   C63   A    
C51   H27   S    
C77   C94   S    
C106  C107  S    
C50   H26   S    
C23   H56   S    
C69   C96   S    
C107  C108  S    
C34   C66   A    
C117  H100  S    
C33   C65   A    
C118  C119  S    
C40   H16   S    
C71   C94   S    
C77   O5    S    
C102  H64   S    
C19   C57   S    
C4    H4    S    
N15   Ni8   S    
C54   H30   S    
C116  C117  S    
C30   H45   S    
C113  H96   S    
C75   O3    S    
C85   C109  S    
C17   C25   D    
C74   C89   S    
C50   N26   A    
C108  H78   S    
N17   Ni2   S    
C37   C69   A    
C104  H74   S    
C105  H72   S    
C82   C100  S    
N22   Ni3   S    
N29   Ni8   S    
C48   N24   A    
N12   Ni5   S    
C15   H39   S    
C8    H8    S    
C10   C94   S    
C78   C93   S    
N13   N21   A    
C112  C113  S    
C12   H36   S    
C74   O2    S    
C108  H80   S    
C97   H62   S    
C113  C114  S    
C46   H22   S    
C10   C74   S    
C55   C61   A    
C31   H48   S    
C14   C90   S    
C32   H47   S    
N28   Ni6   S    
C42   N18   A    
C43   H19   S    
C85   C93   S    
C42   H18   S    
C98   H61   S    
O2    H114  S    
C73   O1    S    
C119  C120  S    
C87   C95   S    
C13   C86   S    
C16   C87   S    
C24   C62   S    
C111  H85   S    
C54   N30   A    
C51   C57   A    
C116  H103  S    
C38   H14   S    
C81   C97   S    
C86   C94   S    
C120  H106  S    
C76   C88   S    
C37   H13   S    
C7    N7    A    
C80   C84   S    
C9    C82   S    
C53   H29   S    
C99   H59   S    
C81   C89   S    
C44   H20   S    
C26   H41   S    
C39   H15   S    
C98   C99   S    
C22   H53   S    
C49   H25   S    
C2    N2    A    
C7    H7    S    
C114  H92   S    
C18   C60   S    
C48   H24   S    
C111  H86   S    
C100  H69   S    
C110  H89   S    
C28   H43   S    
N4    N26   A    
C48   C72   A    
C51   N27   A    
N8    N30   A    
C6    N6    A    
C106  H83   S    
N24   Ni4   S    
C49   N25   A    
C102  H65   S    
N6    N32   A    
C38   N14   A    
C108  H79   S    
C79   C96   S    
C15   C79   S    
N14   N22   A    
C21   C63   S    
C113  H95   S    
N19   Ni1   S    
C45   C69   A    
C34   H10   S    
C16   H40   S    
C42   C66   A    
C112  H97   S    
N9    Ni5   S    
C105  H73   S    
N20   Ni2   S    
N26   Ni5   S    
C43   N19   A    
C104  C105  S    
C86   C112  S    
N3    N25   A    
C41   C65   A    
N11   N19   A    
C56   N32   A    
O5    H117  S    
C103  C104  S    
C41   N17   A    
C82   C90   S    
C84   C106  S    
C67   C90   S    
C35   N11   A    
C97   H63   S    
C12   C83   S    
N31   Ni7   S    
C16   C80   S    
C104  H75   S    
C1    C57   A    
N7    Ni4   S    
C101  H67   S    
C33   N9    A    
C105  H71   S    
C10   H34   S    
O7    H119  S    
C24   H55   S    
C107  H82   S    
C14   C78   S    
C110  C111  S    
N2    Ni2   S    
C103  H77   S    
C78   C82   S    
N16   Ni7   S    
C98   H60   S    
N27   Ni5   S    
C70   C95   S    
C77   C81   S    
O4    H116  S    
C7    C63   A    
C18   C26   D    
C4    C60   A    
C46   N22   A    
O1    H113  S    
C83   C103  S    
C20   H51   S    
C33   H9    S    
C55   N31   A    
C117  H101  S    
C21   H54   S    
N7    N29   A    
C80   C95   S    
C1    N1    A    
C120  H107  S    
C73   C85   S    
C66   C91   S    
C52   C58   A    
C75   C92   S    
C8    C64   A    
C72   C93   S    
C75   C87   S    
C38   C70   A    
C4    N4    A    
C55   H31   S    
C16   C92   S    
N8    Ni3   S    
C5    N5    A    
C114  H93   S    
O8    H120  S    
N5    N31   A    
C111  H87   S    
C56   C62   A    
C100  H70   S    
C44   C68   A    
C3    N3    A    
C47   C71   A    
C17   H50   S    
C1    H1    S    
C117  H99   S    
C56   H32   S    
C9    C93   S    
N10   Ni6   S    
C46   C70   A    
C19   C27   D    
C106  H84   S    
C109  H90   S    
N15   N23   A    
C109  C110  S    
C102  H66   S    
C45   H21   S    
C25   C30   S    
N16   N24   A    
C3    C59   A    
N32   Ni8   S    
C118  H112  S    
C80   O8    S    
C119  H110  S    
N25   Ni6   S    
C40   C72   A    
C76   O4    S    
C13   C89   S    
C27   C32   S    
C18   H49   S    
C11   H35   S    
C9    C73   S    
C28   C31   S    
N4    Ni1   S    
N5    Ni3   S    
C14   C85   S    
C41   H17   S    
N1    N27   A    
C34   N10   A    
N3    Ni2   S    
N6    Ni4   S    
C35   H11   S    
C73   C90   S    
C37   N13   A    
C2    C58   A    
C53   N29   A    
C9    H33   S    
C11   C84   S    
C74   C86   S    
C20   C28   D    
C10   C81   S    
C19   H52   S    
C49   C59   A    
C5    H5    S    
C103  H76   S    
C6    C62   A    
N23   Ni3   S    
C12   C76   S    
C52   N28   A    
C17   C59   S    
N9    N17   A    
N10   N18   A    
C11   C75   S    
C107  H81   S    
C13   C77   S    
C79   C83   S    
C14   H38   S    
C52   H28   S    
C44   N20   A    
C115  C116  S    
N1    Ni1   S    
C116  H102  S    
C112  H98   S    
C109  H91   S    
C47   H23   S    
C29   H46   S    
C83   C91   S    
N18   Ni1   S    
C118  H111  S    
N13   Ni7   S    
C54   C64   A    
C25   H42   S    
N11   Ni6   S    
N14   Ni8   S    
C110  H88   S    
C6    H6    S    
C39   N15   A    
C22   C30   D    
C120  H108  S    
C13   H37   S    
C78   O6    S    
C40   N16   A    
N12   N20   A    
C35   C67   A    
C76   C91   S    
C15   C91   S    
C99   H57   S    
C3    H3    S    
C45   N21   A    
C23   C61   S    
C27   H44   S    
C11   C95   S    
C101  C102  S    
C2    H2    S    
C26   C29   S    
C43   C67   A    
C97   C98   S    
N30   Ni7   S    
C114  H94   S    
C101  H68   S    
O6    H118  S    
C36   N12   A    
C87   C115  S    
C39   C71   A    
C12   C96   S    
C115  H104  S    
C84   C92   S    
C22   C64   S    
C68   C89   S    
O3    H115  S    
C20   C58   S    
C36   C68   A    
C47   N23   A    
C5    C61   A    
C88   C118  S    
C23   C31   D    
C15   C88   S    
C99   H58   S    
C8    N8    A    
