data_mof_unit_1532.cif
_audit_creation_date              2012-12-10T16:51:01-0500
_audit_creation_method            fapswitch 2.2
_symmetry_space_group_name_H-M    P1
_symmetry_Int_Tables_number       1
_space_group_crystal_system       triclinic
_cell_length_a                    8.056451
_cell_length_b                    8.564422
_cell_length_c                    10.538877
_cell_angle_alpha                 91.707629
_cell_angle_beta                  87.991675
_cell_angle_gamma                 92.061872
_cell_volume                      725.956619194

loop_
_atom_site_label
_atom_site_type_symbol
_atom_type_description
_atom_site_fract_x
_atom_site_fract_y
_atom_site_fract_z
_atom_type_partial_charge
C1    C     C_R   0.543030 0.792597 0.500989 0.840164
C2    C     C_R   0.936042 0.507878 0.076287 -0.072426
C3    C     C_R   0.068642 0.598574 0.028702 -0.157431
C4    C     C_R   0.931358 0.401426 0.971298 -0.157431
C5    C     C_R   0.208709 0.611117 0.103083 -0.181377
C6    C     C_R   0.791291 0.388883 0.896917 -0.181377
C7    C     C_R   0.351418 0.536124 0.061632 0.091752
C8    C     C_R   0.648582 0.463876 0.938368 0.091752
C9    C     C_R   0.353224 0.457227 0.943725 0.080688
C10   C     C_R   0.646776 0.542772 0.056275 0.080688
C11   C     C_R   0.497788 0.554049 0.125941 -0.230662
C12   C     C_R   0.456969 0.207403 0.499011 0.840163
C13   C     C_R   0.502212 0.445951 0.874059 -0.230662
C14   C     C_2   0.560828 0.956133 0.520367 0.192721
C15   C     C_2   0.439172 0.043867 0.479633 0.192721
C16   C     C_R   0.501248 0.479208 0.738391 0.851569
C17   C     C_R   0.498752 0.520792 0.261609 0.851570
C18   C     C_R   0.203942 0.409476 0.891343 -0.191443
C19   C     C_R   0.796057 0.590524 0.108656 -0.191443
C20   C     C_R   0.063958 0.492122 0.923713 -0.072426
H1    H     H_    0.962490 0.282527 0.993534 0.157288
H2    H     H_    0.242835 0.065446 0.377625 0.361366
H3    H     H_    0.929978 0.285879 0.356219 0.334396
H4    H     H_    0.070022 0.714121 0.643781 0.334396
H5    H     H_    0.037510 0.717473 0.006466 0.157288
H6    H     H_    0.199581 0.325787 0.811883 0.167513
H7    H     H_    0.800419 0.674213 0.188117 0.167513
H8    H     H_    0.034634 0.550204 0.836881 0.194845
H9    H     H_    0.965366 0.449796 0.163119 0.194845
H10   H     H_    0.210073 0.692407 0.183994 0.184810
H11   H     H_    0.789927 0.307593 0.816006 0.184810
H12   H     H_    0.757165 0.934554 0.622375 0.361366
N1    N     N_2   0.950330 0.457950 0.466250 0.176566
N2    N     N_2   0.049670 0.542050 0.533750 0.176565
O1    O     O_R   0.389250 0.738570 0.508280 -0.575680
O2    O     O_3   0.310087 0.980380 0.408222 -0.777341
O3    O     O_3   0.023152 0.345357 0.396000 -0.674583
O4    O     O_3   0.976848 0.654642 0.604000 -0.674583
O5    O     O_R   0.610750 0.261430 0.491720 -0.575680
O6    O     O_R   0.678390 0.711630 0.486650 -0.591502
O7    O     O_R   0.321610 0.288370 0.513350 -0.591502
O8    O     O_R   0.355430 0.513480 0.694040 -0.641155
O9    O     O_R   0.644570 0.486520 0.305960 -0.641155
O10   O     O_R   0.644570 0.486540 0.672410 -0.578617
O11   O     O_R   0.355430 0.513460 0.327590 -0.578617
O12   O     O_3   0.689913 0.019620 0.591778 -0.777342
Zn1   Zn    Zn3+2 0.306940 0.517990 0.514440 1.038539
Zn2   Zn    Zn3+2 0.693060 0.482010 0.485560 1.038539

loop_
_geom_bond_atom_site_label_1
_geom_bond_atom_site_label_2
_ccdc_geom_bond_type
C2    C4    A    
C17   O9    A    
C8    C13   A    
N2    Zn1   S    
C19   H7    S    
O9    Zn2   S    
C16   O10   A    
H4    O4    S    
C18   H6    S    
C12   C15   S    
C10   C19   A    
O1    Zn1   S    
C12   O5    A    
C14   C15   D    
C2    C3    A    
O7    Zn1   S    
C5    C7    A    
C3    C20   A    
C14   O12   S    
N2    O4    S    
C7    C11   A    
C4    H1    S    
C12   O7    A    
C2    H9    S    
C4    C6    A    
C17   O11   A    
C6    H11   S    
C18   C20   A    
O8    Zn1   S    
O11   Zn1   S    
N1    N2    D    
C10   C11   A    
C4    C20   A    
C16   O8    A    
C9    C18   A    
C3    H5    S    
H2    O2    S    
C1    O1    A    
C8    C10   A    
C5    H10   S    
C13   C16   S    
C7    C9    A    
N1    Zn2   S    
C9    C13   A    
O6    Zn2   S    
C11   C17   S    
C6    C8    A    
C1    C14   S    
C20   H8    S    
C1    O6    A    
C2    C19   A    
H3    O3    S    
H12   O12   S    
C15   O2    S    
N1    O3    S    
O10   Zn2   S    
O5    Zn2   S    
C3    C5    A    
