data_mof_unit_1334.cif
_audit_creation_date              2012-12-10T16:45:24-0500
_audit_creation_method            fapswitch 2.2
_symmetry_space_group_name_H-M    P1
_symmetry_Int_Tables_number       1
_space_group_crystal_system       triclinic
_cell_length_a                    7.509818
_cell_length_b                    8.688856
_cell_length_c                    15.779641
_cell_angle_alpha                 95.667023
_cell_angle_beta                  75.442263
_cell_angle_gamma                 103.550956
_cell_volume                      967.979257689

loop_
_atom_site_label
_atom_site_type_symbol
_atom_type_description
_atom_site_fract_x
_atom_site_fract_y
_atom_site_fract_z
_atom_type_partial_charge
Br1   Br    Br    0.246948 0.191299 0.148837 -0.487735
Br2   Br    Br    0.753109 0.808908 0.851098 -0.487679
Br3   Br    Br    0.016894 0.682037 0.614547 -0.352290
Br4   Br    Br    0.983102 0.317965 0.385452 -0.352234
C1    C     C_R   0.545273 0.800109 0.502778 0.877161
C2    C     C_R   0.614758 0.511011 0.333897 0.803083
C3    C     C_R   0.316512 0.476094 0.761421 -0.060684
C4    C     C_R   0.683494 0.524048 0.238587 -0.060690
C5    C     C_R   0.071959 0.379624 0.888099 -0.155168
C6    C     C_R   0.927943 0.620854 0.111957 -0.155155
C7    C     C_R   0.126061 0.416748 0.800029 -0.136380
C8    C     C_R   0.873887 0.583565 0.200004 -0.136426
C9    C     C_R   0.447583 0.512330 0.813695 -0.155691
C10   C     C_R   0.552452 0.487862 0.186309 -0.155736
C11   C     C_R   0.392714 0.492704 0.904230 0.094719
C12   C     C_R   0.454727 0.199891 0.497222 0.877211
C13   C     C_R   0.607292 0.507607 0.095783 0.094694
C14   C     C_R   0.206097 0.410256 0.939126 0.076685
C15   C     C_R   0.793853 0.590151 0.060910 0.076636
C16   C     C_R   0.523886 0.535017 0.958379 -0.042982
C17   C     C_R   0.476132 0.465293 0.041629 -0.042962
C18   C     C_R   0.299167 0.356398 0.067007 0.243087
C19   C     C_R   0.700841 0.643916 0.932999 0.243073
C20   C     C_R   0.161529 0.343290 0.020296 -0.215995
C21   C     C_R   0.838428 0.657102 0.979737 -0.216071
C22   C     C_2   0.569874 0.968543 0.504428 -0.315332
C23   C     C_2   0.430126 0.031457 0.495572 -0.315346
C24   C     C_R   0.385248 0.489031 0.666104 0.803109
Cu1   Cu    Cu3+1 0.322120 0.483240 0.490330 1.081461
Cu2   Cu    Cu3+1 0.677880 0.516760 0.509670 1.081458
H1    H     H_    0.024618 0.265877 0.043015 0.194288
H2    H     H_    0.296186 0.959005 0.486926 0.203550
H3    H     H_    0.975314 0.734533 0.957022 0.194306
H4    H     H_    0.404796 0.456676 0.217995 0.205735
H5    H     H_    0.595275 0.543428 0.782004 0.205700
H6    H     H_    0.977947 0.612383 0.239058 0.179539
H7    H     H_    0.021976 0.388124 0.761000 0.179596
H8    H     H_    0.927270 0.320670 0.915278 0.164872
H9    H     H_    0.072563 0.679947 0.084803 0.164934
H10   H     H_    0.703814 0.040995 0.513073 0.203552
N1    N     N_2   0.945180 0.542040 0.524240 0.052019
N2    N     N_2   0.054820 0.457960 0.475760 0.052026
O1    O     O_R   0.384450 0.714270 0.493720 -0.560949
O2    O     O_R   0.615550 0.285730 0.506280 -0.560937
O3    O     O_R   0.684880 0.742590 0.510050 -0.562388
O4    O     O_R   0.315120 0.257410 0.489950 -0.562375
O5    O     O_R   0.265540 0.477900 0.617090 -0.562059
O6    O     O_R   0.734460 0.522100 0.382910 -0.562044
O7    O     O_R   0.565970 0.506210 0.633420 -0.568597
O8    O     O_R   0.434030 0.493790 0.366580 -0.568591

loop_
_geom_bond_atom_site_label_1
_geom_bond_atom_site_label_2
_ccdc_geom_bond_type
C10   H4    S    
C11   C14   A    
C2    C4    S    
C24   O5    A    
Cu1   Cu2   S    
Cu1   N2    S    
C8    H6    S    
N1    N2    D    
C12   O2    A    
Cu2   O3    S    
C16   C19   A    
Cu1   O4    S    
C4    C8    A    
C22   H10   S    
C12   C23   S    
C9    C11   A    
C1    O1    A    
C20   H1    S    
Br1   C18   S    
Cu2   N1    S    
C17   C18   A    
Cu1   O1    S    
C3    C7    A    
C5    C7    A    
C10   C13   A    
Cu2   O2    S    
C22   C23   D    
C2    O6    A    
Br4   N2    S    
Cu1   O5    S    
C14   C20   A    
C6    C8    A    
Cu2   O6    S    
C5    H8    S    
C13   C15   A    
Cu2   O7    S    
C9    H5    S    
Cu1   O8    S    
C19   C21   A    
C11   C16   A    
C15   C21   A    
C18   C20   A    
C1    C22   S    
C5    C14   A    
C3    C9    A    
C16   C17   A    
C24   O7    A    
C6    C15   A    
C12   O4    A    
Br2   C19   S    
C7    H7    S    
Br3   N1    S    
C4    C10   A    
C23   H2    S    
C1    O3    A    
C2    O8    A    
C3    C24   S    
C21   H3    S    
C6    H9    S    
C13   C17   A    
