data_mof_unit_1400.cif
_audit_creation_date              2013-03-05T15:41:43-0500
_audit_creation_method            fapswitch 2.2
_symmetry_space_group_name_H-M    P1
_symmetry_Int_Tables_number       1
_space_group_crystal_system       triclinic
_cell_length_a                    6.94124
_cell_length_b                    13.645694
_cell_length_c                    20.422674
_cell_angle_alpha                 102.032668
_cell_angle_beta                  89.88784
_cell_angle_gamma                 90.219934
_cell_volume                      1891.87952626

loop_
_atom_site_label
_atom_site_type_symbol
_atom_site_description
_atom_site_fract_x
_atom_site_fract_y
_atom_site_fract_z
_atom_type_partial_charge
O1    O     O_R   0.506860 0.599390 0.449240 -0.567518
O2    O     O_R   0.180220 0.594600 0.586780 -0.531206
O3    O     O_R   0.004500 0.400610 0.550760 -0.542208
C1    C     C_R   0.347715 0.613780 0.614398 0.871572
O4    O     O_R   0.177490 0.611290 0.451970 -0.569204
O5    O     O_R   0.001750 0.417420 0.414990 -0.528370
C2    C     C_R   0.346264 0.637917 0.435178 0.838857
O6    O     O_R   0.509610 0.582580 0.585010 -0.551430
O7    O     O_3   0.337420 0.436370 0.488020 -0.249831
V1    V     V_3+5 0.064680 0.511800 0.502220 1.230145
O8    O     O_R   0.671710 0.405400 0.413220 -0.524281
C3    C     C_R   0.840847 0.386305 0.385892 0.843425
O9    O     O_R   0.674440 0.388710 0.548030 -0.568731
C4    C     C_R   0.843241 0.361991 0.564732 0.863214
V2    V     V_3+5 0.564010 0.488200 0.497780 1.226284
O10   O     O_3   0.841140 0.563630 0.511980 -0.283460
C5    C     C_R   0.914033 0.113829 0.612906 -0.068277
H1    H     H_    0.911988 0.164594 0.520294 0.076741
H2    H     H_    0.947746 0.989878 0.696352 0.076629
H3    H     H_    0.944688 0.037189 0.588194 0.067754
C6    C     C_R   0.853406 0.284887 0.604667 -0.080984
C7    C     C_R   0.827195 0.313641 0.928028 -0.098012
C8    C     C_R   0.808217 0.388957 0.892089 -0.055943
C9    C     C_R   0.818426 0.366662 0.822418 -0.066500
C10   C     C_R   0.848665 0.267190 0.786572 0.044162
C11   C     C_R   0.871470 0.190520 0.823908 0.013113
C12   C     C_R   0.858642 0.241403 0.715102 0.035952
C13   C     C_R   0.897054 0.140512 0.682899 0.066169
C14   C     C_R   0.919315 0.066982 0.720633 -0.102541
C15   C     C_R   0.905614 0.091266 0.789931 -0.096105
C16   C     C_R   0.832940 0.312241 0.674224 -0.089084
C17   C     C_R   0.894631 0.185906 0.574120 -0.105545
C18   C     C_R   0.859100 0.214777 0.894734 -0.085852
H4    H     H_    0.798646 0.389442 0.694664 0.111723
H5    H     H_    0.816466 0.332442 0.982148 0.054398
H6    H     H_    0.803282 0.429284 0.798350 0.105166
H7    H     H_    0.784504 0.465428 0.918446 0.079440
H8    H     H_    0.923786 0.031327 0.816737 0.073721
C19   C     C_2   0.008760 0.285163 0.284440 0.348000
C20   C     C_2   0.847230 0.326104 0.316553 -0.220593
H9    H     H_    0.710499 0.317185 0.290406 0.142968
C21   C     C_2   0.004682 0.226507 0.214054 -0.193420
C22   C     C_2   0.858576 0.166996 0.185210 0.146525
H10   H     H_    0.133119 0.232405 0.184600 0.128379
C23   C     C_2   0.204572 0.778059 0.787600 -0.152488
C24   C     C_2   0.365554 0.812827 0.820986 -0.273128
H11   H     H_    0.066348 0.803034 0.809871 0.142851
H12   H     H_    0.504977 0.784931 0.801608 0.120380
C25   C     C_2   0.202614 0.698578 0.724750 0.340324
C26   C     C_2   0.354264 0.683061 0.681137 -0.260966
H13   H     H_    0.485317 0.726642 0.692548 0.085487
C27   C     C_R   0.343379 0.888629 0.387163 -0.051664
H14   H     H_    0.340064 0.838522 0.479986 0.051207
H15   H     H_    0.335991 0.013625 0.303881 0.158797
H16   H     H_    0.337056 0.966885 0.412091 0.084339
C28   C     C_R   0.353994 0.714739 0.395024 -0.076951
C29   C     C_R   0.365197 0.684429 0.071336 -0.093631
C30   C     C_R   0.365722 0.608342 0.107117 -0.057355
C31   C     C_R   0.361758 0.631014 0.176869 -0.075735
C32   C     C_R   0.356283 0.731680 0.212955 0.049807
C33   C     C_R   0.352836 0.809338 0.175802 -0.008732
C34   C     C_R   0.354490 0.757906 0.284498 0.039338
C35   C     C_R   0.347078 0.860758 0.316993 0.042225
C36   C     C_R   0.342222 0.935178 0.279404 -0.037688
C37   C     C_R   0.345153 0.910069 0.210007 -0.063640
C38   C     C_R   0.359064 0.685779 0.325198 -0.113768
C39   C     C_R   0.345734 0.815944 0.425915 -0.105965
C40   C     C_R   0.358530 0.784605 0.104903 -0.087659
H17   H     H_    0.364086 0.606467 0.304510 0.086454
H18   H     H_    0.370688 0.665171 0.017131 0.057700
H19   H     H_    0.363225 0.567822 0.200811 0.078455
H20   H     H_    0.370482 0.530922 0.080571 0.074414
H21   H     H_    0.340644 0.970644 0.183287 0.128828
O11   O     O_R   0.203230 0.917310 0.915020 -0.563222
O12   O     O_R   0.535500 0.888690 0.048040 -0.557568
O13   O     O_R   0.711080 0.082610 0.085000 -0.520475
C41   C     C_R   0.366719 0.862091 0.064895 0.820377
O14   O     O_R   0.532630 0.905370 0.913230 -0.564675
O15   O     O_R   0.708190 0.099410 0.949230 -0.563123
C42   C     C_R   0.364981 0.883845 0.886596 0.852967
O16   O     O_R   0.206120 0.900510 0.050790 -0.561708
O17   O     O_3   0.375360 0.063570 0.011990 -0.264968
V3    V     V_3+5 0.648170 0.988200 0.997780 1.172265
O18   O     O_R   0.038240 0.111390 0.951940 -0.566128
C43   C     C_R   0.869423 0.137549 0.934869 0.810297
O19   O     O_R   0.041120 0.094710 0.086750 -0.572923
C44   C     C_R   0.871974 0.112909 0.114324 0.792469
V4    V     V_3+5 0.148810 0.011930 0.002180 1.156575
O20   O     O_3   0.871750 0.936430 0.988010 -0.279021
N1    N     N_R   0.695786 0.145896 0.223849 0.078038
O21   O     O_R   0.521622 0.151079 0.201439 -0.349470
O22   O     O_R   0.722310 0.111453 0.277960 -0.369780
N2    N     N_R   0.032858 0.636602 0.712483 0.097357
O23   O     O_R   0.863505 0.675780 0.726957 -0.404615
O24   O     O_R   0.049678 0.539536 0.699546 -0.395109
N3    N     N_R   0.194562 0.303778 0.315109 0.107877
O25   O     O_R   0.293085 0.229325 0.328226 -0.319078
O26   O     O_R   0.280935 0.388790 0.315800 -0.382835

loop_
_geom_bond_atom_site_label_1
_geom_bond_atom_site_label_2
_geom_bond_distance
_ccdc_geom_bond_type
C24   C42   1.480949 S    
N2    O23   1.301008 A    
C1    O6    1.303377 A    
C30   H20   1.082813 S    
C29   C30   1.388665 A    
C23   C24   1.342627 D    
C7    H5    1.083793 S    
C6    C16   1.398555 A    
C9    H6    1.076508 S    
C4    C6    1.461412 S    
C13   C14   1.395895 A    
O5    C3    1.294056 A    
O14   C42   1.292113 A    
C38   H17   1.077311 S    
V2    O10   2.169427 S    
C5    H3    1.083939 S    
C37   H21   1.081820 S    
C15   H8    1.082745 S    
C32   C34   1.430047 A    
C18   C43   1.465776 S    
O8    V2    2.001421 S    
O14   V3    2.021646 S    
O11   V4    2.005288 S    
N3    O26   1.301236 A    
C8    C9    1.393352 A    
O1    V2    2.018772 S    
C23   C25   1.497845 S    
C29   H18   1.083794 S    
O7    V1    2.148474 S    
O17   V4    1.715642 S    
C27   H16   1.083987 S    
C31   C32   1.417653 A    
N2    O24   1.301150 A    
O11   C42   1.302658 A    
O9    C4    1.295698 A    
C21   H10   1.086584 S    
C2    C28   1.460166 S    
O13   V3    2.016241 S    
C19   C21   1.492666 S    
C23   H11   1.086157 S    
V3    O20   1.701694 S    
C6    C17   1.395102 A    
C24   H12   1.084717 S    
C22   N1    1.439151 S    
C34   C38   1.414922 A    
C12   C16   1.414755 A    
C9    C10   1.417642 A    
C19   C20   1.359599 D    
O4    C2    1.291959 A    
O19   C44   1.303309 A    
C30   C31   1.393503 A    
C8    H7    1.082818 S    
O17   V3    2.148538 S    
C1    C26   1.488702 S    
C32   C33   1.426443 A    
C3    C20   1.482263 S    
O2    C1    1.294991 A    
C14   C15   1.387812 A    
C11   C18   1.417493 A    
N1    O22   1.301540 A    
C41   O16   1.291979 A    
N3    O25   1.300448 A    
C34   C35   1.422997 A    
C26   H13   1.083683 S    
C16   H4    1.076527 S    
O18   C43   1.295675 A    
O12   C41   1.292290 A    
O13   C44   1.293329 A    
O3    C4    1.291887 A    
C20   H9    1.083845 S    
C11   C15   1.407834 A    
O6    V2    2.004835 S    
O9    V2    2.018858 S    
H1    C17   1.083490 S    
C21   C22   1.353352 D    
C29   C40   1.396551 A    
O2    V1    2.021641 S    
O15   C43   1.291230 A    
C40   C41   1.465731 S    
C7    C18   1.396640 A    
O1    C2    1.292365 A    
C5    C13   1.404436 A    
O18   V4    2.018778 S    
C27   C39   1.392057 A    
C27   C35   1.404141 A    
O5    V1    2.016239 S    
O8    C3    1.302634 A    
C10   C12   1.429937 A    
C28   C39   1.394884 A    
C22   C44   1.484463 S    
C36   C37   1.387067 A    
C10   C11   1.426665 A    
O4    V1    2.019658 S    
O3    V1    2.019881 S    
V1    O10   1.701757 S    
O15   V3    2.020021 S    
C33   C40   1.417097 A    
O12   V3    2.019627 S    
N1    O21   1.300871 A    
H15   C36   1.083890 S    
C28   C38   1.398553 A    
O19   V4    2.001439 S    
O7    V2    1.716858 S    
H14   C39   1.083480 S    
C19   N3    1.433335 S    
O16   V4    2.022603 S    
C35   C36   1.395388 A    
C33   C37   1.407219 A    
V4    O20   2.169399 S    
C25   C26   1.365878 D    
C12   C13   1.422536 A    
C5    C17   1.392547 A    
C7    C8    1.388607 A    
C25   N2    1.439297 S    
C31   H19   1.076397 S    
H2    C14   1.084211 S    
