data_mof_unit_2424.cif
_audit_creation_date              2013-03-05T16:00:38-0500
_audit_creation_method            fapswitch 2.2
_symmetry_space_group_name_H-M    P1
_symmetry_Int_Tables_number       1
_space_group_crystal_system       triclinic
_cell_length_a                    8.265411
_cell_length_b                    12.635862
_cell_length_c                    19.073733
_cell_angle_alpha                 99.8128
_cell_angle_beta                  91.606833
_cell_angle_gamma                 98.278475
_cell_volume                      1939.64779277

loop_
_atom_site_label
_atom_site_type_symbol
_atom_site_description
_atom_site_fract_x
_atom_site_fract_y
_atom_site_fract_z
_atom_type_partial_charge
P1    P     P_3+3 0.042930 0.392230 0.337410 0.502827
O1    O     O_2   0.875110 0.423180 0.326290 -0.334193
O2    O     O_3   0.123410 0.433040 0.414950 -0.414858
O3    O     O_3   0.661010 0.625070 0.369680 -0.366129
O4    O     O_2   0.724326 0.522168 0.247709 -0.399301
O5    O     O_3   0.010683 0.250386 0.319993 -0.528692
O6    O     O_3   0.714832 0.732898 0.253281 -0.521488
H1    H     H_    0.758693 0.847927 0.345194 0.156019
C1    C     C_3   0.646584 0.912503 0.260962 -0.911833
H2    H     H_    0.641262 0.987260 0.301076 0.257994
H3    H     H_    0.752722 0.926608 0.227411 0.288603
P2    P     P_3+3 0.672230 0.754900 0.555730 0.439932
P3    P     P_3+3 0.127473 0.823957 0.407783 0.444178
O7    O     O_2   0.847800 0.768730 0.534310 -0.365388
O8    O     O_3   0.082250 0.684470 0.405440 -0.377066
O9    O     O_2   0.010640 0.879087 0.458867 -0.376225
O10   O     O_3   0.691922 0.791512 0.648734 -0.580831
O11   O     O_3   0.071238 0.853507 0.325004 -0.520995
C2    C     C_3   0.152183 0.793069 0.272435 0.449370
H4    H     H_    0.113129 0.704684 0.270495 0.113773
H5    H     H_    0.286604 0.813744 0.282850 0.017873
C3    C     C_3   0.108247 0.820399 0.200264 -0.952384
H6    H     H_    0.978671 0.786002 0.183324 0.280598
H7    H     H_    0.125153 0.910119 0.203278 0.268652
C4    C     C_3   0.245094 0.789163 0.620069 0.375698
H8    H     H_    0.376912 0.782914 0.620562 0.094516
H9    H     H_    0.183389 0.745722 0.568574 0.133279
C5    C     C_3   0.223619 0.907538 0.626387 -0.877300
H10   H     H_    0.262883 0.952346 0.680436 0.264269
H11   H     H_    0.295140 0.946118 0.586680 0.225987
H12   H     H_    0.092400 0.912819 0.617230 0.272481
Ba1   Ba    Ba6+2 0.853180 0.547790 0.465300 1.560963
C6    C     C_3   0.956502 0.209943 0.380474 0.408822
H13   H     H_    0.826276 0.218358 0.385662 0.097433
H14   H     H_    0.028791 0.250852 0.430113 0.122367
C7    C     C_3   0.974473 0.090703 0.369950 -0.855161
H15   H     H_    0.923990 0.049617 0.316411 0.279026
H16   H     H_    0.909928 0.051119 0.410968 0.222785
H17   H     H_    0.105985 0.082752 0.373384 0.260387
C8    C     C_3   0.725911 0.702654 0.678417 0.457896
H18   H     H_    0.843224 0.679202 0.659737 0.092239
H19   H     H_    0.626554 0.632185 0.664259 0.137186
C9    C     C_3   0.739961 0.734979 0.759162 -1.002606
H20   H     H_    0.840933 0.803620 0.775554 0.270180
H21   H     H_    0.765539 0.665309 0.783815 0.221543
H22   H     H_    0.623155 0.759621 0.778766 0.268929
P4    P     P_3+3 0.146790 0.607860 0.662600 0.463985
O12   O     O_2   0.314600 0.576860 0.673750 -0.364223
O13   O     O_3   0.066300 0.567050 0.585060 -0.409908
O14   O     O_3   0.528700 0.375020 0.630330 -0.363997
O15   O     O_3   0.178531 0.749939 0.679088 -0.559427
P5    P     P_3+3 0.064175 0.175203 0.593308 0.442582
O16   O     O_3   0.611760 0.365720 0.463870 -0.396513
O17   O     O_3   0.107460 0.315620 0.594570 -0.384265
O18   O     O_2   0.186574 0.121215 0.544530 -0.372971
O19   O     O_3   0.118134 0.148587 0.677344 -0.528104
Ba2   Ba    Ba6+2 0.336650 0.452300 0.534710 1.543804
P6    P     P_3+3 0.627520 0.612523 0.279124 0.431611
C10   C     C_3   0.664724 0.819539 0.300337 0.419824
H23   H     H_    0.544833 0.798358 0.323689 0.014328
H24   H     H_    0.530964 0.894347 0.226397 0.244150
O20   O     O_3   0.577950 0.634370 0.536140 -0.409784
C11   C     C_3   0.472979 0.276847 0.315602 0.260166
H25   H     H_    0.351228 0.299125 0.329396 0.050958
H26   H     H_    0.568978 0.348443 0.332797 0.130191
C12   C     C_3   0.474741 0.244466 0.234613 -0.103275
H27   H     H_    0.383580 0.170602 0.216081 0.125853
H28   H     H_    0.438799 0.311293 0.209250 0.063371
P7    P     P_3+3 0.520401 0.229792 0.440076 0.426567
O21   O     O_2   0.341900 0.231310 0.465740 -0.360247
O22   O     O_3   0.500839 0.188497 0.347610 -0.570026
H29   H     H_    0.188476 0.785191 0.159551 0.216175
C13   C     C_3   0.056735 0.223170 0.729434 0.494835
H30   H     H_    0.120045 0.307519 0.729271 0.122254
H31   H     H_    0.922113 0.219328 0.719590 0.001812
C14   C     C_3   0.086887 0.194345 0.802925 -0.938308
H32   H     H_    0.204395 0.242703 0.829519 0.264309
H33   H     H_    0.982733 0.213139 0.837759 0.213765
H34   H     H_    0.093801 0.105207 0.797729 0.270344
P8    P     P_3+3 0.565729 0.381627 0.720705 0.432267
C15   C     C_3   0.530323 0.173478 0.701511 0.484637
H35   H     H_    0.653976 0.194150 0.681433 0.002858
O23   O     O_2   0.471681 0.471589 0.755886 -0.417619
O24   O     O_3   0.475956 0.260986 0.745795 -0.512741
H36   H     H_    0.441784 0.144870 0.654729 0.140909
H37   H     H_    0.649491 0.100555 0.780947 0.255542
C16   C     C_3   0.538977 0.081162 0.743160 -1.004844
H38   H     H_    0.547377 0.004118 0.705781 0.242418
H39   H     H_    0.427140 0.068978 0.773659 0.279529
C17   C     C_R   0.057165 0.564348 0.801410 -0.322102
H40   H     H_    0.150920 0.631861 0.822906 0.154542
C18   C     C_R   0.019653 0.544016 0.726914 0.315118
C19   C     C_R   0.850673 0.413511 0.812280 -0.343761
H41   H     H_    0.795505 0.348384 0.837872 0.148384
C20   C     C_R   0.784113 0.420350 0.745169 0.232125
C21   C     C_R   0.339087 0.594713 0.192138 -0.371592
H42   H     H_    0.390487 0.667676 0.173671 0.145383
C22   C     C_R   0.410361 0.573283 0.254568 0.248108
C23   C     C_R   0.119256 0.450047 0.198216 -0.284827
H43   H     H_    0.014504 0.391592 0.176109 0.198046
C24   C     C_R   0.167520 0.455829 0.271468 0.298140
C25   C     C_R   0.980839 0.492941 0.846007 0.102505
C26   C     C_R   0.877196 0.475820 0.700326 -0.447084
H44   H     H_    0.832933 0.471875 0.645876 0.158616
C27   C     C_R   0.203132 0.523740 0.156120 0.090293
C28   C     C_R   0.319418 0.511468 0.296452 -0.458207
H45   H     H_    0.368575 0.505054 0.348501 0.159493
C29   C     C_R   0.754133 0.448839 0.964009 -0.190334
C30   C     C_R   0.649642 0.419644 0.015504 -0.126866
C31   C     C_R   0.700204 0.451782 0.086301 0.007480
C32   C     C_R   0.860518 0.501404 0.104450 -0.135435
C33   C     C_R   0.979951 0.501517 0.053795 0.041021
C34   C     C_R   0.924374 0.482915 0.979877 0.100544
C35   C     C_R   0.148862 0.527349 0.077236 -0.060165
C36   C     C_R   0.260537 0.551565 0.023290 0.099173
C37   C     C_R   0.205156 0.531972 0.949136 0.058039
C38   C     C_R   0.036607 0.500893 0.925645 -0.061009
C39   C     C_R   0.428876 0.594754 0.039032 -0.182365
C40   C     C_R   0.530207 0.628420 0.987508 -0.111387
C41   C     C_R   0.479975 0.597094 0.916626 -0.104845
C42   C     C_R   0.324611 0.539672 0.898527 -0.156674
H46   H     H_    0.692987 0.450965 0.914242 0.152026
H47   H     H_    0.522347 0.387028 0.001000 0.140246
H48   H     H_    0.611386 0.444044 0.126319 0.157192
H49   H     H_    0.893637 0.540940 0.158130 0.184531
H50   H     H_    0.494105 0.596537 0.088135 0.138652
H51   H     H_    0.656016 0.665329 0.002025 0.136960
H52   H     H_    0.565417 0.610617 0.875971 0.150325
H53   H     H_    0.297014 0.501533 0.844398 0.189337
C43   C     C_R   0.763264 0.182899 0.526589 -0.509717
C44   C     C_R   0.428934 0.806947 0.470941 -0.506112
C45   C     C_R   0.403535 0.983213 0.444419 -0.203180
C46   C     C_R   0.339246 0.874864 0.441331 0.193137
C47   C     C_R   0.576576 0.848765 0.509977 0.276642
C48   C     C_R   0.640498 0.960944 0.516887 -0.072608
C49   C     C_R   0.553542 0.028078 0.482066 -0.067333
C50   C     C_R   0.616864 0.139160 0.487500 0.262314
C51   C     C_R   0.853509 0.117420 0.558095 0.202428
C52   C     C_R   0.789274 0.008068 0.555988 -0.189046
H54   H     H_    0.331768 0.031705 0.419022 0.180659
H55   H     H_    0.857627 0.961067 0.584082 0.178351
H56   H     H_    0.812180 0.267738 0.528956 0.169232
H57   H     H_    0.378099 0.722256 0.467547 0.175992
N1    N     N_R   0.637281 0.222832 0.213227 0.288991
O25   O     O_R   0.713073 0.275329 0.167856 -0.405846
O26   O     O_R   0.702243 0.145543 0.235113 -0.367679

loop_
_geom_bond_atom_site_label_1
_geom_bond_atom_site_label_2
_geom_bond_distance
_ccdc_geom_bond_type
C12   H28   1.112985 S    
C16   H38   1.116490 S    
C11   H26   1.110468 S    
C19   H41   1.079256 S    
P1    C24   1.862006 S    
C13   H30   1.118233 S    
C2    H4    1.110980 S    
P6    C22   1.817787 S    
C14   H34   1.123633 S    
P8    O24   1.745362 S    
C44   C47   1.397139 A    
O16   P7    1.751518 S    
C33   C35   1.428151 A    
C35   C36   1.443480 A    
O12   Ba2   2.868895 S    
P4    O13   1.575421 S    
C37   C38   1.429425 A    
C4    C5    1.516435 S    
C48   C52   1.417483 A    
P3    O11   1.748758 S    
C1    H24   1.118276 S    
C5    H10   1.103653 S    
C2    H5    1.108371 S    
C14   H33   1.129652 S    
O11   C2    1.399995 S    
H1    C10   1.114389 S    
C12   N1    1.464407 S    
C28   H45   1.082374 S    
C36   C37   1.443257 A    
C6    C7    1.515104 S    
O13   Ba2   2.932005 S    
C29   C30   1.387828 A    
O1    Ba1   2.868506 S    
P1    O1    1.513263 D    
P4    C18   1.850775 S    
C3    H29   1.112089 S    
P7    O22   1.747857 S    
C31   C32   1.389180 A    
C17   C25   1.436479 A    
C18   C26   1.382582 A    
C31   H48   1.080417 S    
C39   C40   1.390799 A    
C8    C9    1.521226 S    
C23   H43   1.078062 S    
C20   C26   1.378670 A    
C45   C46   1.386183 A    
C21   C22   1.398146 A    
P2    O10   1.752072 S    
C32   H49   1.069298 S    
P5    C51   1.848585 S    
Ba2   O21   2.883734 S    
C1    H2    1.116758 S    
O6    P6    1.742630 S    
P5    O18   1.545853 D    
C8    H19   1.111409 S    
C12   H27   1.110805 S    
C11   C12   1.530186 S    
C10   H23   1.114002 S    
C19   C20   1.400205 A    
P2    C47   1.837817 S    
P2    Ba1   3.434227 S    
C13   H31   1.115946 S    
P7    O21   1.569138 D    
Ba1   Ba2   4.562187 S    
P8    O23   1.539627 D    
O6    C10   1.411428 S    
C33   C34   1.440034 A    
P5    O17   1.754662 S    
C15   H35   1.112933 S    
C7    H17   1.107095 S    
P7    C50   1.827832 S    
C23   C27   1.446557 A    
C37   C42   1.404973 A    
P1    O5    1.745944 S    
C27   C35   1.567999 S    
C48   C49   1.420617 A    
C2    C3    1.521907 S    
C14   H32   1.126858 S    
N1    O26   1.301447 A    
C29   H46   1.069069 S    
O16   Ba2   2.928821 S    
H37   C16   1.119060 S    
C30   H47   1.083207 S    
P4    O15   1.748736 S    
Ba2   O20   2.815242 S    
C4    H8    1.103563 S    
P1    Ba1   3.426632 S    
O14   P8    1.728028 S    
P1    O2    1.575395 S    
O10   C8    1.399545 S    
C29   C34   1.419216 A    
C9    H20   1.109516 S    
C4    O15   1.400705 S    
P4    Ba2   3.427139 S    
P2    O20   1.585665 S    
C17   C18   1.417415 A    
P4    O12   1.513538 D    
C45   C49   1.408258 A    
C36   C39   1.423379 A    
C21   H42   1.077426 S    
C6    H13   1.102276 S    
O3    Ba1   2.773817 S    
P8    C20   1.826446 S    
C9    H21   1.109035 S    
C15   C16   1.527623 S    
C25   C38   1.557333 S    
C34   C38   1.433652 A    
O4    P6    1.536085 D    
C8    H18   1.105031 S    
C23   C24   1.429053 A    
C11   O22   1.403744 S    
C1    H3    1.111868 S    
C13   C14   1.529791 S    
C3    H7    1.113458 S    
C4    H9    1.110691 S    
C43   C51   1.387139 A    
O2    Ba2   2.800854 S    
Ba1   O16   2.815829 S    
C15   O24   1.408571 S    
C44   H57   1.082270 S    
C41   C42   1.384236 A    
C21   C27   1.412608 A    
C24   C28   1.376844 A    
C7    H15   1.104286 S    
O19   C13   1.407019 S    
C32   C33   1.400556 A    
O14   Ba2   2.773215 S    
P3    C46   1.832966 S    
C5    H12   1.107008 S    
C42   H53   1.065715 S    
N1    O25   1.299143 A    
C44   C46   1.389215 A    
O8    Ba1   2.779010 S    
C19   C25   1.417333 A    
C40   C41   1.376842 A    
C41   H52   1.081845 S    
C47   C48   1.422149 A    
C45   H54   1.073167 S    
C22   C28   1.375003 A    
O5    C6    1.398740 S    
P3    O8    1.740903 S    
P2    O7    1.512574 D    
Ba1   O20   2.929655 S    
C5    H11   1.108453 S    
C30   C31   1.376799 A    
C52   H55   1.071056 S    
C17   H40   1.081182 S    
C7    H16   1.107633 S    
C6    H14   1.110473 S    
O2    Ba1   2.931171 S    
C43   H56   1.082767 S    
C9    H22   1.111744 S    
Ba1   O13   2.800266 S    
C51   C52   1.400496 A    
C11   H25   1.110101 S    
O7    Ba1   2.883571 S    
P3    O9    1.543475 D    
O3    P6    1.718222 S    
C26   H44   1.082012 S    
C16   H39   1.111889 S    
C3    H6    1.113122 S    
C49   C50   1.410898 A    
C39   H50   1.062712 S    
C1    C10   1.520362 S    
C43   C50   1.393532 A    
C15   H36   1.113404 S    
P5    O19   1.751595 S    
O17   Ba2   2.779610 S    
C40   H51   1.084285 S    
