data_mof_unit_4627.cif
_audit_creation_date              2012-12-10T17:32:59-0500
_audit_creation_method            fapswitch 2.2
_symmetry_space_group_name_H-M    P1
_symmetry_Int_Tables_number       1
_space_group_crystal_system       triclinic
_cell_length_a                    12.354394
_cell_length_b                    13.268572
_cell_length_c                    14.186411
_cell_angle_alpha                 93.517935
_cell_angle_beta                  107.809586
_cell_angle_gamma                 116.783513
_cell_volume                      1921.48856222

loop_
_atom_site_label
_atom_site_type_symbol
_atom_type_description
_atom_site_fract_x
_atom_site_fract_y
_atom_site_fract_z
_atom_type_partial_charge
C1    C     C_R   0.654654 0.714906 0.514938 0.842365
C2    C     C_R   0.820247 0.465562 0.917627 0.003007
C3    C     C_R   0.775638 0.490206 0.992374 0.129662
C4    C     C_R   0.914892 0.428656 0.942795 -0.072363
C5    C     C_R   0.987326 0.445517 0.047197 0.008568
C6    C     C_R   0.940222 0.468557 0.120522 -0.303075
C7    C     C_R   0.833011 0.487644 0.093419 0.380862
C8    C     C_R   0.940630 0.375915 0.867746 0.387544
C9    C     C_R   0.053071 0.366503 0.895502 -0.145216
C10   C     C_R   0.135545 0.398228 0.997221 -0.030426
C11   C     C_R   0.102925 0.436393 0.074357 0.107558
C12   C     C_R   0.617756 0.515788 0.687095 0.787836
C13   C     C_R   0.247801 0.387195 0.022528 -0.172733
C14   C     C_R   0.327407 0.410155 0.123957 0.395219
C15   C     C_R   0.189581 0.467952 0.175901 -0.285013
C16   C     C_R   0.137252 0.970470 0.370177 -0.198249
C17   C     C_R   0.259219 0.163277 0.478082 -0.132858
C18   C     C_R   0.772141 0.910401 0.630134 0.296665
C19   C     C_R   0.896373 0.008101 0.684581 0.341220
C20   C     C_R   0.994010 0.038706 0.645082 -0.163704
C21   C     C_R   0.970134 0.980493 0.547842 0.012969
C22   C     C_R   0.849293 0.876746 0.497862 -0.023562
C23   C     C_R   0.347885 0.285863 0.488737 0.796562
C24   C     C_R   0.064334 0.018123 0.500686 0.079104
C25   C     C_R   0.043021 0.941302 0.413895 0.089710
C26   C     C_R   0.924314 0.839041 0.367099 -0.199835
C27   C     C_R   0.826132 0.811232 0.404649 -0.137482
C28   C     C_R   0.174218 0.131391 0.531875 0.321176
C29   C     C_R   0.245438 0.080679 0.402684 -0.244551
C30   C     C_R   0.754543 0.838349 0.543035 -0.183020
C31   C     C_R   0.254419 0.686723 0.661632 -0.299196
C32   C     C_R   0.654443 0.340500 0.364440 0.129183
C33   C     C_R   0.731955 0.305915 0.333874 -0.224309
C34   C     C_R   0.378203 0.478672 0.312099 0.796894
C35   C     C_R   0.867471 0.366356 0.384278 -0.212034
C36   C     C_R   0.927822 0.462727 0.466794 -0.002072
C37   C     C_R   0.843964 0.495360 0.495206 0.301428
C38   C     C_R   0.067555 0.527368 0.522450 -0.028612
C39   C     C_R   0.119475 0.622486 0.605019 0.175340
C40   C     C_R   0.036675 0.653022 0.631193 -0.269682
C41   C     C_R   0.902501 0.591063 0.577788 -0.173333
C42   C     C_R   0.159212 0.502238 0.500674 0.049717
C43   C     C_R   0.338556 0.657201 0.636786 0.088226
C44   C     C_R   0.674898 0.513194 0.793581 -0.056417
C45   C     C_R   0.299547 0.452926 0.202355 -0.156959
C46   C     C_R   0.675806 0.519548 0.964786 -0.133040
C47   C     C_R   0.624135 0.528672 0.865627 -0.225478
C48   C     C_R   0.775892 0.486754 0.821495 -0.236233
Cu1   Cu    Cu3+1 0.416420 0.526630 0.522910 0.971936
Cu2   Cu    Cu3+1 0.583580 0.473370 0.477090 0.943390
H1    H     H_    0.271284 0.356015 0.963277 0.163285
H2    H     H_    0.311631 0.104444 0.362236 0.164386
H3    H     H_    0.904730 0.783098 0.297917 0.163743
H4    H     H_    0.122918 0.910449 0.306186 0.152222
H5    H     H_    0.090184 0.103897 0.696348 0.219461
H6    H     H_    0.731893 0.736607 0.359967 0.168768
H7    H     H_    0.076094 0.725852 0.694339 0.151984
H8    H     H_    0.294668 0.759393 0.725080 0.142611
H9    H     H_    0.128195 0.431671 0.438993 0.123531
H10   H     H_    0.549483 0.292117 0.325337 0.106896
H11   H     H_    0.922503 0.335739 0.357319 0.142383
H12   H     H_    0.686698 0.231722 0.270819 0.151661
H13   H     H_    0.848227 0.621231 0.604698 0.198615
H14   H     H_    0.073219 0.329653 0.836968 0.200427
H15   H     H_    0.545419 0.548847 0.845755 0.164439
H16   H     H_    0.982193 0.468244 0.199133 0.132154
N1    N     N_R   0.290690 0.566960 0.557640 -0.183429
N2    N     N_R   0.709100 0.433710 0.442970 -0.204800
O1    O     O_R   0.545970 0.684450 0.528810 -0.516814
O2    O     O_R   0.687130 0.639470 0.490120 -0.613737
O3    O     O_R   0.519670 0.535100 0.660030 -0.580862
O4    O     O_R   0.660830 0.490120 0.621340 -0.600201
O5    O     O_R   0.312870 0.360530 0.509880 -0.550552
O6    O     O_R   0.454030 0.315550 0.471190 -0.593694
O7    O     O_R   0.339170 0.509880 0.378660 -0.593687
O8    O     O_R   0.480330 0.464900 0.339970 -0.567311
O9    O     O_3   0.786805 0.509070 0.165326 -0.731440
H17   H     H_    0.840534 0.508288 0.233116 0.330098
O10   O     O_3   0.189450 0.214654 0.605588 -0.737598
H18   H     H_    0.284121 0.262708 0.647607 0.320383
O11   O     O_3   0.670820 0.878799 0.664519 -0.742800
H19   H     H_    0.678732 0.950140 0.699500 0.329085
O12   O     O_3   0.929771 0.071137 0.779907 -0.734667
H20   H     H_    0.871403 0.022223 0.812755 0.331496
H21   H     H_    0.442540 0.706383 0.680706 0.164924
H22   H     H_    0.174214 0.506439 0.236058 0.170329
O13   O     O_3   0.430221 0.388922 0.143163 -0.706040
H23   H     H_    0.417905 0.333264 0.187580 0.319211
H24   H     H_    0.637448 0.535799 0.019630 0.205971
H25   H     H_    0.821137 0.484648 0.767747 0.204743
O14   O     O_3   0.853074 0.322398 0.768786 -0.719539
H26   H     H_    0.763601 0.290803 0.769063 0.327677

loop_
_geom_bond_atom_site_label_1
_geom_bond_atom_site_label_2
_ccdc_geom_bond_type
O13   H23   S    
C9    H14   S    
C17   C29   A    
C19   C20   A    
C4    C8    A    
O11   H19   S    
C46   H24   S    
O9    H17   S    
C26   C27   A    
C17   C23   S    
C31   C43   A    
C31   H8    S    
C36   C37   A    
C14   O13   S    
C38   C42   A    
C3    C7    A    
Cu2   O6    S    
C5    C6    A    
C37   N2    A    
C18   O11   S    
C18   C19   A    
C28   O10   S    
Cu2   O4    S    
C13   H1    S    
C11   C15   A    
C35   C36   A    
C8    C9    A    
Cu1   O7    S    
C18   C30   A    
C22   C30   A    
C9    C10   A    
C44   C47   A    
C34   O7    A    
C7    O9    S    
C12   O4    A    
Cu1   O1    S    
C21   C22   A    
C23   O5    A    
C20   H5    S    
C19   O12   S    
C25   C26   A    
C14   C45   A    
C43   H21   S    
C24   C25   A    
O14   H26   S    
C8    O14   S    
C27   H6    S    
C33   H12   S    
C2    C48   A    
C16   C29   A    
C1    O1    A    
C2    C4    A    
Cu2   O8    S    
O12   H20   S    
C35   H11   S    
C34   C45   S    
C15   H22   S    
C40   C41   A    
C12   O3    A    
C22   C27   A    
C42   N1    A    
Cu1   O5    S    
C32   H10   S    
C23   O6    A    
C26   H3    S    
C39   C40   A    
C41   H13   S    
C16   C25   A    
C46   C47   A    
C40   H7    S    
Cu1   N1    S    
C17   C28   A    
C24   C28   A    
C4    C5    A    
C10   C13   A    
C42   H9    S    
C5    C11   A    
C6    C7    A    
C3    C46   A    
C1    O2    A    
C32   N2    A    
C32   C33   A    
C36   C38   A    
C2    C3    A    
Cu2   O2    S    
C12   C44   S    
C38   C39   A    
C1    C30   S    
C33   C35   A    
C31   C39   A    
C37   C41   A    
C16   H4    S    
C10   C11   A    
O10   H18   S    
C6    H16   S    
C20   C21   A    
C43   N1    A    
Cu1   Cu2   S    
Cu1   O3    S    
C21   C24   A    
C15   C45   A    
C48   H25   S    
C13   C14   A    
Cu2   N2    S    
C47   H15   S    
C44   C48   A    
C34   O8    A    
C29   H2    S    
