data_mof_unit_1621.cif
_audit_creation_date              2012-12-10T20:26:32-0500
_audit_creation_method            fapswitch 2.2
_symmetry_space_group_name_H-M    P1
_symmetry_Int_Tables_number       1
_space_group_crystal_system       triclinic
_cell_length_a                    10.634883
_cell_length_b                    10.708292
_cell_length_c                    9.894883
_cell_angle_alpha                 89.827067
_cell_angle_beta                  93.247768
_cell_angle_gamma                 90.985838
_cell_volume                      1124.86471703

loop_
_atom_site_label
_atom_site_type_symbol
_atom_type_description
_atom_site_fract_x
_atom_site_fract_y
_atom_site_fract_z
_atom_type_partial_charge
C1    C     C_R   0.502945 0.260155 0.500143 0.886040
C2    C     C_R   0.520125 0.128932 0.500353 -0.105423
C3    C     C_R   0.532217 0.065497 0.378185 -0.198749
C4    C     C_R   0.530440 0.936645 0.378125 -0.158193
C5    C     C_R   0.519133 0.871994 0.500368 -0.106625
C6    C     C_R   0.528615 0.936325 0.622785 0.107530
C7    C     C_3   0.445385 0.928107 0.740141 -0.231348
C8    C     C_3   0.443721 0.069824 0.737883 -0.461830
C9    C     C_R   0.414522 0.429406 0.066020 0.162489
C10   C     C_R   0.591651 0.560849 0.076973 -0.065379
C11   C     C_R   0.591348 0.561461 0.933255 -0.069485
C12   C     C_R   0.262103 0.497759 0.495694 0.938353
C13   C     C_R   0.417723 0.424337 0.924338 0.114339
C14   C     C_3   0.276789 0.421897 0.907760 -0.304883
C15   C     C_3   0.273688 0.434691 0.061542 -0.349028
C16   C     C_R   0.502355 0.740041 0.499923 0.904330
C17   C     C_R   0.737782 0.513647 0.504602 0.931758
C18   C     C_2   0.933647 0.603755 0.422588 -0.037566
C19   C     C_2   0.870126 0.548300 0.521715 -0.274797
C20   C     C_2   0.071305 0.598212 0.428054 -0.185110
C21   C     C_2   0.128854 0.498676 0.482399 -0.303464
C22   C     C_R   0.527777 0.064102 0.622358 0.095495
H1    H     H_    0.491142 0.116093 0.828023 0.223223
H2    H     H_    0.663928 0.612545 0.134557 0.172121
H3    H     H_    0.663552 0.613383 0.883345 0.187791
H4    H     H_    0.239282 0.503328 0.849234 0.191830
H5    H     H_    0.231463 0.353907 0.114727 0.173831
H6    H     H_    0.125423 0.675257 0.387175 0.168917
H7    H     H_    0.077986 0.417097 0.516987 0.183716
H8    H     H_    0.533922 0.114211 0.282161 0.187277
H9    H     H_    0.529727 0.888686 0.282089 0.176313
H10   H     H_    0.352240 0.883206 0.713089 0.152432
H11   H     H_    0.349764 0.106969 0.705882 0.216456
N1    N     N_R   0.499170 0.499140 0.142800 -0.088046
N2    N     N_R   0.499170 0.499180 0.857150 -0.121743
O1    O     O_R   0.500020 0.316790 0.614690 -0.613677
O2    O     O_R   0.500000 0.316760 0.385350 -0.626628
O3    O     O_R   0.319080 0.500020 0.614640 -0.608504
O4    O     O_R   0.319070 0.499980 0.385300 -0.603989
O5    O     O_R   0.500000 0.683240 0.614650 -0.631452
O6    O     O_R   0.499980 0.683210 0.385310 -0.579126
O7    O     O_R   0.680930 0.500020 0.614700 -0.618153
O8    O     O_R   0.680920 0.499980 0.385360 -0.605400
Zn1   Zn    Zn3+2 0.500010 0.500020 0.653130 0.979395
Zn2   Zn    Zn3+2 0.499990 0.499980 0.346870 0.995512
C23   C     C_2   0.870941 0.680638 0.314336 0.930234
O9    O     O_2   0.916861 0.690871 0.204391 -0.567497
O10   O     O_R   0.764049 0.748211 0.340924 -0.819757
H12   H     H_    0.734269 0.801633 0.261072 0.334204
C24   C     C_2   0.224781 0.298122 0.855655 0.970483
O11   O     O_2   0.250173 0.201277 0.916484 -0.633136
O12   O     O_R   0.145896 0.294811 0.738068 -0.822368
H13   H     H_    0.116542 0.206958 0.712757 0.337071
C25   C     C_2   0.218649 0.557786 0.099454 0.993971
O13   O     O_2   0.105068 0.571085 0.082926 -0.563517
O14   O     O_R   0.295086 0.656385 0.150102 -0.762640
H14   H     H_    0.245301 0.733381 0.170147 0.350545
C26   C     C_1   0.927758 0.536233 0.658613 0.253474
N3    N     N_1   0.972703 0.527121 0.767409 -0.117763
C27   C     C_2   0.509281 0.876746 0.867763 0.982320
O15   O     O_2   0.623641 0.864581 0.877896 -0.632335
O16   O     O_R   0.436056 0.844683 0.975720 -0.773580
H15   H     H_    0.488399 0.811333 0.056175 0.339741

loop_
_geom_bond_atom_site_label_1
_geom_bond_atom_site_label_2
_ccdc_geom_bond_type
C2    C22   A    
C3    H8    S    
C8    C22   S    
C17   O8    A    
O3    Zn1   S    
O16   H15   S    
C12   C21   S    
C15   H5    S    
C14   C15   S    
C1    O2    A    
O4    Zn2   S    
C10   H2    S    
C12   O4    A    
C11   N2    A    
C2    C3    A    
C9    C15   S    
C7    C8    S    
C10   N1    A    
N1    Zn2   S    
C13   C14   S    
C14   H4    S    
N2    Zn1   S    
O8    Zn2   S    
C14   C24   S    
O7    Zn1   S    
C16   O5    A    
C18   C23   S    
O10   H12   S    
C17   C19   S    
C9    N1    A    
C18   C19   D    
C6    C7    S    
C23   O10   S    
C8    H11   S    
C19   C26   S    
C12   O3    A    
C5    C6    A    
C25   O14   S    
O1    Zn1   S    
C4    H9    S    
C10   C11   A    
C11   H3    S    
O2    Zn2   S    
C3    C4    A    
C6    C22   A    
C15   C25   S    
C7    C27   S    
O5    Zn1   S    
C8    H1    S    
C20   C21   D    
C18   C20   S    
C27   O16   S    
C1    C2    S    
C23   O9    D    
C24   O12   S    
O14   H14   S    
C9    C13   A    
C25   O13   D    
C4    C5    A    
C5    C16   S    
O6    Zn2   S    
C7    H10   S    
C20   H6    S    
C24   O11   D    
C26   N3    T    
C17   O7    A    
C21   H7    S    
C16   O6    A    
C13   N2    A    
C1    O1    A    
O12   H13   S    
C27   O15   D    
