data_mof_unit_2697.cif
_audit_creation_date              2012-12-10T17:19:52-0500
_audit_creation_method            fapswitch 2.2
_symmetry_space_group_name_H-M    P1
_symmetry_Int_Tables_number       1
_space_group_crystal_system       triclinic
_cell_length_a                    9.643925
_cell_length_b                    10.817995
_cell_length_c                    15.462561
_cell_angle_alpha                 85.455269
_cell_angle_beta                  73.972144
_cell_angle_gamma                 88.93795
_cell_volume                      1545.5844871

loop_
_atom_site_label
_atom_site_type_symbol
_atom_type_description
_atom_site_fract_x
_atom_site_fract_y
_atom_site_fract_z
_atom_type_partial_charge
C1    C     C_R   0.998186 0.262314 0.506854 0.787048
C2    C     C_R   0.669211 0.460849 0.907450 0.039772
C3    C     C_R   0.764843 0.411656 0.956714 0.161507
C4    C     C_R   0.519229 0.470816 0.951212 0.065921
C5    C     C_R   0.469743 0.447543 0.046425 0.035903
C6    C     C_R   0.566668 0.396318 0.093190 -0.272368
C7    C     C_R   0.711313 0.376040 0.049083 0.113147
C8    C     C_R   0.416375 0.499369 0.902625 -0.213202
C9    C     C_R   0.271182 0.512222 0.946651 -0.248636
C10   C     C_R   0.223779 0.501161 0.040448 0.168054
C11   C     C_R   0.323123 0.471913 0.091495 0.103157
C12   C     C_R   0.918029 0.496726 0.672150 0.767743
C13   C     C_R   0.077760 0.519754 0.083894 -0.185220
C14   C     C_R   0.029796 0.513763 0.177642 -0.214280
C15   C     C_R   0.273371 0.472899 0.185932 -0.254172
C16   C     C_R   0.147317 0.112314 0.624195 -0.178015
C17   C     C_R   0.222524 0.040568 0.674915 -0.141937
C18   C     C_R   0.221356 0.912132 0.675522 -0.136378
C19   C     C_R   0.144651 0.854487 0.625599 -0.177251
C20   C     C_R   0.071138 0.925121 0.571062 0.101060
C21   C     C_R   0.072997 0.056584 0.570099 0.105321
C22   C     C_R   0.993943 0.127284 0.518565 -0.108494
C23   C     C_R   0.995807 0.736238 0.507821 0.795331
C24   C     C_R   0.901021 0.068115 0.480056 -0.206461
C25   C     C_R   0.895528 0.941014 0.484021 -0.211117
C26   C     C_R   0.988345 0.868758 0.521682 -0.114406
C27   C     C_R   0.697094 0.636410 0.352142 0.186798
C28   C     C_R   0.649250 0.671750 0.276027 -0.268604
C29   C     C_R   0.504400 0.680661 0.284280 -0.249295
C30   C     C_R   0.408177 0.642152 0.365326 -0.130811
C31   C     C_R   0.452334 0.568840 0.432450 0.171422
C32   C     C_R   0.602943 0.567478 0.429708 0.190802
C33   C     C_R   0.546297 0.435552 0.565163 -0.071233
C34   C     C_R   0.082136 0.498034 0.327954 0.797060
C35   C     C_R   0.399058 0.435013 0.564801 -0.068601
C36   C     C_R   0.871648 0.478909 0.771042 -0.037195
C37   C     C_R   0.128035 0.494332 0.229178 -0.061603
C38   C     C_R   0.912096 0.396911 0.912040 -0.190103
C39   C     C_R   0.964749 0.429456 0.819852 -0.233632
C40   C     C_R   0.726928 0.498649 0.815575 -0.236246
Cu1   Cu    Cu3+1 0.140660 0.499990 0.500010 0.923804
Cu2   Cu    Cu3+1 0.859340 0.500010 0.499990 0.954810
H1    H     H_    0.000753 0.540293 0.045332 0.148620
H2    H     H_    0.833388 0.120450 0.444872 0.166514
H3    H     H_    0.143998 0.210752 0.631298 0.144251
H4    H     H_    0.278895 0.084792 0.715830 0.130915
H5    H     H_    0.276804 0.856657 0.716934 0.136096
H6    H     H_    0.139246 0.754567 0.633874 0.164983
H7    H     H_    0.819948 0.900005 0.455310 0.164568
H8    H     H_    0.578248 0.382289 0.618665 0.137312
H9    H     H_    0.722807 0.715975 0.215867 0.153710
H10   H     H_    0.347208 0.461577 0.227035 0.165391
H11   H     H_    0.466624 0.727105 0.230418 0.166575
H12   H     H_    0.300197 0.671888 0.372123 0.204562
H13   H     H_    0.321970 0.381560 0.618139 0.119456
H14   H     H_    0.916482 0.527428 0.209409 0.151645
H15   H     H_    0.195930 0.533371 0.906883 0.145312
H16   H     H_    0.986800 0.357928 0.947709 0.175028
H17   H     H_    0.077139 0.412595 0.786411 0.146548
H18   H     H_    0.661286 0.544331 0.776615 0.148482
H19   H     H_    0.531630 0.365167 0.163854 0.151038
H20   H     H_    0.443563 0.507695 0.829976 0.138062
N1    N     N_R   0.648320 0.501210 0.499140 -0.186735
N2    N     N_R   0.352470 0.501290 0.499110 -0.192968
O1    O     O_R   0.118810 0.319640 0.500010 -0.578399
O2    O     O_R   0.881240 0.319660 0.500000 -0.577108
O3    O     O_R   0.055570 0.499980 0.629840 -0.600113
O4    O     O_R   0.818000 0.500010 0.629830 -0.586019
O5    O     O_R   0.118760 0.680340 0.500000 -0.611543
O6    O     O_R   0.881190 0.680360 0.499990 -0.538941
O7    O     O_R   0.182000 0.499990 0.370170 -0.595671
O8    O     O_R   0.944430 0.500020 0.370160 -0.558334
N3    N     N_3   0.803185 0.317403 0.098771 -0.609745
H21   H     H_    0.797055 0.367646 0.154676 0.224392
H22   H     H_    0.761813 0.228808 0.123045 0.224655
N4    N     N_3   0.820386 0.703663 0.355818 -0.507260
H23   H     H_    0.792968 0.797233 0.351811 0.182240
H24   H     H_    0.903071 0.694922 0.296606 0.193082

loop_
_geom_bond_atom_site_label_1
_geom_bond_atom_site_label_2
_ccdc_geom_bond_type
C14   H14   S    
C16   C21   A    
C40   H18   S    
C34   C37   S    
N3    H21   S    
C23   O5    A    
C19   C20   A    
C4    C8    A    
C18   H5    S    
C7    N3    S    
C30   H12   S    
C29   H11   S    
C6    H19   S    
C28   C29   A    
N4    H24   S    
C5    C11   A    
C3    C7    A    
C5    C6    A    
C28   H9    S    
Cu2   O6    S    
C18   C19   A    
Cu1   Cu2   S    
C23   C26   S    
C15   C37   A    
C38   H16   S    
C11   C15   A    
C3    C38   A    
C8    C9    A    
C1    O1    A    
C35   N2    A    
C12   C36   S    
C9    C10   A    
Cu1   O7    S    
C1    C22   S    
C21   C22   A    
Cu2   O4    S    
N3    H22   S    
C23   O6    A    
C1    O2    A    
N4    H23   S    
C38   C39   A    
C12   O3    A    
C35   H13   S    
C36   C40   A    
C17   H4    S    
Cu1   O3    S    
C19   H6    S    
C16   C17   A    
Cu1   O1    S    
C25   C26   A    
C2    C4    A    
C29   C30   A    
C12   O4    A    
C31   C32   A    
C33   N1    A    
C39   H17   S    
Cu2   O8    S    
C17   C18   A    
C15   H10   S    
C24   C25   A    
C24   H2    S    
C22   C24   A    
C27   N4    S    
C34   O8    A    
C13   H1    S    
Cu1   O5    S    
C27   C32   A    
C31   N2    A    
C36   C39   A    
C32   N1    A    
C4    C5    A    
C10   C13   A    
C16   H3    S    
C6    C7    A    
C2    C3    A    
C33   H8    S    
C14   C37   A    
C30   C31   A    
C20   C26   A    
C34   O7    A    
C33   C35   A    
C9    H15   S    
C25   H7    S    
C10   C11   A    
C2    C40   A    
C20   C21   A    
C27   C28   A    
Cu2   O2    S    
Cu1   N2    S    
C13   C14   A    
Cu2   N1    S    
C8    H20   S    
