data_mof_unit_3118.cif
_audit_creation_date              2012-12-11T17:39:28-0500
_audit_creation_method            fapswitch 2.2
_symmetry_space_group_name_H-M    P1
_symmetry_Int_Tables_number       1
_space_group_crystal_system       triclinic
_cell_length_a                    15.012808
_cell_length_b                    15.160426
_cell_length_c                    15.080051
_cell_angle_alpha                 108.93917
_cell_angle_beta                  109.838111
_cell_angle_gamma                 109.488666
_cell_volume                      2646.81192756

loop_
_atom_site_label
_atom_site_type_symbol
_atom_type_description
_atom_site_fract_x
_atom_site_fract_y
_atom_site_fract_z
_atom_type_partial_charge
C1    C     C_R   0.910300 0.913793 0.713552 -0.086565
C2    C     C_R   0.994743 0.312251 0.466926 0.092865
C3    C     C_R   0.301305 0.321924 0.823788 0.172726
C4    C     C_R   0.714833 0.038555 0.544181 0.048339
C5    C     C_R   0.697091 0.703175 0.291148 -0.169595
C6    C     C_R   0.303531 0.096308 0.505258 -0.118186
C7    C     C_R   0.092853 0.783673 0.517966 -0.132560
C8    C     C_R   0.909087 0.939456 0.188716 -0.107745
C9    C     C_R   0.092194 0.028024 0.279614 -0.124305
C10   C     C_R   0.911274 0.687515 0.439215 -0.069442
C11   C     C_R   0.698793 0.797232 0.204098 0.275929
C12   C     C_R   0.088241 0.305349 0.510543 -0.109599
C13   C     C_R   0.305792 0.009842 0.599129 -0.144844
C14   C     C_R   0.635386 0.704135 0.199823 0.051297
C15   C     C_R   0.370287 0.073507 0.572063 0.076585
C16   C     C_R   0.005881 0.681468 0.455109 0.050404
C17   C     C_R   0.999403 0.956189 0.178215 0.068029
C18   C     C_R   0.618149 0.830015 0.723833 -0.051400
C19   C     C_R   0.584036 0.881895 0.669664 -0.225916
C20   C     C_R   0.653813 0.990710 0.707302 0.094276
C21   C     C_R   0.757149 0.047204 0.800277 -0.088516
C22   C     C_R   0.790543 0.995131 0.854674 -0.077526
C23   C     C_R   0.265964 0.220354 0.812993 -0.114875
C24   C     C_R   0.721190 0.886663 0.816416 -0.019746
C25   C     C_R   0.532022 0.060446 0.660484 -0.207904
C26   C     C_R   0.486547 0.108012 0.608020 0.038707
C27   C     C_R   0.546215 0.169148 0.573831 0.048446
C28   C     C_R   0.629086 0.153088 0.562797 -0.186159
C29   C     C_R   0.656151 0.081791 0.590492 0.053289
C30   C     C_R   0.616145 0.046454 0.652613 0.039047
C31   C     C_R   0.493894 0.236837 0.444926 -0.139389
C32   C     C_R   0.468065 0.309126 0.419564 -0.090402
C33   C     C_R   0.471480 0.393312 0.497242 -0.115243
C34   C     C_R   0.744120 0.058346 0.470516 -0.046201
C35   C     C_R   0.500549 0.405410 0.600630 0.260174
C36   C     C_R   0.527556 0.333800 0.626806 -0.170931
C37   C     C_R   0.524232 0.248831 0.548802 0.075433
C38   C     C_R   0.686403 0.131109 0.128141 0.366678
C39   C     C_R   0.787038 0.226918 0.194214 -0.305877
C40   C     C_R   0.809733 0.303550 0.293309 -0.007296
C41   C     C_R   0.728836 0.286955 0.323368 0.246203
C42   C     C_R   0.631211 0.189275 0.259667 -0.368107
C43   C     C_R   0.609679 0.110927 0.162895 0.261296
C44   C     C_R   0.934374 0.490726 0.364122 -0.196032
C45   C     C_R   0.264241 0.312138 0.721554 -0.093833
C46   C     C_R   0.016707 0.590129 0.453329 0.034856
C47   C     C_R   0.089138 0.598463 0.549642 -0.051384
C48   C     C_R   0.073371 0.505904 0.555708 0.176025
C49   C     C_R   0.994030 0.405843 0.463224 -0.019101
C50   C     C_R   0.919102 0.398327 0.369639 0.070057
C51   C     C_R   0.283752 0.745024 0.661452 -0.160891
C52   C     C_R   0.364709 0.849023 0.745559 -0.082695
C53   C     C_R   0.341110 0.909706 0.816340 -0.054662
C54   C     C_R   0.238584 0.864234 0.807422 -0.086431
C55   C     C_R   0.156632 0.761027 0.722472 -0.057482
C56   C     C_R   0.744077 0.964311 0.558298 -0.121428
C57   C     C_R   0.178061 0.702354 0.647030 0.131069
C58   C     C_2   0.382956 0.513935 0.931271 -0.069881
C59   C     C_2   0.373105 0.421155 0.925130 -0.228641
C60   C     C_2   0.477383 0.614096 0.022133 -0.048889
C61   C     C_2   0.520564 0.627388 0.122067 -0.129699
C62   C     C_R   0.375508 0.192380 0.121325 -0.264059
C63   C     C_R   0.270621 0.114005 0.084696 0.288216
C64   C     C_R   0.180677 0.127200 0.037816 -0.065546
C65   C     C_R   0.198921 0.223790 0.035810 0.187980
C66   C     C_R   0.305973 0.304440 0.078577 -0.254185
C67   C     C_R   0.905837 0.214278 0.424613 -0.084461
C68   C     C_R   0.393900 0.287701 0.119400 0.201482
C69   C     C_R   0.053313 0.043277 0.085483 -0.189250
C70   C     C_R   0.996517 0.946797 0.080305 0.049867
C71   C     C_R   0.942343 0.847222 0.985711 -0.090992
C72   C     C_R   0.945373 0.846969 0.893947 0.272843
C73   C     C_R   0.009269 0.945577 0.903039 -0.049546
C74   C     C_R   0.071618 0.042277 0.002738 0.087084
C75   C     C_R   0.949563 0.693930 0.009305 -0.050383
C76   C     C_R   0.902287 0.600087 0.013894 -0.108464
C77   C     C_R   0.795610 0.557641 0.995738 -0.093048
C78   C     C_R   0.092480 0.005547 0.802073 -0.105469
C79   C     C_R   0.735836 0.608610 0.972313 -0.072057
C80   C     C_R   0.782328 0.701687 0.966254 -0.122645
C81   C     C_R   0.889863 0.745363 0.985622 0.159509
C82   C     C_R   0.003804 0.952616 0.808969 0.113975
H1    H     H_    0.827403 0.859160 0.688392 0.133869
H2    H     H_    0.325505 0.151265 0.476080 0.112358
H3    H     H_    0.177244 0.808278 0.542545 0.120306
H4    H     H_    0.825556 0.894861 0.124328 0.154503
H5    H     H_    0.176253 0.063553 0.298322 0.139298
H6    H     H_    0.828189 0.621804 0.395687 0.148896
H7    H     H_    0.333094 0.988389 0.660648 0.096044
H8    H     H_    0.746595 0.846903 0.859238 0.125195
H9    H     H_    0.564270 0.746297 0.694642 0.157793
H10   H     H_    0.503524 0.837584 0.598521 0.129553
H11   H     H_    0.170920 0.362964 0.537747 0.124693
H12   H     H_    0.810641 0.131526 0.831115 0.155992
H13   H     H_    0.869217 0.039385 0.927634 0.150543
H14   H     H_    0.497222 0.025884 0.701116 0.129070
H15   H     H_    0.669013 0.193625 0.528728 0.147196
H16   H     H_    0.486570 0.169329 0.382957 0.147689
H17   H     H_    0.444291 0.299382 0.339425 0.158619
H18   H     H_    0.450358 0.448376 0.476681 0.141899
H19   H     H_    0.549104 0.343082 0.706773 0.142489
H20   H     H_    0.285257 0.199967 0.876595 0.118019
H21   H     H_    0.848254 0.240446 0.169874 0.184611
H22   H     H_    0.572627 0.173270 0.286545 0.180022
H23   H     H_    0.874428 0.485921 0.294614 0.154115
H24   H     H_    0.301733 0.699779 0.604786 0.126527
H25   H     H_    0.445093 0.883407 0.754841 0.158465
H26   H     H_    0.403078 0.991433 0.879378 0.149687
H27   H     H_    0.222555 0.908994 0.866098 0.156059
H28   H     H_    0.728417 0.107721 0.436950 0.101990
H29   H     H_    0.076064 0.727995 0.713507 0.173176
H30   H     H_    0.334991 0.516585 0.861204 0.183295
H31   H     H_    0.425651 0.418452 0.992870 0.167589
H32   H     H_    0.520951 0.667500 0.999953 0.186851
H33   H     H_    0.476151 0.570541 0.141236 0.153679
H34   H     H_    0.443457 0.180907 0.155137 0.194852
H35   H     H_    0.320515 0.379687 0.079695 0.176584
H36   H     H_    0.281733 0.375176 0.700765 0.135907
H37   H     H_    0.097456 0.119072 0.160644 0.146429
H38   H     H_    0.032754 0.726951 0.024841 0.160367
H39   H     H_    0.948598 0.560669 0.032235 0.139590
H40   H     H_    0.759357 0.485421 0.000032 0.129386
H41   H     H_    0.653493 0.576006 0.958954 0.141846
H42   H     H_    0.735029 0.740206 0.947886 0.141039
H43   H     H_    0.731519 0.924874 0.603618 0.119881
H44   H     H_    0.821145 0.184893 0.374317 0.116695
H45   H     H_    0.177147 0.035004 0.856069 0.091028
H46   H     H_    0.666645 0.651555 0.321544 0.160667
N1    N     N_R   0.941940 0.944580 0.650780 -0.046341
N2    N     N_R   0.206190 0.054080 0.497260 -0.044943
N3    N     N_R   0.056380 0.847410 0.553580 -0.047792
N4    N     N_R   0.944890 0.999100 0.292900 -0.036224
N5    N     N_R   0.058060 0.055420 0.349220 -0.055161
N6    N     N_R   0.943200 0.791100 0.497260 -0.044713
N7    N     N_R   0.795540 0.849750 0.292910 -0.072905
N8    N     N_R   0.205730 0.996760 0.553580 -0.043236
N9    N     N_R   0.056800 0.208900 0.502740 -0.045714
N10   N     N_R   0.204460 0.150250 0.707090 -0.049175
N11   N     N_R   0.794270 0.003240 0.446420 -0.037831
N12   N     N_R   0.204920 0.207570 0.650770 -0.050423
N13   N     N_R   0.793810 0.945920 0.502740 -0.048713
N14   N     N_R   0.943620 0.152590 0.446420 -0.044484
N15   N     N_R   0.055110 0.000900 0.707100 -0.042625
N16   N     N_R   0.795080 0.792430 0.349230 -0.065648
Ni1   Ni    Ni4+2 0.869690 0.869690 0.500000 0.240056
Ni2   Ni    Ni4+2 0.130310 0.130310 0.500000 0.219536
Ni3   Ni    Ni4+2 0.129250 0.998840 0.629170 0.214754
Ni4   Ni    Ni4+2 0.870750 0.001160 0.370830 0.277505
Br1   Br    Br    0.647699 0.874522 0.143554 -0.552281
I1    I     I_    0.499314 0.529398 0.714863 -0.520863
I2    I     I_    0.462971 0.962778 0.077511 -0.244344
Br2   Br    Br    0.657693 0.029178 0.993067 -0.558013
I3    I     I_    0.754952 0.400786 0.470357 -0.355303
I4    I     I_    0.149886 0.520213 0.713086 -0.369575
I5    I     I_    0.556303 0.405231 0.183318 -0.531073
Br3   Br    Br    0.253836 0.993928 0.108913 -0.582220
I6    I     I_    0.069795 0.253011 0.971655 -0.455733
Br4   Br    Br    0.872286 0.712124 0.761731 -0.534089

loop_
_geom_bond_atom_site_label_1
_geom_bond_atom_site_label_2
_ccdc_geom_bond_type
C28   H15   S    
C45   H36   S    
C66   C68   A    
N9    N14   A    
C40   C41   A    
N2    Ni2   S    
C73   C74   A    
C23   N10   A    
C60   H32   S    
C35   C36   A    
C6    N2    A    
N3    N6    A    
C2    C12   A    
C20   C30   S    
C44   H23   S    
N15   Ni3   S    
C10   H6    S    
C26   C27   A    
C29   C30   A    
C58   H30   S    
C18   H9    S    
C36   C37   A    
C63   Br3   S    
C1    N1    A    
C38   C39   A    
C80   C81   A    
C11   C14   A    
C23   H20   S    
C21   H12   S    
C58   C60   S    
C34   N11   A    
C72   Br4   S    
C18   C19   A    
C41   C42   A    
C31   H16   S    
C49   C50   A    
C19   H10   S    
C6    C15   A    
C54   C55   A    
C3    C23   A    
C11   Br1   S    
C47   C48   A    
C52   H25   S    
N4    N5    A    
C66   H35   S    
C61   H33   S    
N3    Ni3   S    
C70   C71   A    
C51   C57   A    
C35   I1    S    
N1    Ni1   S    
C4    C29   S    
N13   Ni1   S    
C13   H7    S    
C68   I5    S    
C17   C70   S    
C21   C22   A    
C4    C56   A    
N2    N8    A    
C78   H45   S    
C38   Br2   S    
C44   C46   A    
C41   I3    S    
C77   C79   A    
C4    C34   A    
N11   Ni4   S    
C6    H2    S    
C63   C64   A    
C51   C52   A    
N4    Ni4   S    
N14   Ni4   S    
N9    Ni2   S    
C76   C77   A    
C18   C24   A    
C65   I6    S    
C2    C67   A    
C67   H44   S    
C16   C46   S    
C39   C40   A    
C75   C81   A    
C15   C26   S    
C25   C26   A    
C53   C54   A    
C14   C61   S    
C79   H41   S    
C3    C45   A    
C45   N12   A    
C31   C37   A    
C54   H27   S    
C24   H8    S    
C36   H19   S    
C75   C76   A    
C8    N4    A    
C62   C63   A    
C2    C49   S    
C11   N7    A    
C47   C57   S    
C78   C82   A    
C31   C32   A    
N10   Ni3   S    
C59   H31   S    
C69   C74   A    
C56   H43   S    
C5    C14   A    
N10   N12   A    
C56   N13   A    
C9    C17   A    
N7    N16   A    
N7    Ni4   S    
C13   C15   A    
C34   H28   S    
C13   N8    A    
C22   C24   A    
C12   H11   S    
C58   C59   D    
C42   C43   A    
C76   H39   S    
N12   Ni2   S    
C28   C29   A    
C73   C82   S    
C43   I2    S    
C52   C53   A    
C80   H42   S    
C44   C50   A    
C25   C30   A    
N6    Ni1   S    
C48   I4    S    
C46   C47   A    
C48   C49   A    
C55   H29   S    
C77   H40   S    
C7    N3    A    
C7    C16   A    
C75   H38   S    
C10   N6    A    
C72   C73   A    
C5    N16   A    
C42   H22   S    
C39   H21   S    
N1    N15   A    
C1    H1    S    
C8    C17   A    
C32   H17   S    
C62   C68   A    
N16   Ni1   S    
C33   H18   S    
C32   C33   A    
C19   C20   A    
C55   C57   A    
C1    C82   A    
C38   C43   A    
C10   C16   A    
C78   N15   A    
C64   C65   A    
N11   N13   A    
C53   H26   S    
C7    H3    S    
C27   C37   S    
C51   H24   S    
C40   C50   S    
C5    H46   S    
C33   C35   A    
C69   H37   S    
C8    H4    S    
C69   C70   A    
N8    Ni3   S    
C62   H34   S    
C79   C80   A    
C22   H13   S    
C71   C72   A    
C20   C21   A    
C25   H14   S    
C65   C66   A    
C27   C28   A    
C64   C74   S    
C12   N9    A    
C60   C61   D    
N5    Ni2   S    
C67   N14   A    
C9    H5    S    
C3    C59   S    
C71   C81   S    
C9    N5    A    
