data_mof_unit_723.cif
_audit_creation_date              2012-12-11T14:21:06-0500
_audit_creation_method            fapswitch 2.2
_symmetry_space_group_name_H-M    P1
_symmetry_Int_Tables_number       1
_space_group_crystal_system       triclinic
_cell_length_a                    22.031416
_cell_length_b                    7.189631
_cell_length_c                    14.922472
_cell_angle_alpha                 90.357432
_cell_angle_beta                  107.750089
_cell_angle_gamma                 89.744392
_cell_volume                      2251.11157629

loop_
_atom_site_label
_atom_site_type_symbol
_atom_type_description
_atom_site_fract_x
_atom_site_fract_y
_atom_site_fract_z
_atom_type_partial_charge
O1    O     O_R   0.584770 0.505770 0.002090 -0.544445
O2    O     O_R   0.415230 0.005770 0.997910 -0.547131
O3    O     O_R   0.467060 0.173340 0.861950 -0.524094
O4    O     O_R   0.532940 0.673340 0.138050 -0.527856
C1    C     C_R   0.453931 0.343607 0.825660 0.751250
C2    C     C_R   0.545496 0.844529 0.174033 0.754390
O5    O     O_R   0.587510 0.175890 0.993210 -0.515642
O6    O     O_R   0.412490 0.675890 0.006790 -0.515337
O7    O     O_R   0.536540 0.008150 0.130100 -0.540635
O8    O     O_R   0.463460 0.508150 0.869900 -0.540033
C3    C     C_R   0.613409 0.344224 0.000142 0.777277
C4    C     C_R   0.386518 0.844829 0.999036 0.798313
O9    O     O_3   0.483140 0.340040 0.044760 -0.377790
O10   O     O_3   0.516860 0.840040 0.955240 -0.375408
V1    V     V_3+5 0.503130 0.064190 0.991700 1.552974
V2    V     V_3+5 0.496870 0.564190 0.008300 1.549451
C5    C     C_2   0.207702 0.751696 0.965762 0.097914
C6    C     C_2   0.791017 0.241338 0.026572 0.119022
C7    C     C_2   0.182008 0.881905 0.010893 0.018641
C8    C     C_2   0.817777 0.384340 0.992458 0.014466
C9    C     C_2   0.277850 0.719410 0.987775 0.207614
C10   C     C_2   0.720432 0.216541 0.002289 0.221445
C11   C     C_2   0.317309 0.861291 0.985830 -0.252897
C12   C     C_2   0.682659 0.358018 0.013029 -0.196437
H1    H     H_    0.296978 0.998328 0.966437 0.113301
H2    H     H_    0.704410 0.491384 0.038318 0.139708
C13   C     C_R   0.932323 0.888996 0.721977 -0.077794
C14   C     C_R   0.072046 0.397153 0.278405 -0.092346
C15   C     C_R   0.577783 0.850972 0.275218 -0.072524
C16   C     C_R   0.425779 0.351166 0.722965 -0.070322
C17   C     C_R   0.938329 0.996358 0.571531 -0.146219
C18   C     C_R   0.069958 0.532539 0.426648 -0.148017
C19   C     C_R   0.967789 0.964288 0.666985 0.151919
C20   C     C_R   0.038023 0.479365 0.334278 0.146227
C21   C     C_R   0.869235 0.834216 0.679164 -0.175409
C22   C     C_R   0.137424 0.361973 0.317861 -0.194525
C23   C     C_R   0.839777 0.855917 0.581593 0.120398
C24   C     C_R   0.171726 0.435619 0.406937 0.111585
C25   C     C_R   0.873824 0.953114 0.530075 0.058790
C26   C     C_R   0.136394 0.515004 0.462666 0.054119
C27   C     C_R   0.774822 0.807839 0.537012 -0.003735
C28   C     C_R   0.239760 0.430277 0.443413 -0.018564
C29   C     C_R   0.742246 0.886834 0.447615 -0.013832
C30   C     C_R   0.268699 0.462023 0.541546 -0.018807
C31   C     C_R   0.775486 0.013024 0.406704 0.165244
C32   C     C_R   0.233798 0.567738 0.589809 0.160691
C33   C     C_R   0.841392 0.028314 0.442650 -0.137293
C34   C     C_R   0.168077 0.587391 0.551513 -0.156638
C35   C     C_R   0.740178 0.690105 0.579779 0.097583
C36   C     C_R   0.280498 0.412975 0.385899 0.110277
C37   C     C_R   0.673251 0.702081 0.551460 0.175150
C38   C     C_R   0.346243 0.380226 0.427648 0.186014
C39   C     C_R   0.641068 0.786590 0.465354 0.049925
C40   C     C_R   0.372387 0.373651 0.526274 0.045463
C41   C     C_R   0.676401 0.847248 0.406220 0.025105
C42   C     C_R   0.333110 0.405774 0.584576 0.016140
C43   C     C_R   0.574116 0.792976 0.432559 -0.106022
C44   C     C_R   0.437992 0.339549 0.567632 -0.106263
C45   C     C_R   0.542583 0.834820 0.338799 0.076408
C46   C     C_R   0.464865 0.334620 0.664933 0.077813
C47   C     C_R   0.644919 0.848862 0.307689 0.173038
C48   C     C_R   0.359272 0.369149 0.683011 0.173534
H3    H     H_    0.866172 0.119903 0.408132 0.176527
H4    H     H_    0.141945 0.665920 0.590035 0.178515
H5    H     H_    0.964792 0.066458 0.531258 0.152396
H6    H     H_    0.043091 0.595578 0.468906 0.153537
H7    H     H_    0.841702 0.793571 0.724539 0.140317
H8    H     H_    0.161223 0.282767 0.276775 0.165140
H9    H     H_    0.546022 0.760170 0.478583 0.192634
H10   H     H_    0.469255 0.319003 0.524759 0.196081
O11   O     O_R   0.036450 0.233070 0.130130 -0.536066
O12   O     O_R   0.963550 0.733070 0.869870 -0.535358
O13   O     O_R   0.912470 0.560570 0.006790 -0.536749
O14   O     O_R   0.087530 0.060570 0.993210 -0.524699
C49   C     C_R   0.887113 0.391787 0.003090 0.739478
C50   C     C_R   0.112858 0.891142 0.997802 0.808861
O15   O     O_R   0.032920 0.562940 0.138050 -0.529149
O16   O     O_R   0.967080 0.062940 0.861950 -0.531188
O17   O     O_R   0.084790 0.730500 0.002090 -0.537062
O18   O     O_R   0.915210 0.230500 0.997910 -0.534712
C51   C     C_R   0.044568 0.395250 0.175271 0.747271
C52   C     C_R   0.956746 0.894108 0.824972 0.717426
O19   O     O_3   0.016820 0.396170 0.955260 -0.363610
O20   O     O_3   0.983180 0.896170 0.044740 -0.370894
V3    V     V_3+5 0.996880 0.672090 0.008300 1.559179
V4    V     V_3+5 0.003120 0.172090 0.991700 1.573654
I1    I     I_    0.149238 0.573934 0.858795 -0.326651
I2    I     I_    0.846562 0.038478 0.121221 -0.355550
I3    I     I_    0.064064 0.049096 0.725099 -0.335200
I4    I     I_    0.938416 0.530340 0.282230 -0.345319
I5    I     I_    0.730971 0.231784 0.313192 -0.393507
I6    I     I_    0.277305 0.757741 0.701061 -0.398682
I7    I     I_    0.783745 0.455081 0.663659 -0.449458
I8    I     I_    0.252031 0.504575 0.241882 -0.462430
N1    N     N_3   0.221077 0.002722 0.082437 -0.655536
H11   H     H_    0.239809 0.108207 0.051143 0.246753
H12   H     H_    0.257838 0.926747 0.128886 0.274654
N2    N     N_3   0.777652 0.525940 0.936695 -0.670952
H13   H     H_    0.791553 0.654303 0.969682 0.251474
H14   H     H_    0.785660 0.529263 0.871258 0.255657
N3    N     N_3   0.302169 0.533052 0.005109 -0.612894
H15   H     H_    0.285574 0.475492 0.057254 0.261702
H16   H     H_    0.283842 0.454311 0.943810 0.246510
N4    N     N_3   0.693482 0.037947 0.969497 -0.616255
H17   H     H_    0.708715 0.999054 0.912203 0.247693
H18   H     H_    0.711173 0.940668 0.022886 0.243542
N5    N     N_3   0.678543 0.808676 0.240497 -0.652040
H19   H     H_    0.674954 0.921826 0.195653 0.247694
H20   H     H_    0.726460 0.776459 0.272703 0.273650
N6    N     N_3   0.320004 0.314097 0.739900 -0.643563
H21   H     H_    0.322535 0.413738 0.792055 0.245983
H22   H     H_    0.272648 0.291600 0.700297 0.274398
I9    I     I_    0.441546 0.848782 0.294216 -0.415361
I10   I     I_    0.564423 0.285788 0.720814 -0.382995
N7    N     N_3   0.637493 0.611602 0.604291 -0.639001
H23   H     H_    0.644081 0.468088 0.600866 0.287729
H24   H     H_    0.655114 0.654964 0.674460 0.272174
N8    N     N_3   0.387060 0.350338 0.369999 -0.640504
H25   H     H_    0.368047 0.243106 0.322170 0.280477
H26   H     H_    0.388642 0.471668 0.332816 0.289101

loop_
_geom_bond_atom_site_label_1
_geom_bond_atom_site_label_2
_ccdc_geom_bond_type
N3    H15   S    
C27   C29   A    
C46   I10   S    
N1    H11   S    
O1    C3    A    
C50   O17   A    
O2    C4    A    
C2    O7    A    
N4    H18   S    
O12   V3    S    
O3    V1    S    
C11   H1    S    
C13   C19   A    
O5    C3    A    
C4    C11   S    
O14   C50   A    
C25   C33   A    
C7    C50   S    
C21   C23   A    
C12   H2    S    
C24   C28   A    
C33   H3    S    
C34   H4    S    
C32   I6    S    
C44   C46   A    
N7    H23   S    
C3    C12   S    
C10   N4    S    
C17   H5    S    
C35   C37   A    
C30   C42   A    
N6    H21   S    
O18   V4    S    
N6    H22   S    
N8    H25   S    
C15   C45   A    
C30   C32   A    
N7    H24   S    
C16   C46   A    
C36   C38   A    
N5    H19   S    
C17   C19   A    
O15   C51   A    
C49   O18   A    
C45   I9    S    
C42   C48   A    
C9    N3    S    
O16   V4    S    
C31   C33   A    
O15   V3    S    
O6    V2    S    
C5    I1    S    
O13   C49   A    
C28   C30   A    
C31   I5    S    
C27   C35   A    
N4    H17   S    
C38   C40   A    
C15   C47   A    
C39   C41   A    
C40   C42   A    
O20   V3    S    
O4    C2    A    
C39   C43   A    
C36   I8    S    
C13   C21   A    
C5    C9    S    
C8    C49   S    
C37   C39   A    
C18   C20   A    
O4    V2    S    
C20   I4    S    
C19   I3    S    
O11   V4    S    
O16   C52   A    
C48   N6    S    
C21   H7    S    
O6    C4    A    
O19   V4    S    
C22   H8    S    
O1    V2    S    
O14   V4    S    
O2    V1    S    
C29   C31   A    
O13   V3    S    
C28   C36   A    
N8    H26   S    
C29   C41   A    
N2    H14   S    
C16   C48   A    
C10   C12   D    
C22   C24   A    
O17   V3    S    
C7    N1    S    
C18   H6    S    
C1    C16   S    
C40   C44   A    
C26   C34   A    
C14   C51   S    
C6    C10   S    
C13   C52   S    
C44   H10   S    
O3    C1    A    
N1    H12   S    
C37   N7    S    
C43   H9    S    
C9    C11   D    
O7    V1    S    
C1    O8    A    
C23   C25   A    
O8    V2    S    
C24   C26   A    
N5    H20   S    
C41   C47   A    
O5    V1    S    
C5    C7    D    
C17   C25   A    
C6    C8    D    
C18   C26   A    
C23   C27   A    
C47   N5    S    
C6    I2    S    
C43   C45   A    
C14   C20   A    
C32   C34   A    
C2    C15   S    
C8    N2    S    
C14   C22   A    
N3    H16   S    
N2    H13   S    
O9    V2    S    
O10   V1    S    
C35   I7    S    
O12   C52   A    
O11   C51   A    
C38   N8    S    
