data_mof_unit_4879.cif
_audit_creation_date              2012-10-26T20:44:09-0400
_audit_creation_method            fapswitch 2.2
_symmetry_space_group_name_H-M    P1
_symmetry_Int_Tables_number       1
_space_group_crystal_system       triclinic
_cell_length_a                    10.854599
_cell_length_b                    9.514753
_cell_length_c                    19.36428
_cell_angle_alpha                 90.151742
_cell_angle_beta                  90.516
_cell_angle_gamma                 91.212881
_cell_volume                      1999.382923

loop_
_atom_site_label
_atom_site_type_symbol
_atom_type_description
_atom_site_fract_x
_atom_site_fract_y
_atom_site_fract_z
_atom_type_partial_charge
C1    C     C_R   0.870377 0.504966 0.479940 0.000905
C2    C     C_R   0.737027 0.501518 0.492665 0.542198
C3    C     C_R   0.501664 0.500028 0.367922 0.521944
C4    C     C_R   0.500920 0.500159 0.632066 0.541296
C5    C     C_R   0.061601 0.385328 0.454801 0.005025
C6    C     C_R   0.939625 0.626643 0.496910 -0.000708
C7    C     C_R   0.930879 0.387888 0.451591 -0.004001
C8    C     C_R   0.060760 0.610497 0.518856 -0.005010
C9    C     C_R   0.400900 0.455975 0.743842 -0.114883
C10   C     C_R   0.405389 0.551664 0.255298 -0.118418
C11   C     C_R   0.608865 0.452764 0.259171 -0.122411
C12   C     C_R   0.126186 0.494672 0.492677 0.009304
C13   C     C_R   0.611448 0.544599 0.741612 -0.124360
C14   C     C_R   0.401264 0.458881 0.816394 0.054775
C15   C     C_R   0.405600 0.550215 0.182746 0.054021
C16   C     C_R   0.615862 0.456984 0.187176 0.059425
C17   C     C_R   0.617957 0.542218 0.813743 0.056866
C18   C     C_R   0.511929 0.500051 0.851528 0.151464
C19   C     C_R   0.513108 0.504576 0.148531 0.150462
C20   C     C_R   0.437800 0.072539 0.450108 0.000603
C21   C     C_R   0.563392 0.927350 0.549470 0.003230
C22   C     C_R   0.562841 0.076136 0.549684 0.005666
C23   C     C_R   0.514786 0.630285 0.963356 0.164782
C24   C     C_R   0.437061 0.923780 0.450367 0.007415
C25   C     C_R   0.504302 0.500548 0.707112 -0.013719
C26   C     C_R   0.504932 0.500496 0.292861 -0.015169
C27   C     C_3   0.130303 0.270511 0.416119 -0.260739
C28   C     C_3   0.191204 0.328997 0.351283 -0.421594
C29   C     C_3   0.898059 0.772299 0.475423 -0.261819
C30   C     C_3   0.863780 0.774712 0.398397 -0.421457
C31   C     C_3   0.856310 0.276010 0.411660 -0.248965
C32   C     C_3   0.835042 0.143977 0.455229 -0.406678
C33   C     C_3   0.113141 0.714592 0.572432 -0.261107
C34   C     C_R   0.506097 0.374682 0.036709 0.164384
C35   C     C_3   0.153622 0.641009 0.638664 -0.423256
C36   C     C_3   0.285770 0.420875 0.857438 -0.262645
C37   C     C_3   0.167137 0.397868 0.815263 -0.462297
C38   C     C_3   0.293082 0.594359 0.140744 -0.261991
C39   C     C_3   0.176292 0.622370 0.181825 -0.463285
C40   C     C_3   0.734782 0.412661 0.153649 -0.267294
C41   C     C_3   0.813621 0.539936 0.132706 -0.447043
C42   C     C_3   0.739381 0.583547 0.848405 -0.268332
C43   C     C_3   0.808950 0.454832 0.872749 -0.444275
C44   C     C_R   0.525356 0.631142 0.036210 0.158945
C45   C     C_R   0.515718 0.373371 0.963933 0.158474
C46   C     C_R   0.516287 0.503390 0.072262 0.031056
C47   C     C_R   0.515442 0.501333 0.927838 0.031340
C48   C     C_R   0.261470 0.498155 0.498430 0.543606
Cu1   Cu    Cu3+1 0.500000 0.640660 0.500000 0.911936
Cu2   Cu    Cu3+1 0.500000 0.359340 0.500000 0.912254
H1    H     H_    0.388798 0.126883 0.409795 0.108623
H2    H     H_    0.253746 0.418515 0.364171 0.164123
H3    H     H_    0.245000 0.245976 0.325737 0.137893
H4    H     H_    0.196141 0.216435 0.450013 0.166353
H5    H     H_    0.071624 0.181048 0.399193 0.126983
H6    H     H_    0.940465 0.733180 0.367224 0.140554
H7    H     H_    0.779215 0.710631 0.387596 0.176732
H8    H     H_    0.846932 0.883562 0.381278 0.129303
H9    H     H_    0.821634 0.809875 0.507719 0.165754
H10   H     H_    0.974516 0.850542 0.482160 0.118825
H11   H     H_    0.919368 0.081135 0.457917 0.116979
H12   H     H_    0.614669 0.872777 0.588923 0.110211
H13   H     H_    0.809779 0.170853 0.508944 0.172451
H14   H     H_    0.759077 0.079140 0.432117 0.146488
H15   H     H_    0.766249 0.316190 0.394251 0.161608
H16   H     H_    0.899415 0.250066 0.361659 0.118313
H17   H     H_    0.232686 0.572317 0.629228 0.163390
H18   H     H_    0.182446 0.720753 0.677891 0.142325
H19   H     H_    0.076074 0.576783 0.659745 0.136092
H20   H     H_    0.188984 0.780693 0.551235 0.176663
H21   H     H_    0.041561 0.789495 0.588532 0.124525
H22   H     H_    0.146271 0.493034 0.784576 0.149061
H23   H     H_    0.613641 0.133517 0.589350 0.115016
H24   H     H_    0.174750 0.305078 0.780775 0.154338
H25   H     H_    0.089354 0.377119 0.850877 0.137804
H26   H     H_    0.302101 0.323560 0.887300 0.191534
H27   H     H_    0.268701 0.506986 0.894844 0.144544
H28   H     H_    0.148592 0.528083 0.212071 0.146383
H29   H     H_    0.190637 0.714316 0.216642 0.150651
H30   H     H_    0.100010 0.646857 0.145520 0.138646
H31   H     H_    0.316573 0.691186 0.111449 0.192159
H32   H     H_    0.269694 0.509807 0.102815 0.143756
H33   H     H_    0.765646 0.603159 0.093125 0.181682
H34   H     H_    0.386292 0.866380 0.410684 0.113093
H35   H     H_    0.835019 0.607018 0.178495 0.156781
H36   H     H_    0.901501 0.503784 0.110556 0.128514
H37   H     H_    0.789866 0.348602 0.190092 0.130921
H38   H     H_    0.716215 0.344567 0.108060 0.182100
H39   H     H_    0.756000 0.396043 0.912353 0.180576
H40   H     H_    0.827011 0.384113 0.828401 0.159247
H41   H     H_    0.898445 0.489120 0.896088 0.127330
H42   H     H_    0.799503 0.642505 0.811839 0.131738
H43   H     H_    0.724880 0.655580 0.892512 0.183470
H44   H     H_    0.466425 0.825073 0.955014 0.338479
H45   H     H_    0.320287 0.421162 0.714930 0.107165
H46   H     H_    0.444190 0.182298 0.044729 0.338062
H47   H     H_    0.586305 0.824080 0.043907 0.336381
H48   H     H_    0.562930 0.178074 0.956600 0.336851
H49   H     H_    0.327549 0.590140 0.283542 0.105072
H50   H     H_    0.686386 0.416535 0.289368 0.086822
H51   H     H_    0.691240 0.577249 0.711897 0.100966
H52   H     H_    0.119592 0.365526 0.314574 0.132262
N1    N     N_R   0.500000 0.852070 0.500000 -0.225664
N2    N     N_R   0.500000 0.147930 0.500000 -0.224339
O1    O     O_R   0.319640 0.618740 0.500000 -0.506137
O2    O     O_3   0.486443 0.253386 0.074514 -0.719627
O3    O     O_3   0.544379 0.753699 0.073627 -0.724504
O4    O     O_3   0.525648 0.250156 0.926627 -0.723179
O5    O     O_R   0.680360 0.381260 0.500000 -0.506070
O6    O     O_R   0.680360 0.618740 0.500000 -0.507045
O7    O     O_R   0.319640 0.381260 0.500000 -0.506106
O8    O     O_R   0.500020 0.618830 0.400190 -0.504700
O9    O     O_R   0.499980 0.381170 0.599810 -0.493995
O10   O     O_R   0.499980 0.618830 0.599810 -0.496888
O11   O     O_R   0.500020 0.381170 0.400190 -0.507903
O12   O     O_3   0.503168 0.752246 0.925454 -0.719356

loop_
_geom_bond_atom_site_label_1
_geom_bond_atom_site_label_2
_ccdc_geom_bond_type
C31   H16   S    
C37   H24   S    
C2    O5    A    
Cu2   N2    S    
C42   H43   S    
C14   C18   A    
C12   C48   S    
C18   C47   S    
C4    C25   S    
C19   C46   S    
C9    C25   A    
C31   C32   S    
C15   C19   A    
C41   H36   S    
C43   H39   S    
C40   H37   S    
C4    O10   A    
C36   C37   S    
C32   H11   S    
C1    C2    S    
C20   H1    S    
C36   H27   S    
C14   C36   S    
C38   C39   S    
C27   H5    S    
C41   H33   S    
C30   H7    S    
C22   N2    A    
Cu2   O11   S    
C17   C42   S    
C36   H26   S    
C23   O12   S    
C5    C27   S    
C20   C24   A    
C34   C46   A    
C9    H45   S    
C45   O4    S    
C10   C26   A    
Cu1   O10   S    
C37   H25   S    
C21   C22   A    
C38   H32   S    
C13   C25   A    
C44   C46   A    
C45   C47   A    
C27   H4    S    
C43   H40   S    
C7    C31   S    
C1    C6    A    
C34   O2    S    
C39   H28   S    
C29   H9    S    
C4    O9    A    
C23   C47   A    
C32   H14   S    
C5    C12   A    
C5    C7    A    
H44   O12   S    
C6    C8    A    
C11   C26   A    
C30   H6    S    
Cu2   O5    S    
C43   H41   S    
C23   C44   A    
C11   H50   S    
H47   O3    S    
C9    C14   A    
C15   C38   S    
C29   C30   S    
C11   C16   A    
C48   O1    A    
C29   H10   S    
C35   H17   S    
C3    O8    A    
C8    C12   A    
C48   O7    A    
C17   C18   A    
C34   C45   A    
C21   H12   S    
C33   H20   S    
C16   C40   S    
Cu1   O8    S    
C40   C41   S    
C38   H31   S    
C42   C43   S    
C13   H51   S    
C44   O3    S    
C31   H15   S    
H46   O2    S    
C2    O6    A    
C1    C7    A    
H48   O4    S    
C3    C26   S    
C32   H13   S    
Cu1   N1    S    
Cu1   O1    S    
C28   H3    S    
C20   N2    A    
C41   H35   S    
C13   C17   A    
C10   C15   A    
C24   N1    A    
C39   H30   S    
Cu2   O9    S    
C24   H34   S    
C3    O11   A    
C28   H2    S    
C40   H38   S    
C35   H18   S    
C16   C19   A    
C30   H8    S    
Cu2   O7    S    
C33   C35   S    
C42   H42   S    
C8    C33   S    
C10   H49   S    
C33   H21   S    
C21   N1    A    
C28   H52   S    
C6    C29   S    
C35   H19   S    
Cu1   Cu2   S    
C37   H22   S    
C27   C28   S    
C22   H23   S    
C39   H29   S    
Cu1   O6    S    
