data_mof_unit_1360.cif
_audit_creation_date              2012-12-10T17:10:29-0500
_audit_creation_method            fapswitch 2.2
_symmetry_space_group_name_H-M    P1
_symmetry_Int_Tables_number       1
_space_group_crystal_system       triclinic
_cell_length_a                    10.929254
_cell_length_b                    12.97504
_cell_length_c                    11.661089
_cell_angle_alpha                 99.509325
_cell_angle_beta                  92.476849
_cell_angle_gamma                 94.296663
_cell_volume                      1623.72297931

loop_
_atom_site_label
_atom_site_type_symbol
_atom_type_description
_atom_site_fract_x
_atom_site_fract_y
_atom_site_fract_z
_atom_type_partial_charge
C1    C     C_R   0.506042 0.299891 0.478900 0.873321
C2    C     C_R   0.494372 0.700168 0.521127 0.874488
C3    C     C_R   0.488999 0.813144 0.532296 0.000435
C4    C     C_R   0.512353 0.187014 0.467910 0.009136
C5    C     C_R   0.537094 0.018889 0.350265 -0.200568
C6    C     C_R   0.465091 0.981342 0.650133 -0.199075
C7    C     C_R   0.536846 0.127162 0.361104 -0.170255
C8    C     C_R   0.465227 0.873063 0.639276 -0.174385
C9    C     C_R   0.489961 0.138401 0.564452 -0.200948
C10   C     C_R   0.511517 0.861761 0.435773 -0.196741
C11   C     C_R   0.489308 0.030228 0.554201 0.158508
C12   C     C_R   0.512627 0.969974 0.446130 0.157041
C13   C     C_R   0.382387 0.396952 0.024076 -0.333655
C14   C     C_R   0.617509 0.603172 0.975917 -0.333845
C15   C     C_R   0.393704 0.407486 0.145997 0.095570
C16   C     C_R   0.606102 0.592708 0.853987 0.097441
C17   C     C_R   0.550873 0.545353 0.155901 0.025042
C18   C     C_R   0.449210 0.454599 0.844097 0.027755
C19   C     C_R   0.542733 0.537680 0.033329 0.064300
C20   C     C_R   0.457308 0.462330 0.966664 0.065895
C21   C     C_R   0.262059 0.492965 0.500655 0.811229
C22   C     C_R   0.737894 0.507098 0.499340 0.802805
C23   C     C_R   0.158671 0.672645 0.616163 -0.155364
C24   C     C_R   0.840172 0.326246 0.386560 -0.153830
C25   C     C_R   0.113347 0.764284 0.668564 -0.172672
C26   C     C_R   0.884473 0.233886 0.335383 -0.148903
C27   C     C_R   0.989990 0.776989 0.655046 -0.139801
C28   C     C_R   0.007951 0.221380 0.346802 -0.196695
C29   C     C_R   0.909784 0.697579 0.589296 -0.075082
C30   C     C_R   0.089707 0.301775 0.408757 -0.076644
C31   C     C_R   0.951521 0.596647 0.547066 -0.022976
C32   C     C_R   0.048282 0.402722 0.452307 0.024069
C33   C     C_R   0.079706 0.586356 0.556719 0.090743
C34   C     C_R   0.919877 0.412853 0.443944 0.089997
C35   C     C_R   0.871921 0.507316 0.494695 -0.192974
C36   C     C_R   0.127932 0.492149 0.505172 -0.167576
Cu1   Cu    Cu3+1 0.509250 0.507730 0.615930 0.976147
Cu2   Cu    Cu3+1 0.490750 0.492270 0.384070 0.961038
H1    H     H_    0.038345 0.145023 0.313636 0.149135
H2    H     H_    0.958516 0.852710 0.689262 0.161971
H3    H     H_    0.315674 0.338239 0.975278 0.143964
H4    H     H_    0.684103 0.661972 0.024733 0.144235
H5    H     H_    0.256988 0.672137 0.624302 0.141566
H6    H     H_    0.741843 0.326930 0.379623 0.139991
H7    H     H_    0.175422 0.827964 0.715087 0.142736
H8    H     H_    0.821650 0.169660 0.291193 0.141652
H9    H     H_    0.530578 0.815744 0.353041 0.161491
H10   H     H_    0.470505 0.184369 0.647087 0.156250
H11   H     H_    0.447092 0.836234 0.714359 0.149213
H12   H     H_    0.554991 0.164018 0.286042 0.147407
H13   H     H_    0.555668 0.973492 0.267122 0.135062
H14   H     H_    0.446670 0.026757 0.733313 0.135795
H15   H     H_    0.383801 0.397137 0.791682 0.145710
H16   H     H_    0.616319 0.602774 0.208306 0.138801
H17   H     H_    0.663880 0.643512 0.810219 0.151638
H18   H     H_    0.335684 0.356949 0.189744 0.127005
N1    N     N_R   0.523180 0.519350 0.790130 -0.191852
N2    N     N_R   0.476820 0.480650 0.209870 -0.186212
O1    O     O_R   0.506570 0.354460 0.582000 -0.579289
O2    O     O_R   0.493430 0.645540 0.418000 -0.574293
O3    O     O_R   0.490940 0.341410 0.386200 -0.586036
O4    O     O_R   0.509060 0.658590 0.613800 -0.587351
O5    O     O_R   0.327470 0.506520 0.597900 -0.571858
O6    O     O_R   0.672530 0.493480 0.402100 -0.584881
O7    O     O_R   0.311840 0.493460 0.402100 -0.596217
O8    O     O_R   0.688160 0.506540 0.597900 -0.580479
C37   C     C_2   0.791325 0.732526 0.553109 0.816733
O9    O     O_2   0.733379 0.783734 0.626033 -0.582273
O10   O     O_R   0.751282 0.718591 0.435626 -0.758809
H19   H     H_    0.812047 0.684113 0.381524 0.287272
C38   C     C_2   0.209848 0.267212 0.440122 0.825304
O11   O     O_2   0.246645 0.280733 0.542236 -0.581137
O12   O     O_R   0.275006 0.207902 0.356003 -0.754496
H20   H     H_    0.240050 0.204826 0.273526 0.279279

loop_
_geom_bond_atom_site_label_1
_geom_bond_atom_site_label_2
_ccdc_geom_bond_type
C27   C29   A    
O12   H20   S    
C19   C20   A    
C13   H3    S    
C30   C38   S    
C21   C36   S    
C22   C35   S    
C32   C36   A    
C24   C26   A    
C1    O1    A    
C2    O2    A    
C33   C36   A    
C23   H5    S    
C34   C35   A    
C22   O8    A    
C18   H15   S    
Cu2   N2    S    
C23   C33   A    
C31   C33   A    
C17   N2    A    
C14   H4    S    
Cu2   O3    S    
C29   C37   S    
C4    C7    A    
Cu1   O5    S    
Cu1   O4    S    
Cu2   O6    S    
C37   O9    D    
C5    C12   A    
C3    C8    A    
C6    C11   A    
C5    C7    A    
C6    C8    A    
C28   H1    S    
C24   C34   A    
C37   O10   S    
C32   C34   A    
Cu1   Cu2   S    
C18   N1    A    
Cu2   O7    S    
C27   H2    S    
Cu1   O8    S    
C9    C11   A    
Cu1   O1    S    
C10   C12   A    
Cu2   O2    S    
C13   C15   A    
C24   H6    S    
C15   N2    A    
C14   C16   A    
C25   H7    S    
C38   O12   S    
C13   C20   A    
C21   O7    A    
C14   C19   A    
C7    H12   S    
C1    O3    A    
C11   C12   A    
C25   C27   A    
C26   C28   A    
C1    C4    S    
C15   H18   S    
C28   C30   A    
C2    C3    S    
C16   H17   S    
C38   O11   D    
C29   C31   A    
C3    C10   A    
C30   C32   A    
C17   H16   S    
C31   C35   A    
C17   C19   A    
C18   C20   A    
C16   N1    A    
C23   C25   A    
O10   H19   S    
C21   O5    A    
C26   H8    S    
C22   O6    A    
C9    H10   S    
C10   H9    S    
C5    H13   S    
C6    H14   S    
C4    C9    A    
C8    H11   S    
Cu1   N1    S    
C2    O4    A    
