data_mof_unit_646.cif
_audit_creation_date              2013-03-05T16:31:13-0500
_audit_creation_method            fapswitch 2.2
_symmetry_space_group_name_H-M    P1
_symmetry_Int_Tables_number       1
_space_group_crystal_system       triclinic
_cell_length_a                    15.017013
_cell_length_b                    14.118393
_cell_length_c                    10.810447
_cell_angle_alpha                 90.0
_cell_angle_beta                  90.042163
_cell_angle_gamma                 90.000033
_cell_volume                      2291.9880967

loop_
_atom_site_label
_atom_site_type_symbol
_atom_site_description
_atom_site_fract_x
_atom_site_fract_y
_atom_site_fract_z
_atom_type_partial_charge
O1    O     O_R   0.369060 0.579480 0.500010 -0.628020
O2    O     O_R   0.630940 0.420520 0.499990 -0.636036
O3    O     O_R   0.630940 0.579480 0.499990 -0.628023
O4    O     O_R   0.369060 0.420520 0.500010 -0.636034
C1    C     C_R   0.327699 0.499999 0.499940 0.956031
C2    C     C_R   0.672301 0.499999 0.500060 0.956025
O5    O     O_R   0.499990 0.579480 0.316780 -0.636850
O6    O     O_R   0.500010 0.420520 0.683220 -0.622860
O7    O     O_R   0.500010 0.579480 0.683220 -0.636844
O8    O     O_R   0.499990 0.420520 0.316780 -0.622859
C3    C     C_R   0.499988 0.500091 0.259688 1.001824
C4    C     C_R   0.500012 0.500091 0.740311 1.001840
Zn1   Zn    Zn3+2 0.500000 0.606140 0.500000 0.963181
Zn2   Zn    Zn3+2 0.500000 0.393860 0.500000 0.973006
H1    H     H_    0.445089 0.177245 0.084374 0.137001
H2    H     H_    0.446304 0.824291 0.914145 0.139220
H3    H     H_    0.554925 0.177247 0.915625 0.137001
H4    H     H_    0.553680 0.824293 0.085857 0.139220
C5    C     C_R   0.552973 0.671722 0.106698 0.040502
C6    C     C_R   0.554061 0.329845 0.894502 0.052267
C7    C     C_R   0.447019 0.671719 0.893302 0.040500
C8    C     C_R   0.445946 0.329842 0.105497 0.052269
C9    C     C_R   0.528798 0.757500 0.050602 -0.253122
C10   C     C_R   0.529470 0.244003 0.950150 -0.238371
C11   C     C_R   0.471190 0.757498 0.949398 -0.253123
C12   C     C_R   0.470542 0.244001 0.049850 -0.238373
C13   C     C_R   0.484724 0.586031 0.939471 0.045943
C14   C     C_R   0.484402 0.415284 0.060223 0.040723
C15   C     C_R   0.515273 0.586032 0.060528 0.045945
C16   C     C_R   0.515602 0.415285 0.939777 0.040720
C17   C     C_R   0.500143 0.500497 0.873033 -0.154286
C18   C     C_R   0.499857 0.500497 0.126966 -0.154287
C19   C     C_R   0.094195 0.580087 0.541507 -0.176256
C20   C     C_R   0.905866 0.419922 0.541700 -0.174368
C21   C     C_R   0.905804 0.580087 0.458485 -0.176254
C22   C     C_R   0.094134 0.419923 0.458292 -0.174367
H5    H     H_    0.059178 0.641835 0.575717 0.135117
H6    H     H_    0.940939 0.358179 0.575884 0.133929
H7    H     H_    0.940821 0.641834 0.424274 0.135118
H8    H     H_    0.059061 0.358179 0.424107 0.133929
C23   C     C_R   0.186088 0.580428 0.540362 -0.148754
C24   C     C_R   0.813966 0.419603 0.540691 -0.148497
C25   C     C_R   0.813912 0.580428 0.459632 -0.148754
C26   C     C_R   0.186034 0.419603 0.459304 -0.148500
H9    H     H_    0.221085 0.642823 0.572656 0.169621
H10   H     H_    0.779022 0.357253 0.573136 0.158881
H11   H     H_    0.778915 0.642823 0.427340 0.169624
H12   H     H_    0.220979 0.357253 0.426860 0.158883
C27   C     C_R   0.231991 0.500005 0.499861 -0.014286
C28   C     C_R   0.768009 0.500006 0.500135 -0.014286
C29   C     C_R   0.048122 0.499994 0.499955 0.116098
C30   C     C_R   0.951878 0.499994 0.500036 0.116098
C31   C     C_R   0.421452 0.104685 0.477757 -0.285798
C32   C     C_R   0.551545 0.894922 0.585505 -0.284299
C33   C     C_R   0.578548 0.104685 0.522243 -0.285797
C34   C     C_R   0.448455 0.894922 0.414495 -0.284299
H13   H     H_    0.358948 0.068530 0.461607 0.134931
H14   H     H_    0.591483 0.931083 0.654239 0.136296
H15   H     H_    0.641052 0.068531 0.538393 0.134931
H16   H     H_    0.408517 0.931083 0.345761 0.136295
C35   C     C_R   0.422819 0.204185 0.478853 0.001098
C36   C     C_R   0.550416 0.795427 0.584078 -0.004441
C37   C     C_R   0.577180 0.204185 0.521146 0.001098
C38   C     C_R   0.449584 0.795427 0.415922 -0.004447
H17   H     H_    0.361685 0.242568 0.462803 0.124064
H18   H     H_    0.589835 0.756347 0.650538 0.136951
H19   H     H_    0.638314 0.242568 0.537197 0.124062
H20   H     H_    0.410165 0.756347 0.349462 0.136950
N1    N     N_R   0.500000 0.252470 0.500000 -0.096403
N2    N     N_R   0.500000 0.747530 0.500000 -0.105854
C39   C     C_R   0.500000 0.053059 0.500000 0.142029
C40   C     C_R   0.500000 0.946533 0.500000 0.135899
C41   C     C_2   0.628154 0.673602 0.195601 0.438592
H21   H     H_    0.645746 0.739107 0.242207 0.039664
O9    O     O_2   0.673234 0.603005 0.213996 -0.594727
C42   C     C_2   0.630639 0.328558 0.808102 0.432898
H22   H     H_    0.651822 0.262350 0.766540 0.021610
O10   O     O_2   0.673356 0.400363 0.787097 -0.598221
C43   C     C_2   0.371838 0.673595 0.804401 0.438590
H23   H     H_    0.354235 0.739101 0.757806 0.039662
O11   O     O_2   0.326767 0.602993 0.785994 -0.594732
C44   C     C_2   0.369367 0.328551 0.191895 0.432899
H24   H     H_    0.348186 0.262343 0.233456 0.021611
O12   O     O_2   0.326647 0.400355 0.212899 -0.598221

loop_
_geom_bond_atom_site_label_1
_geom_bond_atom_site_label_2
_geom_bond_distance
_ccdc_geom_bond_type
C26   C27   1.398803 A    
C33   H15   1.082503 S    
C13   C15   1.386438 A    
C41   H21   1.085698 S    
C5    C9    1.402093 A    
C20   C24   1.380100 A    
O3    C2    1.282571 A    
C6    C16   1.424293 A    
O5    C3    1.279530 A    
C36   N2    1.362205 A    
O1    C1    1.282571 A    
C8    C44   1.482146 S    
C42   O10   1.221071 D    
C15   C18   1.424088 A    
C16   C17   1.421824 A    
Zn1   N2    1.996200 S    
C6    C42   1.482146 S    
C24   H10   1.083306 S    
O7    Zn1   2.016136 S    
C22   H8    1.083322 S    
C31   C35   1.404974 A    
C37   N1    1.363790 A    
C34   C40   1.408352 A    
C33   C37   1.404974 A    
C34   C38   1.404899 A    
C38   N2    1.362207 A    
C21   C25   1.380021 A    
O3    Zn1   2.002029 S    
C7    C13   1.425780 A    
C8    C14   1.424293 A    
C41   O9    1.221107 D    
C1    C27   1.437251 S    
O2    C2    1.282547 A    
C23   C27   1.398765 A    
C37   H19   1.079978 S    
H3    C10   1.083465 S    
C36   H18   1.081852 S    
C13   C17   1.424086 A    
C29   C30   1.445291 S    
C6    C10   1.402652 A    
C14   C18   1.421826 A    
C42   H22   1.084903 S    
O8    Zn2   2.016137 S    
C43   O11   1.221099 D    
C31   H13   1.082504 S    
H1    C12   1.083465 S    
C32   C36   1.404899 A    
C19   H5    1.083320 S    
H4    C9    1.083488 S    
C21   H7    1.083320 S    
C5    C41   1.482362 S    
O6    C4    1.281790 A    
C7    C43   1.482363 S    
C32   C40   1.408353 A    
C2    C28   1.437251 S    
C22   C29   1.399553 A    
C24   C28   1.398804 A    
C3    C18   1.434797 S    
C44   O12   1.221071 D    
C4    C17   1.434794 S    
Zn2   N1    1.996200 S    
C22   C26   1.380100 A    
O1    Zn1   2.002029 S    
C31   C39   1.407128 A    
C38   H20   1.081853 S    
C32   H14   1.082507 S    
C35   N1    1.363791 A    
H2    C11   1.083488 S    
C7    C11   1.402094 A    
O6    Zn2   2.016136 S    
C20   H6    1.083321 S    
C10   C12   1.395044 A    
O4    C1    1.282549 A    
C25   C28   1.398764 A    
C19   C29   1.399534 A    
C20   C30   1.399553 A    
C19   C23   1.380022 A    
C14   C16   1.384134 A    
C39   C40   1.503982 S    
C9    C11   1.394258 A    
O4    Zn2   2.002029 S    
O2    Zn2   2.002029 S    
O7    C4    1.279530 A    
O8    C3    1.281790 A    
C43   H23   1.085687 S    
C35   H17   1.079978 S    
O5    Zn1   2.016137 S    
C34   H16   1.082509 S    
C44   H24   1.084899 S    
C8    C12   1.402652 A    
C21   C30   1.399534 A    
C23   H9    1.083422 S    
C25   H11   1.083423 S    
C33   C39   1.407130 A    
C26   H12   1.083306 S    
C5    C15   1.425778 A    
