data_mof_unit_1477.cif
_audit_creation_date              2012-12-10T17:36:22-0500
_audit_creation_method            fapswitch 2.2
_symmetry_space_group_name_H-M    P1
_symmetry_Int_Tables_number       1
_space_group_crystal_system       triclinic
_cell_length_a                    12.318937
_cell_length_b                    13.12065
_cell_length_c                    15.876328
_cell_angle_alpha                 78.601625
_cell_angle_beta                  100.515426
_cell_angle_gamma                 116.303148
_cell_volume                      2241.87097008

loop_
_atom_site_label
_atom_site_type_symbol
_atom_type_description
_atom_site_fract_x
_atom_site_fract_y
_atom_site_fract_z
_atom_type_partial_charge
C1    C     C_R   0.855261 0.286374 0.508850 0.770973
C2    C     C_R   0.228682 0.837738 0.474633 -0.120783
C3    C     C_R   0.812993 0.088935 0.578241 -0.181803
C4    C     C_R   0.998901 0.499840 0.659340 0.825245
C5    C     C_R   0.730918 0.977666 0.603528 -0.174551
C6    C     C_R   0.609108 0.938731 0.569902 -0.198530
C7    C     C_R   0.567044 0.010119 0.507140 0.090866
C8    C     C_R   0.652833 0.121587 0.478186 0.080147
C9    C     C_R   0.441595 0.977588 0.476279 0.057201
C10   C     C_R   0.403621 0.059437 0.424145 0.098367
C11   C     C_R   0.492101 0.164122 0.390165 -0.237319
C12   C     C_3   0.021114 0.394587 0.071501 -0.455812
C13   C     C_R   0.614258 0.190621 0.411973 -0.199413
C14   C     C_R   0.353118 0.866545 0.496433 -0.284196
C15   C     C_R   0.190030 0.925029 0.435936 -0.057859
C16   C     C_R   0.145178 0.714265 0.488281 0.800693
C17   C     C_R   0.774188 0.163073 0.518119 -0.096157
C18   C     C_R   0.345098 0.327908 0.636433 -0.313080
C19   C     C_R   0.753327 0.634139 0.377474 0.050233
C20   C     C_R   0.648938 0.652649 0.343693 -0.038601
C21   C     C_R   0.547290 0.599681 0.390521 -0.248997
C22   C     C_R   0.547588 0.526965 0.468452 -0.021351
C23   C     C_3   0.994244 0.495624 0.083462 0.210706
C24   C     C_R   0.652788 0.504735 0.495948 0.274820
C25   C     C_R   0.444804 0.470971 0.517648 -0.014515
C26   C     C_R   0.445254 0.386550 0.588546 0.176058
C27   C     C_R   0.545813 0.361383 0.611409 -0.275454
C28   C     C_R   0.000960 0.500227 0.340676 0.826602
C29   C     C_R   0.648161 0.420844 0.567528 -0.167919
C30   C     C_R   0.341381 0.495668 0.500453 0.006639
C31   C     C_R   0.245784 0.355057 0.615463 0.050039
C32   C     C_3   0.036539 0.400759 0.975114 -0.120063
C33   C     C_3   0.861175 0.473811 0.936476 -0.156155
C34   C     C_3   0.095188 0.609356 0.041856 -0.150913
C35   C     C_3   0.865360 0.478974 0.035800 -0.158427
C36   C     C_1   0.001492 0.499213 0.251567 -0.188174
C37   C     C_3   0.989631 0.489409 0.916803 0.209694
C38   C     C_R   0.104633 0.719663 0.067905 0.153057
C39   C     C_R   0.026085 0.771739 0.028419 -0.162442
C40   C     C_R   0.035216 0.869933 0.056478 -0.138086
C41   C     C_R   0.122800 0.918290 0.123630 -0.108591
C42   C     C_R   0.201995 0.868644 0.163023 -0.149131
C43   C     C_R   0.193283 0.770221 0.135370 -0.157075
C44   C     C_R   0.060462 0.905838 0.429176 0.144254
C45   C     C_3   0.083030 0.609845 0.942182 -0.481931
C46   C     C_R   0.997764 0.925592 0.348837 -0.146983
C47   C     C_R   0.884124 0.926835 0.344920 -0.150753
C48   C     C_R   0.829050 0.902011 0.420508 -0.095493
C49   C     C_R   0.888234 0.876825 0.500160 -0.130645
C50   C     C_R   0.004468 0.881113 0.504835 -0.117041
C51   C     C_R   0.240607 0.128705 0.368302 0.114785
C52   C     C_R   0.200258 0.177808 0.419706 -0.115967
C53   C     C_R   0.162399 0.263865 0.382352 -0.120178
C54   C     C_R   0.167376 0.303323 0.294143 -0.121220
C55   C     C_R   0.207635 0.254843 0.242594 -0.142232
C56   C     C_1   0.999390 0.497918 0.176098 -0.077932
C57   C     C_R   0.243140 0.167031 0.279345 -0.194253
C58   C     C_R   0.003159 0.286923 0.941948 0.101386
C59   C     C_R   0.060500 0.289746 0.871532 -0.165215
C60   C     C_R   0.032033 0.189957 0.836667 -0.128723
C61   C     C_R   0.947222 0.084887 0.872048 -0.120291
C62   C     C_R   0.892863 0.079173 0.943552 -0.159959
C63   C     C_R   0.921969 0.178410 0.979471 -0.133456
C64   C     C_R   0.643701 0.723279 0.258247 0.114667
C65   C     C_R   0.574701 0.788211 0.242185 -0.164073
C66   C     C_R   0.565965 0.850591 0.161061 -0.148044
C67   C     C_1   0.992152 0.494029 0.824187 -0.098960
C68   C     C_R   0.627749 0.851255 0.095367 -0.124628
C69   C     C_R   0.697913 0.788820 0.110553 -0.142792
C70   C     C_R   0.705753 0.724983 0.191252 -0.160401
C71   C     C_R   0.743113 0.382645 0.896833 0.117572
C72   C     C_R   0.737874 0.293162 0.857266 -0.133610
C73   C     C_R   0.625996 0.208129 0.829134 -0.171637
C74   C     C_R   0.517554 0.212897 0.837183 -0.138567
C75   C     C_R   0.520911 0.304646 0.870998 -0.111560
C76   C     C_R   0.632558 0.389336 0.899744 -0.129331
C77   C     C_R   0.758470 0.386902 0.084077 0.129423
C78   C     C_1   0.995041 0.497583 0.748584 -0.188605
C79   C     C_R   0.699790 0.421296 0.133996 -0.155406
C80   C     C_R   0.601232 0.340515 0.177611 -0.138666
C81   C     C_R   0.559398 0.224062 0.172121 -0.118272
C82   C     C_R   0.616457 0.188472 0.123395 -0.133646
C83   C     C_R   0.715245 0.268941 0.080042 -0.111093
C84   C     C_R   0.278449 0.035494 0.407858 -0.047431
Cu1   Cu    Cu3+1 0.098280 0.475420 0.519630 0.913269
Cu2   Cu    Cu3+1 0.901720 0.524580 0.480370 0.928426
H1    H     H_    0.950496 0.313426 0.098250 0.174053
H2    H     H_    0.854352 0.554013 0.902172 0.109654
H3    H     H_    0.174237 0.632170 0.922774 0.164333
H4    H     H_    0.137515 0.442438 0.974418 0.132393
H5    H     H_    0.107294 0.400517 0.111313 0.145296
H6    H     H_    0.957622 0.737716 0.975724 0.100320
H7    H     H_    0.974076 0.908539 0.026033 0.128189
H8    H     H_    0.129132 0.994299 0.144876 0.119818
H9    H     H_    0.269900 0.906149 0.215249 0.124122
H10   H     H_    0.254918 0.732553 0.167593 0.114317
H11   H     H_    0.038914 0.944329 0.289705 0.130528
H12   H     H_    0.380194 0.799381 0.527078 0.164986
H13   H     H_    0.838617 0.946615 0.283168 0.154312
H14   H     H_    0.740106 0.901162 0.417252 0.141338
H15   H     H_    0.845053 0.855536 0.558556 0.127248
H16   H     H_    0.051577 0.866595 0.567434 0.111375
H17   H     H_    0.468668 0.226963 0.345911 0.158108
H18   H     H_    0.197132 0.148635 0.488348 0.126246
H19   H     H_    0.129252 0.299761 0.421921 0.179509
H20   H     H_    0.140132 0.371387 0.265967 0.136286
H21   H     H_    0.211587 0.285059 0.174253 0.127573
H22   H     H_    0.274160 0.129847 0.239077 0.113215
H23   H     H_    0.905479 0.118927 0.609625 0.144048
H24   H     H_    0.127969 0.369841 0.843261 0.131174
H25   H     H_    0.076033 0.194065 0.782240 0.109121
H26   H     H_    0.924859 0.007635 0.844839 0.113508
H27   H     H_    0.828434 0.997261 0.971765 0.116113
H28   H     H_    0.879527 0.166903 0.035983 0.111289
H29   H     H_    0.677691 0.268395 0.378290 0.178682
H30   H     H_    0.546110 0.295599 0.664453 0.169352
H31   H     H_    0.335035 0.561232 0.449570 0.125000
H32   H     H_    0.465961 0.610488 0.362538 0.133983
H33   H     H_    0.528132 0.791846 0.292337 0.117555
H34   H     H_    0.549937 0.854054 0.597100 0.129848
H35   H     H_    0.510662 0.898015 0.149184 0.122061
H36   H     H_    0.620844 0.899840 0.032642 0.118941
H37   H     H_    0.745305 0.788818 0.059470 0.114814
H38   H     H_    0.758868 0.675764 0.200517 0.112881
H39   H     H_    0.818225 0.287525 0.846791 0.159245
H40   H     H_    0.623503 0.138870 0.800265 0.138597
H41   H     H_    0.431090 0.146903 0.815344 0.120071
H42   H     H_    0.436929 0.309848 0.875494 0.124320
H43   H     H_    0.632794 0.458991 0.926859 0.113300
H44   H     H_    0.730248 0.511022 0.139219 0.115703
H45   H     H_    0.760803 0.922637 0.652593 0.129507
H46   H     H_    0.557019 0.368460 0.215294 0.131775
H47   H     H_    0.482349 0.161349 0.205033 0.122548
H48   H     H_    0.583122 0.098510 0.118080 0.121892
H49   H     H_    0.753643 0.239007 0.040232 0.128187
H50   H     H_    0.858501 0.559735 0.037746 0.110093
H51   H     H_    0.056350 0.677811 0.905011 0.172642
H52   H     H_    0.183879 0.604950 0.067109 0.134256
H53   H     H_    0.167981 0.310134 0.651909 0.118357
H54   H     H_    0.343873 0.261992 0.689978 0.132788
H55   H     H_    0.833869 0.675678 0.343757 0.139754
H56   H     H_    0.720404 0.395750 0.591172 0.208096
N1    N     N_R   0.246300 0.438200 0.549400 -0.187260
N2    N     N_R   0.754300 0.561180 0.451130 -0.214324
O1    O     O_R   0.972520 0.318130 0.524690 -0.592425
O2    O     O_R   0.806530 0.359650 0.491530 -0.599284
O3    O     O_R   0.083030 0.479240 0.637150 -0.575860
O4    O     O_R   0.917040 0.520750 0.603990 -0.593238
O5    O     O_R   0.193470 0.640350 0.508470 -0.585241
O6    O     O_R   0.027480 0.681870 0.475310 -0.572468
O7    O     O_R   0.082960 0.479250 0.396010 -0.598635
O8    O     O_R   0.916970 0.520760 0.362850 -0.584714

loop_
_geom_bond_atom_site_label_1
_geom_bond_atom_site_label_2
_ccdc_geom_bond_type
C66   C68   A    
C82   H48   S    
C19   N2    A    
C80   H46   S    
C27   C29   A    
C11   C13   A    
C41   C42   A    
C12   H5    S    
C1    O1    A    
C19   C20   A    
C18   C26   A    
C32   C58   S    
C40   H7    S    
C75   C76   A    
Cu1   N1    S    
C81   C82   A    
Cu2   N2    S    
C23   C56   S    
C41   H8    S    
C53   C54   A    
C12   C23   S    
C26   C27   A    
C62   C63   A    
C5    C6    A    
C33   H2    S    
Cu1   O1    S    
C15   C44   S    
C15   C84   A    
Cu2   O6    S    
C49   H15   S    
C38   C39   A    
C69   H37   S    
C73   H40   S    
C4    O4    A    
C25   C30   A    
C59   H24   S    
C47   H13   S    
C75   H42   S    
C73   C74   A    
C24   C29   A    
C46   C47   A    
C63   H28   S    
C32   H4    S    
C47   C48   A    
C68   C69   A    
C22   C25   A    
C16   O5    A    
C51   C57   A    
C64   C70   A    
C45   H3    S    
C9    C10   A    
C83   H49   S    
C27   H30   S    
C59   C60   A    
C19   H55   S    
C21   C22   A    
C12   C32   S    
C1    O2    A    
C61   C62   A    
C67   C78   T    
Cu2   O2    S    
C6    H34   S    
C44   C46   A    
C14   H12   S    
C77   C79   A    
C48   H14   S    
C74   C75   A    
C54   H20   S    
C42   H9    S    
C7    C8    A    
C62   H27   S    
C68   H36   S    
C39   C40   A    
C72   C73   A    
C58   C59   A    
Cu1   Cu2   S    
C4    O3    A    
C35   C77   S    
C33   C37   S    
C30   N1    A    
C51   C52   A    
C55   H21   S    
C60   C61   A    
C20   C64   S    
C9    C14   A    
Cu1   O7    S    
C4    C78   S    
C21   H32   S    
C36   C56   T    
Cu2   O8    S    
C76   H43   S    
C74   H41   S    
C23   C34   S    
C45   H51   S    
C43   H10   S    
C65   H33   S    
C66   H35   S    
C34   C45   S    
C32   C37   S    
C24   N2    A    
C18   H54   S    
C2    C15   A    
C13   H29   S    
C40   C41   A    
C46   H11   S    
C50   H16   S    
C23   C35   S    
C55   C57   A    
C70   H38   S    
C22   C24   A    
C42   C43   A    
C31   H53   S    
C39   H6    S    
C2    C16   S    
C52   C53   A    
C44   C50   A    
C58   C63   A    
C7    C9    A    
C54   C55   A    
C48   C49   A    
C12   H1    S    
C34   C38   S    
Cu1   O3    S    
C80   C81   A    
C3    C5    A    
Cu2   O4    S    
C35   H50   S    
C11   H17   S    
C81   H47   S    
C6    C7    A    
C30   H31   S    
C1    C17   S    
C8    C17   A    
C72   H39   S    
C64   C65   A    
C28   O8    A    
C25   C26   A    
C38   C43   A    
C60   H25   S    
C79   H44   S    
C34   H52   S    
C71   C76   A    
C3    H23   S    
C29   H56   S    
C37   C67   S    
C10   C84   A    
C33   C35   S    
C52   H18   S    
C3    C17   A    
C65   C66   A    
C31   N1    A    
C69   C70   A    
C2    C14   A    
Cu1   O5    S    
C10   C11   A    
C33   C71   S    
C79   C80   A    
C8    C13   A    
C53   H19   S    
C5    H45   S    
C57   H22   S    
C71   C72   A    
C20   C21   A    
C28   C36   S    
C28   O7    A    
C49   C50   A    
C77   C83   A    
C16   O6    A    
C18   C31   A    
C82   C83   A    
C61   H26   S    
C37   C45   S    
C51   C84   S    
