data_mof_unit_3876.cif
_audit_creation_date              2012-10-26T18:53:05-0400
_audit_creation_method            fapswitch 2.2
_symmetry_space_group_name_H-M    P1
_symmetry_Int_Tables_number       1
_space_group_crystal_system       triclinic
_cell_length_a                    14.668898
_cell_length_b                    14.7366
_cell_length_c                    15.875761
_cell_angle_alpha                 77.024541
_cell_angle_beta                  102.473951
_cell_angle_gamma                 114.767956
_cell_volume                      3007.63227877

loop_
_atom_site_label
_atom_site_type_symbol
_atom_type_description
_atom_site_fract_x
_atom_site_fract_y
_atom_site_fract_z
_atom_type_partial_charge
C1    C     C_R   0.880263 0.312396 0.515199 0.543954
C2    C     C_R   0.187198 0.794746 0.484307 0.000868
C3    C     C_R   0.784455 0.027958 0.565019 -0.128499
C4    C     C_R   0.999540 0.500089 0.659630 0.553591
C5    C     C_R   0.850750 0.128992 0.553085 -0.135565
C6    C     C_R   0.707892 0.179278 0.516222 -0.129639
C7    C     C_R   0.639571 0.078233 0.530764 0.034397
C8    C     C_R   0.679425 0.002015 0.553261 0.053252
C9    C     C_R   0.532924 0.050917 0.521097 0.034965
C10   C     C_R   0.467124 0.947089 0.524689 0.035571
C11   C     C_R   0.510098 0.873365 0.548764 -0.125628
C12   C     C_3   0.026347 0.412152 0.071910 -0.226923
C13   C     C_R   0.614228 0.900666 0.563485 -0.123341
C14   C     C_R   0.490003 0.123675 0.509561 -0.116342
C15   C     C_R   0.385852 0.096233 0.496525 -0.120967
C16   C     C_R   0.119701 0.687619 0.486317 0.550755
C17   C     C_R   0.320580 0.995857 0.493142 0.052075
C18   C     C_R   0.360431 0.920417 0.505936 0.035750
C19   C     C_R   0.215455 0.970019 0.477213 -0.127730
C20   C     C_R   0.149056 0.869849 0.473618 -0.132058
C21   C     C_R   0.291940 0.820888 0.497971 -0.121678
C22   C     C_R   0.711032 0.660750 0.349712 -0.125964
C23   C     C_3   0.002091 0.501182 0.083052 0.031847
C24   C     C_R   0.796285 0.637318 0.377495 0.024366
C25   C     C_R   0.712816 0.506793 0.485893 0.045041
C26   C     C_R   0.622543 0.526004 0.460166 -0.051754
C27   C     C_R   0.622790 0.604453 0.389575 0.042750
C28   C     C_R   0.000533 0.499996 0.340369 0.556430
C29   C     C_R   0.533320 0.470887 0.501968 -0.070173
C30   C     C_R   0.446061 0.495540 0.472898 -0.034949
C31   C     C_R   0.444310 0.563067 0.393169 0.218088
C32   C     C_R   0.534361 0.623154 0.356587 0.296158
C33   C     C_R   0.527052 0.389019 0.569602 -0.099854
C34   C     C_3   0.083099 0.601485 0.044873 -0.189425
C35   C     C_R   0.440636 0.334674 0.610130 0.258538
C36   C     C_R   0.360400 0.368725 0.592403 0.069412
C37   C     C_R   0.363248 0.450463 0.523716 -0.079452
C38   C     C_R   0.279337 0.325698 0.643175 0.210420
C39   C     C_R   0.200643 0.360802 0.621209 0.042224
C40   C     C_3   0.022637 0.410485 0.973985 -0.222652
C41   C     C_R   0.284937 0.486981 0.511124 0.015713
C42   C     C_3   0.895907 0.491153 0.932863 -0.257298
C43   C     C_3   0.896693 0.490670 0.030773 -0.228804
C44   C     C_1   0.001767 0.500114 0.250922 -0.020085
C45   C     C_3   0.081705 0.602556 0.946266 0.135541
C46   C     C_3   0.000722 0.501449 0.917021 0.071799
C47   C     C_1   0.002210 0.500492 0.175371 -0.063843
C48   C     C_1   0.999311 0.501056 0.824616 -0.022693
C49   C     C_1   0.998888 0.500664 0.749052 -0.010741
C50   C     C_R   0.812583 0.205112 0.527965 -0.002014
Cu1   Cu    Cu3+1 0.081750 0.475690 0.522550 0.947328
Cu2   Cu    Cu3+1 0.918250 0.524310 0.477450 0.940584
H1    H     H_    0.102932 0.419614 0.107085 0.126262
H2    H     H_    0.286696 0.553969 0.465844 0.184774
H3    H     H_    0.135971 0.326103 0.656547 0.117114
H4    H     H_    0.714013 0.721450 0.295869 0.162168
H5    H     H_    0.719842 0.449330 0.539067 0.121328
H6    H     H_    0.876838 0.554903 0.892904 0.114315
H7    H     H_    0.837241 0.419017 0.057202 0.136177
H8    H     H_    0.059586 0.665365 0.908505 0.157384
H9    H     H_    0.159274 0.610925 0.082141 0.149655
H10   H     H_    0.970743 0.339175 0.100943 0.127477
H11   H     H_    0.095109 0.411306 0.962496 0.128186
H12   H     H_    0.643891 0.841762 0.581913 0.113663
H13   H     H_    0.067346 0.666613 0.052518 0.102403
H14   H     H_    0.465434 0.793338 0.559531 0.112111
H15   H     H_    0.534798 0.202588 0.512873 0.109684
H16   H     H_    0.184618 0.027280 0.468217 0.108061
H17   H     H_    0.473527 0.709650 0.274221 0.374939
H18   H     H_    0.371998 0.194047 0.651949 0.356876
H19   H     H_    0.863065 0.679339 0.345298 0.126651
H20   H     H_    0.303278 0.493285 0.350245 0.325522
H21   H     H_    0.586549 0.360933 0.590037 0.124235
H22   H     H_    0.217646 0.232153 0.742751 0.313577
H23   H     H_    0.318282 0.762117 0.500796 0.125161
H24   H     H_    0.835699 0.419997 0.912293 0.135397
H25   H     H_    0.877669 0.554002 0.037734 0.125637
H26   H     H_    0.204993 0.574793 0.967577 0.332793
H27   H     H_    0.068170 0.851192 0.463046 0.129738
H28   H     H_    0.356236 0.154361 0.488192 0.107826
H29   H     H_    0.815284 0.969965 0.583149 0.110055
H30   H     H_    0.931561 0.147387 0.562791 0.128631
H31   H     H_    0.681223 0.239476 0.493391 0.120980
H32   H     H_    0.962056 0.338463 0.955478 0.120094
N1    N     N_R   0.795410 0.560790 0.443550 -0.230875
N2    N     N_R   0.204590 0.439170 0.556520 -0.261644
O1    O     O_R   0.977910 0.338120 0.529720 -0.510018
O2    O     O_3   0.438331 0.248590 0.667341 -0.648642
O3    O     O_3   0.354831 0.563510 0.343409 -0.736069
O4    O     O_3   0.279226 0.252590 0.715076 -0.683350
O5    O     O_3   0.178562 0.622992 0.927330 -0.688671
O6    O     O_R   0.839850 0.379180 0.491640 -0.511801
O7    O     O_R   0.069060 0.479460 0.639610 -0.489969
O8    O     O_R   0.931000 0.520530 0.601530 -0.500143
O9    O     O_R   0.160150 0.620820 0.508360 -0.505101
O10   O     O_R   0.022090 0.661880 0.470280 -0.507626
O11   O     O_R   0.069000 0.479470 0.398470 -0.490688
O12   O     O_R   0.930940 0.520540 0.360390 -0.495444
O13   O     O_3   0.536154 0.696394 0.284219 -0.702181

loop_
_geom_bond_atom_site_label_1
_geom_bond_atom_site_label_2
_ccdc_geom_bond_type
C28   O11   A    
Cu1   O11   S    
C45   H8    S    
C1    O1    A    
C8    C13   A    
C5    H30   S    
C18   C21   A    
C40   H32   S    
C19   C20   A    
H18   O2    S    
C42   H6    S    
C7    C8    A    
C45   C46   S    
C40   C46   S    
C41   N2    A    
C12   C23   S    
C26   C27   A    
C40   H11   S    
C36   C37   A    
C30   C31   A    
C29   C33   A    
C23   C43   S    
C34   H13   S    
C7    C9    A    
C42   C46   S    
C33   C35   A    
C39   H3    S    
C31   C32   A    
C31   O3    S    
C3    H29   S    
C14   H15   S    
Cu2   O8    S    
C2    C16   S    
C1    C50   S    
C12   H1    S    
C44   C47   T    
C43   H7    S    
C25   H5    S    
Cu1   N2    S    
C46   C48   S    
C16   O10   A    
C23   C47   S    
C2    C20   A    
Cu1   Cu2   S    
C3    C8    A    
Cu1   O1    S    
C24   N1    A    
C22   H4    S    
C25   C26   A    
C28   C44   S    
C34   H9    S    
C30   C37   A    
C35   C36   A    
C12   C40   S    
C9    C14   A    
C29   C30   A    
C12   H10   S    
C35   O2    S    
C15   H28   S    
C23   C34   S    
C2    C21   A    
C25   N1    A    
C17   C18   A    
C19   H16   S    
C34   C45   S    
C6    C50   A    
Cu1   O7    S    
C4    O8    A    
H17   O13   S    
C33   H21   S    
C48   C49   T    
C1    O6    A    
C22   C27   A    
C22   C24   A    
C5    C50   A    
Cu2   O6    S    
C42   C43   S    
C9    C10   A    
C28   O12   A    
C15   C17   A    
C38   O4    S    
Cu2   N1    S    
C16   O9    A    
C6    H31   S    
C20   H27   S    
C27   C32   A    
C3    C5    A    
C11   H14   S    
C6    C7    A    
H26   O5    S    
C43   H25   S    
C21   H23   S    
C42   H24   S    
C32   O13   S    
C4    C49   S    
H22   O4    S    
C36   C38   A    
H20   O3    S    
C11   C13   A    
C38   C39   A    
C13   H12   S    
C10   C18   A    
Cu2   O12   S    
C17   C19   A    
Cu2   O10   S    
C37   C41   A    
C45   O5    S    
C41   H2    S    
C10   C11   A    
C4    O7    A    
C26   C29   A    
C14   C15   A    
C39   N2    A    
C24   H19   S    
Cu1   O9    S    
