data_mof_unit_4916.cif
_audit_creation_date              2012-10-26T21:17:59-0400
_audit_creation_method            fapswitch 2.2
_symmetry_space_group_name_H-M    P1
_symmetry_Int_Tables_number       1
_space_group_crystal_system       triclinic
_cell_length_a                    14.759947
_cell_length_b                    14.80222
_cell_length_c                    27.818824
_cell_angle_alpha                 75.789455
_cell_angle_beta                  103.232975
_cell_angle_gamma                 114.923733
_cell_volume                      5288.47089373

loop_
_atom_site_label
_atom_site_type_symbol
_atom_type_description
_atom_site_fract_x
_atom_site_fract_y
_atom_site_fract_z
_atom_type_partial_charge
C1    C     C_R   0.880419 0.312417 0.508079 0.561015
C2    C     C_R   0.995753 0.409992 0.138405 0.009091
C3    C     C_R   0.999955 0.502410 0.644838 0.010263
C4    C     C_R   0.000214 0.500214 0.354537 0.008122
C5    C     C_R   0.998808 0.414410 0.035453 -0.024507
C6    C     C_R   0.983645 0.580602 0.962310 -0.024993
C7    C     C_R   0.994065 0.583493 0.014065 0.034556
C8    C     C_R   0.004992 0.419029 0.984516 0.034908
C9    C     C_R   0.997343 0.498224 0.050393 0.033873
C10   C     C_R   0.993602 0.500729 0.947795 0.034040
C11   C     C_R   0.993380 0.327958 0.071817 -0.113440
C12   C     C_R   0.119710 0.687611 0.491830 0.563445
C13   C     C_R   0.960678 0.653993 0.924613 -0.112867
C14   C     C_R   0.993286 0.324286 0.122521 0.257678
C15   C     C_R   0.954846 0.654840 0.873624 0.259418
C16   C     C_R   0.000379 0.500920 0.592310 0.552503
C17   C     C_R   0.999780 0.499588 0.407537 0.570626
C18   C     C_R   0.023744 0.345225 0.969056 -0.124877
C19   C     C_R   0.002891 0.669831 0.030822 -0.125283
C20   C     C_R   0.813161 0.204972 0.511817 0.008337
C21   C     C_R   0.187737 0.795026 0.486314 -0.000744
C22   C     C_R   0.786123 0.028467 0.526597 -0.071949
C23   C     C_R   0.992872 0.502696 0.896300 -0.065052
C24   C     C_R   0.216690 0.972187 0.467538 -0.073813
C25   C     C_R   0.851500 0.129548 0.522769 -0.108625
C26   C     C_R   0.150673 0.871379 0.474677 -0.114466
C27   C     C_R   0.708818 0.178291 0.503514 -0.124317
C28   C     C_R   0.291821 0.820662 0.492715 -0.122843
C29   C     C_R   0.640580 0.077108 0.504028 -0.001054
C30   C     C_R   0.361217 0.921883 0.488797 -0.001264
C31   C     C_R   0.680432 0.000407 0.518360 0.041455
C32   C     C_R   0.322058 0.999183 0.473538 0.038900
C33   C     C_R   0.534149 0.050839 0.492011 -0.023424
C34   C     C_R   0.998979 0.497066 0.101909 -0.065173
C35   C     C_R   0.467859 0.947701 0.498992 -0.022298
C36   C     C_R   0.510172 0.873590 0.516789 -0.102722
C37   C     C_R   0.492419 0.124899 0.472091 -0.105336
C38   C     C_R   0.613976 0.898091 0.525163 0.259584
C39   C     C_R   0.388756 0.100969 0.463739 0.259478
C40   C     C_R   0.010084 0.427966 0.831990 0.407586
C41   C     C_R   0.006324 0.583755 0.167329 0.405870
C42   C     C_R   0.709657 0.667022 0.417171 -0.071852
C43   C     C_R   0.283031 0.323476 0.578005 -0.096164
C44   C     C_R   0.793051 0.640728 0.428847 0.390175
C45   C     C_R   0.009321 0.425859 0.882418 0.031543
C46   C     C_R   0.207879 0.360599 0.571652 0.390924
C47   C     C_R   0.713020 0.505918 0.491914 0.014429
C48   C     C_R   0.280662 0.485594 0.503705 0.014370
C49   C     C_R   0.624415 0.529137 0.478988 0.009621
C50   C     C_R   0.364778 0.456024 0.513146 0.016103
C51   C     C_R   0.626425 0.612949 0.441444 0.016624
C52   C     C_R   0.361835 0.371201 0.550179 0.021432
C53   C     C_R   0.534705 0.474017 0.501903 0.043458
C54   C     C_R   0.451934 0.507513 0.488144 0.046028
C55   C     C_R   0.460104 0.592641 0.450735 -0.094115
C56   C     C_R   0.003967 0.583837 0.116794 0.032207
C57   C     C_R   0.524493 0.386145 0.537624 -0.087800
C58   C     C_R   0.545440 0.643621 0.427648 -0.073724
C59   C     C_R   0.439516 0.335830 0.561180 -0.066613
C60   C     C_R   0.981222 0.580807 0.808453 0.430659
C61   C     C_R   0.993533 0.413056 0.188817 0.431528
C62   C     C_R   0.089457 0.531558 0.727935 -0.035345
C63   C     C_R   0.080046 0.489332 0.290062 -0.045640
C64   C     C_R   0.090596 0.531009 0.677993 -0.095158
C65   C     C_R   0.079733 0.488926 0.340203 -0.134404
C66   C     C_R   0.908414 0.477094 0.661957 -0.131317
C67   C     C_R   0.025575 0.348625 0.919060 -0.088810
C68   C     C_R   0.921228 0.512155 0.317755 -0.107743
C69   C     C_R   0.907417 0.478148 0.711816 -0.044895
C70   C     C_R   0.921416 0.511946 0.267664 -0.041223
C71   C     C_R   0.997827 0.504773 0.745010 0.230650
C72   C     C_R   0.000771 0.500492 0.253567 0.226438
C73   C     C_R   0.007761 0.669816 0.081140 -0.088304
C74   C     C_R   0.976051 0.580978 0.858830 0.007558
Cu1   Cu    Cu3+1 0.081740 0.475690 0.513040 1.048537
Cu2   Cu    Cu3+1 0.918260 0.524310 0.486960 1.044948
H1    H     H_    0.837623 0.455418 0.636921 0.129895
H2    H     H_    0.539164 0.202903 0.461254 0.167977
H3    H     H_    0.548423 0.708790 0.398805 0.129942
H4    H     H_    0.435455 0.269233 0.589168 0.125678
H5    H     H_    0.274235 0.545522 0.473922 0.121464
H6    H     H_    0.718495 0.445466 0.521632 0.119965
H7    H     H_    0.709215 0.730924 0.387982 0.167529
H8    H     H_    0.284903 0.260870 0.607556 0.159700
H9    H     H_    0.401812 0.622237 0.438341 0.096274
H10   H     H_    0.580936 0.353985 0.548136 0.094006
H11   H     H_    0.836421 0.457680 0.724808 0.145991
H12   H     H_    0.858959 0.520972 0.327677 0.176470
H13   H     H_    0.859592 0.520158 0.239771 0.155566
H14   H     H_    0.040347 0.290095 0.909284 0.182309
H15   H     H_    0.014157 0.738018 0.091944 0.183584
H16   H     H_    0.141874 0.480070 0.367655 0.140742
H17   H     H_    0.162283 0.554625 0.665089 0.171662
H18   H     H_    0.141884 0.480839 0.279504 0.154893
H19   H     H_    0.159691 0.553406 0.753321 0.149138
H20   H     H_    0.985936 0.259943 0.061083 0.164376
H21   H     H_    0.942286 0.709702 0.934262 0.165020
H22   H     H_    0.040758 0.285235 0.994927 0.131751
H23   H     H_    0.316352 0.759386 0.499663 0.128661
H24   H     H_    0.009547 0.740175 0.005993 0.131210
H25   H     H_    0.988335 0.270180 0.640924 0.364748
H26   H     H_    0.030298 0.760943 0.365875 0.366296
H27   H     H_    0.083038 0.173809 0.232537 0.391732
H28   H     H_    0.984351 0.877126 0.775962 0.389666
H29   H     H_    0.591971 0.635210 0.567945 0.375399
H30   H     H_    0.411612 0.362279 0.413242 0.373954
H31   H     H_    0.682670 0.238201 0.498243 0.123711
H32   H     H_    0.070539 0.853311 0.470488 0.196727
H33   H     H_    0.932136 0.148442 0.529091 0.174878
H34   H     H_    0.819991 0.973279 0.536053 0.206879
H35   H     H_    0.183619 0.028069 0.457515 0.210281
H36   H     H_    0.464327 0.794763 0.525331 0.167222
N1    N     N_R   0.996409 0.504547 0.796432 -0.412846
N2    N     N_R   0.000433 0.499201 0.201992 -0.410525
N3    N     N_R   0.795430 0.560780 0.467350 -0.258671
N4    N     N_R   0.204570 0.439220 0.532650 -0.254045
O1    O     O_R   0.977900 0.338120 0.517190 -0.448641
O2    O     O_2   0.014690 0.667843 0.181882 -0.466789
O3    O     O_2   0.982429 0.330955 0.224619 -0.383279
O4    O     O_2   0.973991 0.656662 0.771588 -0.378536
O5    O     O_2   0.154714 0.223268 0.655074 -0.271710
O6    O     O_2   0.179788 0.395873 0.655313 -0.285041
O7    O     O_3   0.012861 0.280875 0.608869 -0.504807
O8    O     O_2   0.832357 0.717647 0.335799 -0.281013
O9    O     O_2   0.917430 0.827422 0.398015 -0.290857
O10   O     O_3   0.991824 0.704361 0.390279 -0.501966
O11   O     O_2   0.896879 0.159063 0.186049 -0.200051
O12   O     O_R   0.022100 0.661880 0.482810 -0.437172
O13   O     O_2   0.001008 0.139474 0.135697 -0.267001
O14   O     O_3   0.092625 0.238466 0.209162 -0.456922
O15   O     O_2   0.828799 0.697487 0.793371 -0.207879
O16   O     O_2   0.882983 0.802517 0.858101 -0.267973
O17   O     O_3   0.012973 0.832543 0.801308 -0.448468
O18   O     O_2   0.714868 0.797296 0.508580 -0.296332
O19   O     O_2   0.725865 0.813459 0.595551 -0.244435
O20   O     O_3   0.560240 0.685241 0.555112 -0.538708
O21   O     O_2   0.275066 0.178625 0.390740 -0.247950
O22   O     O_2   0.290506 0.208768 0.475554 -0.308717
O23   O     O_R   0.839850 0.379180 0.495160 -0.535007
O24   O     O_3   0.442866 0.311910 0.426407 -0.539798
O25   O     O_R   0.160150 0.620820 0.504840 -0.529859
O26   O     O_R   0.069030 0.479490 0.580750 -0.427375
O27   O     O_R   0.930970 0.520510 0.419250 -0.443120
O28   O     O_R   0.930970 0.520550 0.558720 -0.519525
O29   O     O_R   0.069030 0.479450 0.441280 -0.526482
O30   O     O_2   0.024303 0.353873 0.818410 -0.460349
S1    S     S_3+6 0.138124 0.314765 0.623510 0.056955
S2    S     S_3+6 0.886149 0.721871 0.388609 0.041390
S3    S     S_3+6 0.993272 0.210691 0.163448 0.083071
S4    S     S_3+6 0.915864 0.747698 0.831011 0.081947
S5    S     S_3+6 0.657270 0.797656 0.546594 -0.003096
S6    S     S_3+6 0.345793 0.200980 0.438587 -0.009539

loop_
_geom_bond_atom_site_label_1
_geom_bond_atom_site_label_2
_ccdc_geom_bond_type
C11   H20   S    
C65   H16   S    
C21   C26   A    
C63   C65   A    
C34   C56   A    
C36   H36   S    
C23   C45   A    
C29   C33   A    
C61   O3    S    
O16   S4    D    
C17   O29   A    
C35   C36   A    
Cu1   O1    S    
C41   N2    A    
C47   C49   A    
C3    C64   A    
Cu1   O29   S    
C47   N3    A    
O8    S2    D    
C63   H18   S    
C50   C54   A    
C30   C35   A    
C48   H5    S    
C52   C59   A    
C24   C26   A    
C64   H17   S    
C5    C11   A    
C4    C65   A    
C11   C14   A    
O19   S5    D    
C43   C52   A    
C57   C59   A    
C66   C69   A    
C27   C29   A    
C20   C25   A    
C72   N2    S    
Cu2   N3    S    
C57   H10   S    
C71   N1    S    
C47   H6    S    
C60   C74   A    
C69   C71   A    
C62   C64   A    
Cu1   O25   S    
C33   C35   A    
C46   S1    S    
C44   N3    A    
C49   C51   A    
C22   C25   A    
C45   C67   A    
C50   C52   A    
O5    S1    D    
O21   S6    D    
C41   O2    S    
O24   S6    S    
C1    O23   A    
C2    C61   A    
C25   H33   S    
C42   C51   A    
C48   N4    A    
C2    C34   A    
C48   C50   A    
C62   H19   S    
C43   H8    S    
C60   N1    A    
C24   H35   S    
C42   C44   A    
H27   O14   S    
C40   C45   A    
C37   C39   A    
C22   C31   A    
C42   H7    S    
C19   C73   A    
C73   H15   S    
H28   O17   S    
C26   H32   S    
C4    C68   A    
O10   S2    S    
C22   H34   S    
C18   C67   A    
C53   C54   A    
C39   S6    S    
C67   H14   S    
C33   C37   A    
C55   H9    S    
C16   O26   A    
Cu1   Cu2   S    
C24   C32   A    
C41   C56   A    
C5    C9    A    
Cu1   O26   S    
H30   O24   S    
C40   N1    A    
C27   H31   S    
O14   S3    S    
C51   C58   A    
C1    O1    A    
O6    S1    D    
C58   H3    S    
H25   O7    S    
H29   O20   S    
C4    C17   S    
Cu2   O28   S    
C28   H23   S    
C8    C10   A    
C21   C28   A    
O7    S1    S    
C7    C19   A    
C13   C15   A    
C9    C34   A    
C68   H12   S    
C3    C66   A    
C23   C74   A    
C38   S5    S    
O20   S5    S    
Cu2   O23   S    
C7    C9    A    
C66   H1    S    
C54   C55   A    
C1    C20   S    
C53   C57   A    
C56   C73   A    
C16   O28   A    
O17   S4    S    
H26   O10   S    
O9    S2    D    
C69   H11   S    
C59   H4    S    
C6    C10   A    
C5    C8    A    
C19   H24   S    
C6    C7    A    
C12   O12   A    
C20   C27   A    
C40   O30   S    
C10   C23   A    
C37   H2    S    
C31   C38   A    
C46   N4    A    
C17   O27   A    
O22   S6    D    
C36   C38   A    
C12   O25   A    
C29   C31   A    
O11   S3    D    
C6    C13   A    
C30   C32   A    
C49   C53   A    
O18   S5    D    
C12   C21   S    
C14   S3    S    
C28   C30   A    
C44   S2    S    
C62   C71   A    
C60   O4    S    
C13   H21   S    
C2    C14   A    
C43   C46   A    
C8    C18   A    
C70   H13   S    
Cu2   O27   S    
C15   C74   A    
C63   C72   A    
C68   C70   A    
C55   C58   A    
C61   N2    A    
C32   C39   A    
O15   S4    D    
C70   C72   A    
Cu1   N4    S    
C18   H22   S    
O13   S3    D    
C15   S4    S    
C3    C16   S    
Cu2   O12   S    
