data_mof_unit_446.cif
_audit_creation_date              2013-03-05T16:50:03-0500
_audit_creation_method            fapswitch 2.2
_symmetry_space_group_name_H-M    P1
_symmetry_Int_Tables_number       1
_space_group_crystal_system       triclinic
_cell_length_a                    27.826226
_cell_length_b                    10.836938
_cell_length_c                    26.500387
_cell_angle_alpha                 91.375905
_cell_angle_beta                  89.351107
_cell_angle_gamma                 89.057902
_cell_volume                      7987.28741801

loop_
_atom_site_label
_atom_site_type_symbol
_atom_site_description
_atom_site_fract_x
_atom_site_fract_y
_atom_site_fract_z
_atom_type_partial_charge
O1    O     O_R   0.500000 0.319660 0.542350 -0.602172
O2    O     O_R   0.500000 0.680340 0.457650 -0.603782
O3    O     O_R   0.500000 0.319630 0.457650 -0.519611
O4    O     O_R   0.500000 0.680370 0.542350 -0.534402
C1    C     C_R   0.498030 0.262214 0.499441 0.784063
C2    C     C_R   0.499463 0.738246 0.500805 0.800770
O5    O     O_R   0.430260 0.500030 0.542340 -0.541975
O6    O     O_R   0.569740 0.499970 0.457660 -0.561305
O7    O     O_R   0.430270 0.500010 0.457650 -0.578542
O8    O     O_R   0.569730 0.499990 0.542350 -0.581265
C3    C     C_R   0.407409 0.498122 0.500280 0.866772
C4    C     C_R   0.592848 0.498046 0.499958 0.881918
Cu1   Cu    Cu3+1 0.500000 0.500020 0.550150 0.992479
Cu2   Cu    Cu3+1 0.500000 0.499980 0.449850 0.987106
O9    O     O_2   0.462703 0.685441 0.788092 -0.539312
O10   O     O_2   0.505810 0.305531 0.211098 -0.554034
C5    C     C_R   0.476075 0.736736 0.053676 -0.013741
C6    C     C_R   0.568376 0.355171 0.948551 -0.021662
C7    C     C_R   0.179720 0.379317 0.508713 0.614541
C8    C     C_R   0.821182 0.572028 0.510136 0.612773
O11   O     O_2   0.206566 0.275312 0.501923 -0.548190
O12   O     O_2   0.795141 0.675948 0.502476 -0.553471
N1    N     N_R   0.201691 0.491315 0.508524 -0.422142
N2    N     N_R   0.798566 0.460788 0.510949 -0.419571
C9    C     C_R   0.175423 0.598910 0.508366 0.601541
C10   C     C_R   0.824407 0.352430 0.511584 0.600370
C11   C     C_R   0.276921 0.549614 0.467411 -0.255230
C12   C     C_R   0.722381 0.397135 0.472889 -0.263300
C13   C     C_R   0.327047 0.556164 0.465606 0.352696
C14   C     C_R   0.672099 0.402234 0.470752 0.329128
C15   C     C_R   0.330952 0.430990 0.540645 0.242745
C16   C     C_R   0.671305 0.557784 0.538319 0.262749
C17   C     C_R   0.280803 0.442034 0.546809 -0.021895
C18   C     C_R   0.719877 0.529358 0.547906 -0.034335
C19   C     C_R   0.253431 0.495733 0.508121 0.219506
C20   C     C_R   0.746681 0.459637 0.511419 0.224238
C21   C     C_R   0.101745 0.482101 0.513841 -0.166618
C22   C     C_R   0.898577 0.467971 0.515671 -0.166368
C23   C     C_R   0.129560 0.372564 0.516168 -0.129848
C24   C     C_R   0.871128 0.578468 0.517506 -0.126054
C25   C     C_R   0.107117 0.260802 0.528297 0.432308
C26   C     C_R   0.893697 0.691463 0.528909 0.435793
C27   C     C_R   0.124880 0.596186 0.507490 -0.114537
C28   C     C_R   0.875102 0.353622 0.510262 -0.115782
C29   C     C_R   0.354515 0.493991 0.501631 -0.227343
C30   C     C_R   0.646145 0.489206 0.501335 -0.225911
C31   C     C_R   0.976905 0.360095 0.516163 0.003723
C32   C     C_R   0.023338 0.588853 0.514790 0.005344
C33   C     C_R   0.972628 0.586971 0.522588 -0.068610
C34   C     C_R   0.027778 0.363087 0.522635 -0.068355
C35   C     C_R   0.949441 0.471747 0.518471 0.084076
C36   C     C_R   0.050879 0.477859 0.517348 0.084276
C37   C     C_R   0.952892 0.249800 0.504200 -0.294962
C38   C     C_R   0.047064 0.697377 0.501393 -0.298575
C39   C     C_R   0.902930 0.244759 0.502673 0.466555
C40   C     C_R   0.096928 0.703258 0.499396 0.470232
O13   O     O_2   0.801077 0.244556 0.514061 -0.530628
O14   O     O_2   0.198302 0.707757 0.509448 -0.525817
C41   C     C_R   0.056569 0.256473 0.533303 -0.128141
C42   C     C_R   0.944120 0.695491 0.533350 -0.129711
H1    H     H_    0.742344 0.340473 0.445426 0.175016
H2    H     H_    0.256031 0.590263 0.437622 0.170306
H3    H     H_    0.972375 0.165767 0.494047 0.188729
H4    H     H_    0.027401 0.779328 0.490900 0.185859
H5    H     H_    0.432876 0.255366 0.278599 0.169548
H6    H     H_    0.531978 0.783427 0.735695 0.172487
C43   C     C_R   0.417232 0.245469 0.358041 -0.141381
C44   C     C_R   0.557561 0.780205 0.658909 -0.151569
H7    H     H_    0.386697 0.308446 0.356772 0.148367
H8    H     H_    0.588915 0.723685 0.666699 0.151903
C45   C     C_R   0.430444 0.193869 0.403771 -0.098501
C46   C     C_R   0.549485 0.820371 0.609996 -0.085836
H9    H     H_    0.409563 0.217058 0.437450 0.089470
H10   H     H_    0.574220 0.794021 0.580173 0.160372
C47   C     C_R   0.470565 0.113451 0.406012 0.150322
C48   C     C_R   0.508854 0.892326 0.599042 0.145896
C49   C     C_R   0.496087 0.082403 0.361273 -0.111160
C50   C     C_R   0.476675 0.925875 0.638544 -0.117220
H11   H     H_    0.526898 0.020080 0.361972 0.132294
H12   H     H_    0.445527 0.983352 0.631453 0.132893
C51   C     C_R   0.482544 0.133649 0.315535 -0.072451
C52   C     C_R   0.484737 0.885877 0.687576 -0.079575
H13   H     H_    0.502620 0.110158 0.281336 0.177215
H14   H     H_    0.459746 0.911924 0.717719 0.157636
C53   C     C_R   0.443267 0.215450 0.313965 -0.096225
C54   C     C_R   0.525306 0.813419 0.697754 -0.085176
C55   C     C_R   0.487838 0.931096 0.456908 -0.261198
C56   C     C_R   0.501781 0.070364 0.544814 -0.262855
H15   H     H_    0.481283 0.877248 0.422750 0.163736
H16   H     H_    0.507938 0.124071 0.579135 0.173456
C57   C     C_R   0.497311 0.872341 0.502437 -0.084187
C58   C     C_R   0.494547 0.128794 0.498932 -0.091506
C59   C     C_R   0.502285 0.943191 0.547781 -0.004340
C60   C     C_R   0.484970 0.058697 0.454650 0.007144
H17   H     H_    0.426569 0.737136 0.870287 0.183003
H18   H     H_    0.523966 0.221596 0.128004 0.185281
C61   C     C_R   0.482110 0.627637 0.188797 0.535173
C62   C     C_R   0.529356 0.405759 0.813689 0.565441
O15   O     O_2   0.475155 0.732377 0.216516 -0.529285
O16   O     O_2   0.546358 0.304161 0.788672 -0.517975
N3    N     N_R   0.491649 0.520154 0.213521 -0.441614
N4    N     N_R   0.505077 0.494744 0.787367 -0.450123
C63   C     C_R   0.500678 0.412573 0.186582 0.634673
C64   C     C_R   0.482501 0.591086 0.813342 0.608777
C65   C     C_R   0.537353 0.475908 0.291479 0.329112
C66   C     C_R   0.458895 0.507278 0.706847 0.328990
C67   C     C_R   0.537155 0.455955 0.344084 0.020712
C68   C     C_R   0.459740 0.529534 0.654557 0.068568
C69   C     C_R   0.461145 0.554922 0.352533 -0.004953
C70   C     C_R   0.541281 0.465082 0.649284 -0.002561
C71   C     C_R   0.457335 0.561812 0.299857 -0.321636
C72   C     C_R   0.543976 0.464682 0.702210 -0.308507
C73   C     C_R   0.495441 0.520558 0.268441 0.262895
C74   C     C_R   0.502613 0.486893 0.732158 0.221283
C75   C     C_R   0.496072 0.521123 0.107451 -0.070992
C76   C     C_R   0.506727 0.507759 0.893618 -0.074347
C77   C     C_R   0.481786 0.629904 0.134730 -0.039336
C78   C     C_R   0.534848 0.417389 0.867146 -0.027393
C79   C     C_R   0.471371 0.738370 0.107142 -0.103977
C80   C     C_R   0.567902 0.344583 0.894923 -0.100194
C81   C     C_R   0.505457 0.412387 0.133627 -0.080465
C82   C     C_R   0.479560 0.593116 0.866443 -0.080412
N5    N     N_R   0.500000 0.499970 0.374520 -0.191666
N6    N     N_R   0.500000 0.500030 0.625480 -0.195851
H19   H     H_    0.432072 0.592214 0.375640 0.195412
H20   H     H_    0.573307 0.440845 0.627759 0.169777
H21   H     H_    0.424788 0.599244 0.283758 0.195316
H22   H     H_    0.578351 0.447075 0.719572 0.207928
C83   C     C_R   0.478596 0.607375 0.973274 0.023534
C84   C     C_R   0.521372 0.415673 0.027669 0.018389
C85   C     C_R   0.531879 0.425652 0.974747 0.073188
C86   C     C_R   0.484635 0.622854 0.026708 0.077648
C87   C     C_R   0.505752 0.513542 0.947198 -0.044634
C88   C     C_R   0.500533 0.519810 0.053972 -0.041604
C89   C     C_R   0.444710 0.677970 0.945822 0.507233
C90   C     C_R   0.528794 0.304081 0.054130 0.494655
C91   C     C_R   0.448544 0.676469 0.892425 -0.267030
C92   C     C_R   0.519410 0.304475 0.106799 -0.279485
C93   C     C_2   0.417679 0.595468 0.634264 0.508980
H23   H     H_    0.381604 0.569202 0.645051 0.071862
O17   O     O_2   0.422831 0.685276 0.608000 -0.552859
C94   C     C_2   0.575081 0.375942 0.363578 0.516458
H24   H     H_    0.612173 0.387340 0.351875 0.064141
O18   O     O_2   0.564712 0.289095 0.389513 -0.526811
C95   C     C_2   0.035273 0.146146 0.556784 0.367607
H25   H     H_    0.003841 0.157004 0.581212 0.097495
O19   O     O_2   0.051776 0.042455 0.548391 -0.486788
C96   C     C_2   0.965608 0.808623 0.556126 0.367821
H26   H     H_    0.996861 0.800411 0.580027 0.100372
O20   O     O_2   0.949517 0.911504 0.547656 -0.491838
O21   O     O_3   0.408401 0.741056 0.973650 -0.622839
C97   C     C_3   0.371654 0.797759 0.945475 0.043994
H27   H     H_    0.339397 0.806404 0.970471 0.175879
H28   H     H_    0.359827 0.739734 0.912887 0.132270
C98   C     C_3   0.385818 0.928729 0.931034 -0.330113
H29   H     H_    0.389209 0.986724 0.965946 0.227305
H30   H     H_    0.421208 0.927544 0.911269 0.240737
C99   C     C_3   0.348342 0.987188 0.897062 -0.906318
H31   H     H_    0.345345 0.932303 0.861320 0.263177
H32   H     H_    0.359242 0.082229 0.887839 0.259829
H33   H     H_    0.312760 0.992111 0.916500 0.258018
O22   O     O_3   0.540667 0.196906 0.025698 -0.627163
C100  C     C_3   0.557367 0.094194 0.053045 0.049085
H34   H     H_    0.562255 0.016594 0.025383 0.215883
H35   H     H_    0.529885 0.062282 0.080186 0.117361
C101  C     C_3   0.606849 0.114311 0.076982 -0.345992
H36   H     H_    0.634361 0.123147 0.046656 0.232331
H37   H     H_    0.607127 0.199961 0.100726 0.244649
C102  C     C_3   0.620859 0.005641 0.109649 -0.906331
H38   H     H_    0.594516 0.996592 0.141114 0.259609
H39   H     H_    0.656950 0.021007 0.125869 0.265423
H40   H     H_    0.622074 0.918529 0.086659 0.262787
O23   O     O_3   0.356497 0.353625 0.571791 -0.628753
C103  C     C_3   0.362810 0.237297 0.546673 0.049975
H41   H     H_    0.398369 0.234652 0.527307 0.138356
H42   H     H_    0.334634 0.217168 0.517927 0.145844
C104  C     C_3   0.361496 0.134837 0.585159 -0.345075
H43   H     H_    0.391499 0.146896 0.611992 0.219167
H44   H     H_    0.327012 0.140973 0.606651 0.218233
C105  C     C_3   0.365621 0.007448 0.559346 -0.907024
H45   H     H_    0.334512 0.991877 0.534200 0.255860
H46   H     H_    0.365884 0.935048 0.588283 0.278522
H47   H     H_    0.399307 0.999017 0.536640 0.265838
O24   O     O_3   0.648933 0.655216 0.564367 -0.626608
C106  C     C_3   0.663407 0.768136 0.542879 0.007928
H48   H     H_    0.633284 0.803951 0.519944 0.151717
H49   H     H_    0.695397 0.760079 0.516995 0.170931
C107  C     C_3   0.675331 0.861978 0.584970 -0.347084
H50   H     H_    0.647868 0.860679 0.615540 0.231209
H51   H     H_    0.710411 0.836888 0.601602 0.210390
C108  C     C_3   0.678271 0.992831 0.565370 -0.901785
H52   H     H_    0.707524 0.998371 0.536737 0.261839
H53   H     H_    0.686246 0.057835 0.597085 0.269508
H54   H     H_    0.643525 0.021099 0.548527 0.248155
C109  C     C_2   0.454881 0.854577 0.133001 0.461810
H55   H     H_    0.476308 0.936995 0.130823 0.016306
O25   O     O_2   0.416275 0.859514 0.155378 -0.491163
C110  C     C_2   0.605811 0.267965 0.868845 0.448570
H56   H     H_    0.612774 0.174165 0.880557 0.048664
O26   O     O_2   0.630901 0.311056 0.835745 -0.498809
C111  C     C_2   0.258355 0.398436 0.594162 0.399061
H57   H     H_    0.277112 0.332325 0.617239 0.089442
O27   O     O_2   0.219736 0.440477 0.609368 -0.570298
C112  C     C_2   0.740999 0.570149 0.596719 0.389482
H58   H     H_    0.721178 0.632881 0.622001 0.094745
O28   O     O_2   0.779346 0.528056 0.610952 -0.564793
O29   O     O_3   0.134506 0.154633 0.535320 -0.550151
C113  C     C_3   0.151169 0.153140 0.585539 0.125709
H59   H     H_    0.121108 0.132665 0.611907 0.140977
H60   H     H_    0.166939 0.242912 0.597313 0.162599
C114  C     C_3   0.189970 0.052316 0.589278 -0.264794
H61   H     H_    0.174164 0.961032 0.580099 0.268356
H62   H     H_    0.219199 0.069068 0.561450 0.242755
C115  C     C_3   0.211428 0.049774 0.641981 -0.939199
H63   H     H_    0.228445 0.139330 0.651370 0.253003
H64   H     H_    0.239342 0.975537 0.643299 0.270821
H65   H     H_    0.183062 0.031286 0.670510 0.267114
O30   O     O_3   0.866636 0.799277 0.535506 -0.552425
C116  C     C_3   0.850760 0.810814 0.586270 0.118819
H66   H     H_    0.881769 0.816415 0.612368 0.135010
H67   H     H_    0.828378 0.731156 0.596776 0.167710
C117  C     C_3   0.820367 0.928960 0.592441 -0.269511
H68   H     H_    0.842309 0.009519 0.582061 0.280502
H69   H     H_    0.789305 0.924013 0.566543 0.235520
C118  C     C_3   0.801931 0.947535 0.646568 -0.918391
H70   H     H_    0.780354 0.867379 0.658069 0.251292
H71   H     H_    0.778836 0.032027 0.649306 0.277023
H72   H     H_    0.832550 0.958544 0.672736 0.266394
C119  C     C_2   0.477794 0.856840 0.027245 0.366501
H73   H     H_    0.458060 0.937292 0.041899 0.061275
O31   O     O_2   0.502264 0.867721 0.989116 -0.561746
C120  C     C_2   0.612404 0.314701 0.975710 0.432308
H74   H     H_    0.634217 0.237232 0.961708 0.037965
O32   O     O_2   0.625677 0.370751 0.013449 -0.551691
O33   O     O_3   0.415847 0.519899 0.733497 -0.598320
C121  C     C_3   0.400658 0.402967 0.749580 0.042433
H75   H     H_    0.378945 0.418169 0.784683 0.176982
H76   H     H_    0.430908 0.339509 0.759534 0.146845
C122  C     C_3   0.368993 0.341821 0.709532 -0.378805
H77   H     H_    0.337948 0.403852 0.701487 0.236495
H78   H     H_    0.390112 0.326292 0.674072 0.224634
C123  C     C_3   0.350346 0.218248 0.727188 -0.899180
H79   H     H_    0.380796 0.152627 0.732851 0.256587
H80   H     H_    0.326168 0.178322 0.698301 0.251932
H81   H     H_    0.329717 0.230942 0.763120 0.261182
O34   O     O_3   0.576330 0.437951 0.261645 -0.599068
C124  C     C_3   0.612263 0.529011 0.263257 0.012331
H82   H     H_    0.647381 0.481122 0.256148 0.181493
H83   H     H_    0.614998 0.576874 0.300876 0.103679
C125  C     C_3   0.604352 0.623845 0.222036 -0.330106
H84   H     H_    0.598668 0.575296 0.185201 0.236278
H85   H     H_    0.571946 0.681074 0.231566 0.229122
C126  C     C_3   0.647136 0.709190 0.217252 -0.893107
H86   H     H_    0.653124 0.759604 0.253576 0.253737
H87   H     H_    0.639891 0.777582 0.187614 0.262603
H88   H     H_    0.680102 0.655222 0.206454 0.260041
O35   O     O_3   0.648950 0.324641 0.437371 -0.599362
C127  C     C_3   0.649462 0.202353 0.455366 0.099186
H89   H     H_    0.613987 0.185158 0.473394 0.165259
H90   H     H_    0.677785 0.183658 0.483859 0.137163
C128  C     C_3   0.657527 0.111454 0.410797 -0.299935
H91   H     H_    0.631380 0.130598 0.380569 0.252688
H92   H     H_    0.694266 0.123404 0.394941 0.206515
C129  C     C_3   0.651896 0.977875 0.426527 -0.949898
H93   H     H_    0.680532 0.952171 0.453251 0.261868
H94   H     H_    0.655129 0.915623 0.392724 0.259215
H95   H     H_    0.616084 0.964785 0.444427 0.258900
O36   O     O_3   0.349049 0.619980 0.427434 -0.608963
C130  C     C_3   0.344977 0.747696 0.439076 0.049632
H96   H     H_    0.367174 0.771259 0.472608 0.150586
H97   H     H_    0.306886 0.776433 0.446963 0.164895
C131  C     C_3   0.363009 0.820036 0.394128 -0.326709
H98   H     H_    0.402166 0.802597 0.388513 0.210408
H99   H     H_    0.344153 0.788827 0.359454 0.236189
C132  C     C_3   0.353891 0.958127 0.402398 -0.910448
H100  H     H_    0.314799 0.978252 0.407084 0.260863
H101  H     H_    0.367223 0.007779 0.369037 0.273637
H102  H     H_    0.372922 0.991643 0.436559 0.253078
O37   O     O_3   0.881924 0.131141 0.495117 -0.545742
C133  C     C_3   0.876520 0.109333 0.442767 0.077212
H103  H     H_    0.912202 0.106194 0.423178 0.121635
H104  H     H_    0.853562 0.182836 0.426120 0.132880
C134  C     C_3   0.852400 0.984938 0.434492 -0.223962
H105  H     H_    0.876565 0.910275 0.447887 0.260805
H106  H     H_    0.818249 0.983437 0.456667 0.251227
C135  C     C_3   0.841555 0.960557 0.378881 -0.959127
H107  H     H_    0.816398 0.032360 0.364917 0.257026
H108  H     H_    0.824573 0.869030 0.374245 0.272130
H109  H     H_    0.875265 0.960448 0.356020 0.257499
O38   O     O_3   0.117752 0.816290 0.491494 -0.536176
C136  C     C_3   0.121972 0.833995 0.439041 0.078438
H110  H     H_    0.085828 0.836866 0.421322 0.122418
H111  H     H_    0.144204 0.758493 0.420728 0.130644
C137  C     C_3   0.146479 0.957011 0.430413 -0.228925
H112  H     H_    0.123674 0.033329 0.446868 0.262467
H113  H     H_    0.181808 0.957534 0.449669 0.248567
C138  C     C_3   0.154375 0.979051 0.374303 -0.952388
H114  H     H_    0.177701 0.904759 0.357082 0.260282
H115  H     H_    0.172251 0.068980 0.369480 0.271914
H116  H     H_    0.119376 0.981518 0.354499 0.257771

loop_
_geom_bond_atom_site_label_1
_geom_bond_atom_site_label_2
_geom_bond_distance
_ccdc_geom_bond_type
C124  H83   1.116621 S    
C22   C24   1.409240 A    
C39   O37   1.382837 S    
C75   C81   1.403987 A    
C55   C57   1.403285 A    
C11   C13   1.398126 A    
C14   O35   1.378238 S    
N3    C73   1.460328 S    
C102  H38   1.111163 S    
C127  H90   1.117096 S    
C132  H100  1.110877 S    
C133  C134  1.527978 S    
C67   N5    1.376008 A    
C46   C48   1.399969 A    
C9    C27   1.407642 A    
C50   H12   1.079844 S    
C72   C74   1.404838 A    
C95   H25   1.085343 S    
C106  H48   1.111208 S    
C10   C28   1.410960 A    
C23   C25   1.413946 A    
C97   H28   1.112048 S    
C90   O22   1.401989 S    
O23   C103  1.418773 S    
O24   C106  1.424217 S    
C32   C38   1.409008 A    
C65   C67   1.415820 A    
N2    C20   1.443941 S    
C33   C42   1.428893 A    
C76   C82   1.402510 A    
C66   C74   1.412567 A    
C107  C108  1.524981 S    
O1    C1    1.285348 A    
C34   C41   1.430735 A    
C7    C23   1.410792 A    
C65   C73   1.406672 A    
C13   O36   1.381980 S    
C7    O11   1.349183 S    
C122  H77   1.111565 S    
C48   C50   1.406981 A    
H6    C54   1.081205 S    
O35   C127  1.419053 S    
C77   C79   1.426550 A    
H18   C92   1.077336 S    
C126  H86   1.110955 S    
C8    C24   1.408296 A    
C115  H64   1.110477 S    
C106  H49   1.118601 S    
C64   C82   1.408290 A    
C125  H85   1.109274 S    
C2    C57   1.453012 S    
C109  O25   1.220929 D    
C55   C60   1.386569 A    
C118  H72   1.110743 S    
C44   C54   1.394782 A    
C121  H75   1.110927 S    
C107  H51   1.108049 S    
O38   C136  1.411609 S    
C138  H114  1.111836 S    
C17   C111  1.486102 S    
O4    Cu1   1.970271 S    
C131  C132  1.523943 S    
C103  H41   1.109103 S    
C37   H3    1.079024 S    
O5    Cu1   1.953934 S    
O3    C1    1.284329 A    
C99   H33   1.110828 S    
C70   N6    1.369094 A    
C83   C89   1.422029 A    
C6    C80   1.423279 A    
C17   C19   1.414811 A    
C71   C73   1.401374 A    
C8    N2    1.369527 A    
C72   H22   1.082219 S    
C18   C112  1.487463 S    
C129  H93   1.108615 S    
C104  H44   1.110502 S    
C34   C36   1.418594 A    
O33   C121  1.416172 S    
C15   C17   1.405954 A    
C62   C78   1.429363 A    
C110  H56   1.084980 S    
O9    C64   1.348858 S    
C26   O30   1.385978 S    
O34   C124  1.416606 S    
C79   C109  1.482739 S    
C6    C120  1.492909 S    
C105  H47   1.109430 S    
C44   C46   1.396652 A    
C137  H112  1.111755 S    
C31   C37   1.410153 A    
C83   C86   1.434029 A    
C12   H1    1.083270 S    
C66   C68   1.412238 A    
C125  C126  1.525533 S    
C24   C26   1.413139 A    
N3    C63   1.370514 A    
C45   C47   1.407629 A    
Cu1   Cu2   2.657981 S    
C134  C135  1.525359 S    
C99   H32   1.110498 S    
C111  O27   1.220658 D    
C6    C85   1.424677 A    
C84   C88   1.423810 A    
N1    C19   1.441252 S    
C68   N6    1.381257 A    
C129  H95   1.111451 S    
C120  O32   1.221520 D    
C95   O19   1.221377 D    
O2    C2    1.291020 A    
C105  H46   1.110189 S    
C51   C53   1.397504 A    
O5    C3    1.289376 A    
C31   C34   1.428682 A    
C70   C72   1.405536 A    
C37   C39   1.393239 A    
C38   C40   1.390520 A    
C43   C53   1.396338 A    
C123  H81   1.110803 S    
H17   C91   1.078780 S    
C66   O33   1.386765 S    
C108  H52   1.109847 S    
C1    C58   1.450447 S    
C56   C58   1.399347 A    
C101  H37   1.108953 S    
C133  H103  1.114829 S    
C25   C41   1.412978 A    
C137  C138  1.525673 S    
C46   H10   1.072515 S    
C76   C78   1.411698 A    
C61   O15   1.347192 S    
C26   C42   1.410633 A    
C116  H66   1.113453 S    
C128  H92   1.111611 S    
C21   C36   1.418971 A    
C5    C119  1.493996 S    
C135  H107  1.110957 S    
C131  H98   1.110546 S    
C106  C107  1.534115 S    
C31   C35   1.420140 A    
C22   C35   1.419332 A    
C132  H102  1.110541 S    
C117  C118  1.525527 S    
C33   C35   1.417360 A    
C125  H84   1.111863 S    
C52   C54   1.397024 A    
C115  H65   1.110730 S    
O29   C113  1.414618 S    
C13   C29   1.407133 A    
C107  H50   1.107878 S    
C43   H7    1.082372 S    
C16   C18   1.408551 A    
C81   C92   1.400952 A    
C25   O29   1.387046 S    
C7    N1    1.368031 A    
O7    Cu2   1.948969 S    
C108  H53   1.110311 S    
C12   C20   1.398579 A    
C22   C28   1.415290 A    
C119  H73   1.084269 S    
N4    C74   1.465920 S    
C11   H2    1.083425 S    
C48   C59   1.490254 S    
C57   C59   1.419694 A    
O7    C3    1.290967 A    
C50   C52   1.398919 A    
O10   C63   1.349431 S    
C80   C110  1.485572 S    
C114  H61   1.111927 S    
C97   C98   1.535357 S    
C49   C51   1.398339 A    
O21   C97   1.413970 S    
C104  C105  1.527930 S    
C100  C101  1.539104 S    
C128  C129  1.526041 S    
C58   C60   1.412825 A    
C118  H70   1.110699 S    
C49   H11   1.083261 S    
C122  H78   1.110584 S    
C138  H115  1.110848 S    
C97   H27   1.110854 S    
C67   C94   1.461590 S    
N4    C64   1.375731 A    
C98   H30   1.109884 S    
C47   C49   1.406102 A    
C103  C104  1.526190 S    
C113  H59   1.112424 S    
C47   C60   1.488189 S    
O3    Cu2   1.970273 S    
O8    C4    1.287754 A    
C70   H20   1.078035 S    
C86   C88   1.412240 A    
C83   C87   1.418346 A    
C96   O20   1.221384 D    
C4    C30   1.485498 S    
C32   C33   1.424366 A    
C114  H62   1.111775 S    
C56   H16   1.084756 S    
C52   H14   1.082342 S    
C130  H97   1.115852 S    
C137  H113  1.112769 S    
C71   H21   1.082493 S    
C99   H31   1.110951 S    
C123  H80   1.109588 S    
C102  H40   1.111016 S    
C94   O18   1.215276 D    
C21   C27   1.415976 A    
C3    C29   1.473318 S    
O4    C2    1.280208 A    
O1    Cu1   1.960508 S    
C9    O14   1.349453 S    
C8    O12   1.349815 S    
C15   C29   1.413565 A    
C63   C81   1.408058 A    
C129  H94   1.110323 S    
C41   C95   1.489476 S    
C98   H29   1.111683 S    
C105  H45   1.111028 S    
C136  H110  1.115064 S    
C90   C92   1.416936 A    
C45   H9    1.081655 S    
O22   C100  1.417563 S    
C102  H39   1.110345 S    
C124  C125  1.532935 S    
C69   H19   1.076529 S    
C89   C91   1.417531 A    
C75   C77   1.416861 A    
C56   C59   1.382135 A    
C117  H69   1.110950 S    
O6    Cu2   1.953934 S    
Cu2   N5    1.996272 S    
C135  H109  1.110847 S    
C136  H111  1.115861 S    
C115  H63   1.110949 S    
C16   C30   1.414467 A    
C14   C30   1.412233 A    
C84   C90   1.425699 A    
N2    C10   1.367371 A    
C82   C91   1.402115 A    
C133  H104  1.115245 S    
C85   C87   1.411148 A    
O8    Cu1   1.948967 S    
C51   H13   1.082137 S    
C126  H88   1.110755 S    
C110  O26   1.221224 D    
C93   H23   1.085012 S    
C121  C122  1.532446 S    
C119  O31   1.221185 D    
H5    C53   1.081946 S    
C136  C137  1.528237 S    
C76   C87   1.419712 A    
C75   C88   1.420939 A    
C62   O16   1.347693 S    
C111  H57   1.084296 S    
C5    C86   1.426425 A    
C11   C19   1.399604 A    
C132  H101  1.109392 S    
C68   C93   1.474702 S    
C69   C71   1.404823 A    
C84   C85   1.436351 A    
O37   C133  1.411796 S    
C21   C23   1.409381 A    
C113  H60   1.113071 S    
C62   N4    1.376402 A    
C116  C117  1.527230 S    
C135  H108  1.110448 S    
C93   O17   1.219430 D    
C28   C39   1.409564 A    
C15   O23   1.384340 S    
O30   C116  1.413239 S    
C128  H91   1.109183 S    
C101  H36   1.110530 S    
C38   H4    1.079224 S    
C113  C114  1.529116 S    
C89   O21   1.402922 S    
C123  H79   1.111020 S    
C12   C14   1.401189 A    
C120  H74   1.083555 S    
C118  H71   1.110425 S    
C103  H42   1.119734 S    
C121  H76   1.116127 S    
Cu1   N6    1.996272 S    
C122  C123  1.526066 S    
C43   C45   1.397271 A    
C96   H26   1.085370 S    
N1    C9    1.366057 A    
C61   C77   1.433722 A    
C117  H68   1.111692 S    
O2    Cu2   1.960508 S    
C10   O13   1.349090 S    
C78   C80   1.424657 A    
C65   O34   1.385955 S    
C108  H54   1.111058 S    
C100  H34   1.107897 S    
C134  H106  1.112190 S    
C5    C79   1.421074 A    
C109  H55   1.084337 S    
C127  C128  1.531844 S    
C40   O38   1.383090 S    
C27   C40   1.408335 A    
C32   C36   1.418979 A    
C114  C115  1.525816 S    
C112  H58   1.082888 S    
C18   C20   1.411433 A    
C101  C102  1.526344 S    
C131  H99   1.111700 S    
C104  H43   1.110100 S    
C126  H87   1.110608 S    
C130  C131  1.526207 S    
C127  H89   1.112237 S    
C134  H105  1.110919 S    
C55   H15   1.083996 S    
C94   H24   1.084216 S    
C100  H35   1.109000 S    
C69   N5    1.368524 A    
C42   C96   1.490530 S    
C16   O24   1.382937 S    
C130  H96   1.114932 S    
C44   H8    1.082364 S    
C112  O28   1.220788 D    
C116  H67   1.111697 S    
C61   N3    1.373645 A    
O6    C4    1.298988 A    
C124  H82   1.110935 S    
O36   C130  1.413207 S    
C98   C99   1.525201 S    
C138  H116  1.111764 S    
