data_mof_unit_2101.cif
_audit_creation_date              2012-12-10T17:33:04-0500
_audit_creation_method            fapswitch 2.2
_symmetry_space_group_name_H-M    P1
_symmetry_Int_Tables_number       1
_space_group_crystal_system       triclinic
_cell_length_a                    12.35345
_cell_length_b                    13.267895
_cell_length_c                    14.273155
_cell_angle_alpha                 93.286467
_cell_angle_beta                  107.638074
_cell_angle_gamma                 117.023432
_cell_volume                      1932.94119641

loop_
_atom_site_label
_atom_site_type_symbol
_atom_type_description
_atom_site_fract_x
_atom_site_fract_y
_atom_site_fract_z
_atom_type_partial_charge
C1    C     C_R   0.650826 0.714044 0.508590 0.779367
C2    C     C_R   0.220081 0.511004 0.012709 0.165722
C3    C     C_R   0.164508 0.519593 0.084289 0.088711
C4    C     C_R   0.619736 0.518584 0.686834 0.797560
C5    C     C_R   0.327645 0.492554 0.039892 -0.200308
C6    C     C_R   0.380323 0.481753 0.137434 -0.200769
C7    C     C_R   0.215307 0.502611 0.180315 -0.248766
C8    C     C_R   0.139478 0.966676 0.362566 -0.189744
C9    C     C_R   0.248884 0.162351 0.463060 -0.050522
C10   C     C_R   0.730525 0.921047 0.574027 -0.186841
C11   C     C_R   0.820716 0.037943 0.592792 -0.143741
C12   C     C_R   0.881378 0.547470 0.924666 0.089819
C13   C     C_R   0.921546 0.072587 0.556499 -0.182434
C14   C     C_R   0.931378 0.990168 0.496871 0.079669
C15   C     C_R   0.829827 0.872732 0.467571 0.082325
C16   C     C_R   0.345217 0.285288 0.484942 0.804611
C17   C     C_R   0.037972 0.020644 0.464521 0.073950
C18   C     C_R   0.034782 0.937231 0.395177 0.168079
C19   C     C_R   0.926052 0.826238 0.357544 -0.240534
C20   C     C_R   0.824296 0.794729 0.392167 -0.199136
C21   C     C_R   0.148772 0.131450 0.500171 -0.253514
C22   C     C_R   0.245842 0.079199 0.395821 -0.193919
C23   C     C_R   0.835490 0.570212 0.998722 0.170178
C24   C     C_R   0.735755 0.837213 0.513779 -0.102477
C25   C     C_R   0.253847 0.685139 0.661601 -0.305284
C26   C     C_R   0.654786 0.342243 0.363735 0.067962
C27   C     C_R   0.732545 0.307922 0.333533 -0.251779
C28   C     C_R   0.382602 0.484690 0.313485 0.792280
C29   C     C_R   0.867880 0.367296 0.384587 -0.195428
C30   C     C_R   0.927866 0.462585 0.467153 -0.007415
C31   C     C_R   0.843813 0.494849 0.495300 0.290908
C32   C     C_R   0.067455 0.526833 0.522823 -0.037287
C33   C     C_R   0.119022 0.621141 0.605161 0.177576
C34   C     C_R   0.998243 0.540663 0.954488 0.064142
C35   C     C_R   0.036034 0.651449 0.630952 -0.297801
C36   C     C_R   0.902053 0.590086 0.577358 -0.195614
C37   C     C_R   0.159326 0.502262 0.501088 0.013074
C38   C     C_R   0.338298 0.656485 0.636516 0.062688
C39   C     C_R   0.691986 0.536015 0.794481 -0.051456
C40   C     C_R   0.324229 0.486972 0.208120 -0.051169
C41   C     C_R   0.721650 0.579176 0.970354 -0.202514
C42   C     C_R   0.650718 0.562947 0.868795 -0.196253
C43   C     C_R   0.805799 0.527755 0.822768 -0.262241
C44   C     C_R   0.058179 0.541979 0.056997 0.066118
C45   C     C_R   0.011421 0.567758 0.129043 -0.225546
C46   C     C_R   0.902927 0.582801 0.100196 -0.235321
C47   C     C_R   0.058111 0.534209 0.885672 -0.228134
C48   C     C_R   0.167850 0.520933 0.914872 -0.232030
Cu1   Cu    Cu3+1 0.416420 0.526630 0.522910 0.931523
Cu2   Cu    Cu3+1 0.583580 0.473370 0.477090 0.920755
H1    H     H_    0.870052 0.602083 0.157661 0.137354
H2    H     H_    0.740024 0.709349 0.356754 0.172971
H3    H     H_    0.170144 0.499206 0.234672 0.149096
H4    H     H_    0.075160 0.723736 0.693837 0.157012
H5    H     H_    0.293769 0.757138 0.724890 0.139905
H6    H     H_    0.128592 0.432160 0.439744 0.121785
H7    H     H_    0.549974 0.295454 0.323466 0.123803
H8    H     H_    0.923091 0.336830 0.357991 0.136387
H9    H     H_    0.687639 0.234839 0.270202 0.146691
H10   H     H_    0.847762 0.620650 0.603464 0.207807
H11   H     H_    0.465247 0.470315 0.157648 0.151562
H12   H     H_    0.371590 0.487363 0.985880 0.130800
H13   H     H_    0.210917 0.516711 0.859925 0.146790
H14   H     H_    0.686945 0.597831 0.026735 0.130203
H15   H     H_    0.563085 0.570212 0.848504 0.149991
H16   H     H_    0.831569 0.502214 0.763604 0.157541
H17   H     H_    0.058935 0.580446 0.209138 0.146389
H18   H     H_    0.024968 0.542830 0.809121 0.154024
H19   H     H_    0.442314 0.705786 0.679975 0.120159
H20   H     H_    0.322779 0.102264 0.366039 0.148458
H21   H     H_    0.919758 0.763242 0.301325 0.137823
H22   H     H_    0.137372 0.903535 0.309330 0.137869
H23   H     H_    0.159717 0.196464 0.556606 0.147357
H24   H     H_    0.658079 0.896103 0.608712 0.152549
H25   H     H_    0.988104 0.164788 0.574455 0.129843
H26   H     H_    0.814857 0.101997 0.638429 0.144871
N1    N     N_R   0.290690 0.566960 0.557640 -0.176641
N2    N     N_R   0.709100 0.433710 0.442970 -0.204986
O1    O     O_R   0.545970 0.684450 0.528810 -0.577880
O2    O     O_R   0.687130 0.639470 0.490120 -0.603248
O3    O     O_R   0.519670 0.535100 0.660030 -0.584828
O4    O     O_R   0.660830 0.490120 0.621340 -0.599593
O5    O     O_R   0.312870 0.360530 0.509880 -0.585788
O6    O     O_R   0.454030 0.315550 0.471190 -0.583823
O7    O     O_R   0.339170 0.509880 0.378660 -0.584995
O8    O     O_R   0.480330 0.464900 0.339970 -0.596296

loop_
_geom_bond_atom_site_label_1
_geom_bond_atom_site_label_2
_ccdc_geom_bond_type
C27   C29   A    
C11   C13   A    
C41   C42   A    
C19   H21   S    
C19   C20   A    
Cu2   O6    S    
C45   C46   A    
C12   C23   A    
C26   C27   A    
C26   N2    A    
C6    H11   S    
C9    C16   S    
C12   C43   A    
C3    C7    A    
C11   H26   S    
C30   C31   A    
C9    C22   A    
C28   C40   S    
C21   H23   S    
C16   O6    A    
C18   C19   A    
Cu1   O3    S    
C37   H6    S    
C4    O3    A    
C13   H25   S    
C45   H17   S    
C42   H15   S    
C8    C22   A    
C7    C40   A    
C38   H19   S    
C23   C46   A    
C13   C14   A    
C35   H4    S    
C14   C17   A    
Cu2   N2    S    
C39   C42   A    
C15   C20   A    
C3    C44   A    
C8    H22   S    
Cu1   O7    S    
C34   C44   A    
C48   H13   S    
C39   C43   A    
C2    C48   A    
C37   N1    A    
C46   H1    S    
C16   O5    A    
C17   C21   A    
Cu1   O1    S    
C35   C36   A    
C29   C30   A    
C25   C38   A    
C47   C48   A    
C4    C39   S    
C17   C18   A    
C32   C37   A    
C15   C24   A    
C28   O8    A    
C1    O1    A    
C6    C40   A    
C2    C5    A    
C7    H3    S    
C12   C34   A    
C47   H18   S    
C44   C45   A    
Cu2   O4    S    
C31   N2    A    
C14   C15   A    
C25   H5    S    
C36   H10   S    
Cu2   O2    S    
C38   N1    A    
C23   C41   A    
C10   C24   A    
C32   C33   A    
Cu1   O5    S    
C2    C3    A    
C20   H2    S    
C27   H9    S    
C30   C32   A    
C10   H24   S    
C9    C21   A    
C5    C6    A    
C43   H16   S    
C33   C35   A    
Cu1   N1    S    
C5    H12   S    
C26   H7    S    
C8    C18   A    
C10   C11   A    
Cu2   O8    S    
C4    O4    A    
C29   H8    S    
C1    C24   S    
Cu1   Cu2   S    
C28   O7    A    
C1    O2    A    
C31   C36   A    
C34   C47   A    
C41   H14   S    
C22   H20   S    
C25   C33   A    
