data_mof_unit_2456.cif
_audit_creation_date              2012-12-11T15:14:49-0500
_audit_creation_method            fapswitch 2.2
_symmetry_space_group_name_H-M    P1
_symmetry_Int_Tables_number       1
_space_group_crystal_system       triclinic
_cell_length_a                    22.282298
_cell_length_b                    7.237535
_cell_length_c                    19.25938
_cell_angle_alpha                 90.000154
_cell_angle_beta                  99.218622
_cell_angle_gamma                 90.000072
_cell_volume                      3065.82371411

loop_
_atom_site_label
_atom_site_type_symbol
_atom_type_description
_atom_site_fract_x
_atom_site_fract_y
_atom_site_fract_z
_atom_type_partial_charge
O1    O     O_R   0.448470 0.506130 0.415700 -0.532460
O2    O     O_R   0.551530 0.006130 0.584300 -0.532461
O3    O     O_R   0.436320 0.174490 0.555800 -0.532309
O4    O     O_R   0.563680 0.674490 0.444200 -0.532310
C1    C     C_R   0.421124 0.343998 0.575091 0.703390
C2    C     C_R   0.578875 0.843998 0.424908 0.703391
O5    O     O_R   0.441350 0.176340 0.414480 -0.534063
O6    O     O_R   0.558650 0.676340 0.585520 -0.534062
O7    O     O_R   0.556600 0.007100 0.441970 -0.534586
O8    O     O_R   0.443400 0.507100 0.558030 -0.534586
C3    C     C_R   0.426251 0.344827 0.389938 0.702224
C4    C     C_R   0.573748 0.844827 0.610062 0.702226
O9    O     O_3   0.537810 0.339550 0.509190 -0.372128
O10   O     O_3   0.462190 0.839550 0.490810 -0.372128
V1    V     V_3+5 0.492990 0.064280 0.498300 1.420764
V2    V     V_3+5 0.507010 0.564280 0.501700 1.420763
C5    C     C_R   0.869053 0.964697 0.692991 -0.235873
C6    C     C_R   0.130945 0.464684 0.307011 -0.235870
H1    H     H_    0.786589 0.954697 0.577434 0.121403
H2    H     H_    0.213410 0.454670 0.422569 0.121397
C7    C     C_R   0.886284 0.942497 0.820258 -0.138216
C8    C     C_R   0.113713 0.442508 0.179744 -0.138232
C9    C     C_R   0.591324 0.820538 0.738469 -0.284284
C10   C     C_R   0.408674 0.320546 0.261530 -0.284284
C11   C     C_R   0.627751 0.825570 0.805581 0.481043
C12   C     C_R   0.372247 0.325582 0.194418 0.481044
C13   C     C_R   0.690279 0.853771 0.809867 -0.210309
C14   C     C_R   0.309719 0.353784 0.190133 -0.210309
C15   C     C_R   0.717985 0.880716 0.749553 0.021365
C16   C     C_R   0.282013 0.380722 0.250447 0.021361
C17   C     C_R   0.679812 0.880361 0.682306 0.062697
C18   C     C_R   0.320187 0.380358 0.317695 0.062699
C19   C     C_R   0.782335 0.908657 0.753974 0.105206
C20   C     C_R   0.217664 0.408663 0.246027 0.105210
C21   C     C_R   0.806509 0.935668 0.690845 0.079795
C22   C     C_R   0.193489 0.435662 0.309157 0.079789
C23   C     C_R   0.768219 0.934156 0.625697 -0.179990
C24   C     C_R   0.231779 0.434139 0.374305 -0.180005
C25   C     C_R   0.705956 0.907239 0.621393 -0.170115
C26   C     C_R   0.294042 0.407226 0.378608 -0.170108
C27   C     C_R   0.823780 0.910403 0.818563 -0.285939
C28   C     C_R   0.176218 0.410417 0.181439 -0.285904
C29   C     C_R   0.908640 0.973963 0.757031 0.397210
C30   C     C_R   0.091358 0.473973 0.242972 0.397254
C31   C     C_R   0.616228 0.851002 0.677531 -0.127605
C32   C     C_R   0.383771 0.351002 0.322469 -0.127606
H3    H     H_    0.809171 0.888695 0.868608 0.119122
H4    H     H_    0.190828 0.388714 0.131393 0.119119
H5    H     H_    0.542919 0.796208 0.731853 0.113628
H6    H     H_    0.457080 0.296218 0.268145 0.113628
C33   C     C_3   0.780883 0.824327 0.318616 -0.222520
C34   C     C_3   0.219113 0.324326 0.681381 -0.222534
C35   C     C_3   0.800327 0.009724 0.286541 -0.330268
C36   C     C_3   0.199671 0.509723 0.713459 -0.330230
H7    H     H_    0.838395 0.098631 0.311285 0.147711
H8    H     H_    0.161602 0.598628 0.688718 0.147727
H9    H     H_    0.801998 0.762888 0.369522 0.137159
H10   H     H_    0.197997 0.262889 0.630476 0.137145
C37   C     C_1   0.877485 0.943630 0.123556 -0.211875
C38   C     C_1   0.122517 0.443628 0.876447 -0.211961
C39   C     C_1   0.625706 0.851339 0.380395 -0.202958
C40   C     C_1   0.374292 0.351339 0.619603 -0.202958
C41   C     C_3   0.778221 0.730816 0.245716 0.458818
C42   C     C_3   0.221776 0.230813 0.754281 0.458814
C43   C     C_3   0.797357 0.912912 0.214149 -0.010366
C44   C     C_3   0.202642 0.412908 0.785851 -0.010315
C45   C     C_3   0.710004 0.779410 0.226099 -0.359384
C46   C     C_3   0.289994 0.279404 0.773897 -0.359390
C47   C     C_3   0.712845 0.876847 0.298074 -0.011927
C48   C     C_3   0.287152 0.376844 0.701922 -0.011919
C49   C     C_3   0.729465 0.964135 0.195539 0.382405
C50   C     C_3   0.270534 0.464129 0.804458 0.382383
C51   C     C_3   0.732029 0.059945 0.267205 0.440098
C52   C     C_3   0.267969 0.559941 0.732793 0.440072
C53   C     C_1   0.841367 0.933854 0.164456 -0.022203
C54   C     C_1   0.158634 0.433850 0.835545 -0.022168
C55   C     C_1   0.664981 0.859872 0.343301 -0.020637
C56   C     C_1   0.335016 0.359871 0.656695 -0.020635
O11   O     O_R   0.056650 0.288730 0.942060 -0.541312
O12   O     O_R   0.943350 0.788730 0.057940 -0.541315
O13   O     O_R   0.058660 0.616870 0.085540 -0.546693
O14   O     O_R   0.941340 0.116870 0.914460 -0.546674
C57   C     C_R   0.072061 0.448924 0.111659 0.735103
C58   C     C_R   0.927937 0.948923 0.888342 0.735159
O15   O     O_R   0.063700 0.618520 0.944220 -0.529757
O16   O     O_R   0.936300 0.118520 0.055780 -0.529766
O17   O     O_R   0.948460 0.787610 0.915680 -0.529805
O18   O     O_R   0.051540 0.287610 0.084320 -0.529807
C59   C     C_R   0.078408 0.450566 0.924202 0.708442
C60   C     C_R   0.921593 0.950567 0.075800 0.708425
O19   O     O_3   0.962230 0.453430 0.990860 -0.376229
O20   O     O_3   0.037770 0.953430 0.009140 -0.376231
V3    V     V_3+5 0.007010 0.728750 0.001700 1.409701
V4    V     V_3+5 0.992990 0.228750 0.998300 1.409702
O21   O     O_3   0.970149 0.000303 0.756939 -0.582153
C61   C     C_3   0.984391 0.190900 0.764021 0.093520
H11   H     H_    0.030069 0.202286 0.796597 0.144592
H12   H     H_    0.952656 0.271459 0.791831 0.111489
C62   C     C_3   0.987162 0.277592 0.692042 -0.343598
H13   H     H_    0.019788 0.199100 0.665327 0.211922
H14   H     H_    0.941604 0.271224 0.658920 0.188433
C63   C     C_3   0.007078 0.479482 0.699139 -0.791633
H15   H     H_    0.975110 0.560747 0.725827 0.245395
H16   H     H_    0.007462 0.539176 0.646107 0.229241
H17   H     H_    0.053568 0.490278 0.729704 0.235572
O22   O     O_3   0.029847 0.500261 0.243072 -0.582166
C64   C     C_3   0.015582 0.690836 0.235963 0.093475
H18   H     H_    0.969835 0.702120 0.203537 0.144653
H19   H     H_    0.047217 0.771291 0.207981 0.111555
C65   C     C_3   0.013017 0.777777 0.307949 -0.343821
H20   H     H_    0.980565 0.699209 0.334895 0.211923
H21   H     H_    0.058669 0.771789 0.340874 0.188417
C66   C     C_3   0.992954 0.979531 0.300813 -0.791531
H22   H     H_    0.024719 0.060843 0.273846 0.245424
H23   H     H_    0.992769 0.039461 0.353846 0.229283
H24   H     H_    0.946357 0.989932 0.270497 0.235546
O23   O     O_3   0.701820 0.229729 0.273543 -0.580961
C67   C     C_3   0.728300 0.330357 0.333768 0.115439
H25   H     H_    0.713202 0.475465 0.324906 0.178004
H26   H     H_    0.778723 0.332943 0.340960 0.144235
C68   C     C_3   0.706619 0.263422 0.401062 -0.359203
H27   H     H_    0.656383 0.247087 0.391273 0.223652
H28   H     H_    0.728217 0.128732 0.417241 0.192353
C69   C     C_3   0.723960 0.399616 0.461483 -0.818006
H29   H     H_    0.774051 0.418927 0.472225 0.224267
H30   H     H_    0.708769 0.345096 0.509707 0.239022
H31   H     H_    0.701711 0.535285 0.448477 0.235367
O24   O     O_3   0.298179 0.729725 0.726455 -0.580963
C70   C     C_3   0.271697 0.830353 0.666232 0.115431
H32   H     H_    0.286795 0.975461 0.675093 0.178005
H33   H     H_    0.221274 0.832941 0.659041 0.144228
C71   C     C_3   0.293376 0.763418 0.598936 -0.359193
H34   H     H_    0.343612 0.747082 0.608723 0.223652
H35   H     H_    0.271777 0.628728 0.582757 0.192351
C72   C     C_3   0.276033 0.899611 0.538516 -0.818024
H36   H     H_    0.225942 0.918926 0.527777 0.224262
H37   H     H_    0.291221 0.845089 0.490290 0.239022
H38   H     H_    0.298283 0.035279 0.551521 0.235370
O25   O     O_3   0.705938 0.042277 0.129660 -0.573439
C73   C     C_3   0.642070 0.059692 0.121587 0.092467
H39   H     H_    0.629826 0.198204 0.098979 0.140535
H40   H     H_    0.623407 0.051803 0.171963 0.131078
C74   C     C_3   0.612121 0.913890 0.069927 -0.305822
H41   H     H_    0.626730 0.934046 0.017901 0.228744
H42   H     H_    0.626854 0.774054 0.089021 0.190725
C75   C     C_3   0.543022 0.926500 0.061272 -0.864116
H43   H     H_    0.527475 0.930713 0.113214 0.230278
H44   H     H_    0.522354 0.803961 0.032586 0.231937
H45   H     H_    0.527200 0.051941 0.030848 0.223226
O26   O     O_3   0.294063 0.542268 0.870338 -0.573440
C76   C     C_3   0.357931 0.559681 0.878410 0.092467
H46   H     H_    0.370176 0.698193 0.901018 0.140535
H47   H     H_    0.376593 0.551788 0.828033 0.131077
C77   C     C_3   0.387880 0.413880 0.930071 -0.305820
H48   H     H_    0.373270 0.434036 0.982096 0.228746
H49   H     H_    0.373147 0.274044 0.910975 0.190724
C78   C     C_3   0.456978 0.426493 0.938727 -0.864117
H50   H     H_    0.472526 0.430707 0.886785 0.230278
H51   H     H_    0.477646 0.303953 0.967413 0.231936
H52   H     H_    0.472800 0.551932 0.969152 0.223227
H53   H     H_    0.674134 0.682660 0.202196 0.141244
H54   H     H_    0.325864 0.182654 0.797798 0.141243
O27   O     O_3   0.801822 0.549645 0.243346 -0.581817
C79   C     C_3   0.813959 0.498054 0.176165 0.105141
H55   H     H_    0.833158 0.356182 0.181763 0.163502
H56   H     H_    0.850246 0.583971 0.159724 0.119193
C80   C     C_3   0.756933 0.492424 0.119511 -0.344992
H57   H     H_    0.720066 0.417162 0.140076 0.238857
H58   H     H_    0.741245 0.635008 0.105306 0.192497
C81   C     C_3   0.769987 0.397303 0.052797 -0.754337
H59   H     H_    0.806028 0.473074 0.030783 0.221102
H60   H     H_    0.728037 0.395554 0.012945 0.231409
H61   H     H_    0.784939 0.252578 0.064176 0.255894
O28   O     O_3   0.198173 0.049645 0.756651 -0.581831
C82   C     C_3   0.186042 0.998048 0.823834 0.105113
H62   H     H_    0.166840 0.856180 0.818235 0.163491
H63   H     H_    0.149760 0.083969 0.840283 0.119237
C83   C     C_3   0.243074 0.992402 0.880480 -0.344997
H64   H     H_    0.279936 0.917137 0.859907 0.238868
H65   H     H_    0.258766 0.134982 0.894687 0.192494
C84   C     C_3   0.230026 0.897276 0.947196 -0.754318
H66   H     H_    0.193995 0.973063 0.969222 0.221098
H67   H     H_    0.271982 0.895498 0.987039 0.231410
H68   H     H_    0.215065 0.752561 0.935815 0.255896
H69   H     H_    0.887373 0.981796 0.644545 0.125795
H70   H     H_    0.112625 0.481764 0.355459 0.125823
H71   H     H_    0.716053 0.854951 0.862167 0.135749
H72   H     H_    0.283945 0.354969 0.137834 0.135749
O29   O     O_3   0.606636 0.802838 0.869616 -0.580299
C85   C     C_3   0.542755 0.806514 0.865622 0.076627
H73   H     H_    0.532881 0.762493 0.917521 0.151289
H74   H     H_    0.519748 0.701530 0.828513 0.108001
C86   C     C_3   0.517061 0.002544 0.851979 -0.320360
H75   H     H_    0.535612 0.093209 0.896862 0.201820
H76   H     H_    0.530690 0.062839 0.803918 0.195457
C87   C     C_3   0.447910 0.002132 0.842961 -0.852607
H77   H     H_    0.428447 0.900638 0.802207 0.245223
H78   H     H_    0.430909 0.141196 0.825627 0.239750
H79   H     H_    0.432810 0.968322 0.893675 0.228514
O30   O     O_3   0.393362 0.302853 0.130383 -0.580299
C88   C     C_3   0.457243 0.306526 0.134377 0.076626
H80   H     H_    0.467116 0.262505 0.082477 0.151290
H81   H     H_    0.480249 0.201539 0.171485 0.108001
C89   C     C_3   0.482938 0.502553 0.148020 -0.320361
H82   H     H_    0.464387 0.593221 0.103138 0.201820
H83   H     H_    0.469310 0.562847 0.196083 0.195456
C90   C     C_3   0.552089 0.502139 0.157037 -0.852606
H84   H     H_    0.571552 0.400646 0.197790 0.245224
H85   H     H_    0.569091 0.641203 0.174370 0.239751
H86   H     H_    0.567187 0.468326 0.106322 0.228515
H87   H     H_    0.678370 0.907393 0.569700 0.101282
H88   H     H_    0.321629 0.407373 0.430301 0.101280

loop_
_geom_bond_atom_site_label_1
_geom_bond_atom_site_label_2
_ccdc_geom_bond_type
C72   H38   S    
C24   C26   A    
C41   C43   S    
C78   H50   S    
C9    C31   A    
C65   H21   S    
C48   C56   S    
C64   H19   S    
C88   H80   S    
C47   C55   S    
O21   C61   S    
O1    C3    A    
C58   O17   A    
O2    C4    A    
O24   C70   S    
C2    O7    A    
C83   H64   S    
C72   H36   S    
C80   H58   S    
C38   C59   S    
C41   O27   S    
C85   H73   S    
O14   V4    S    
C42   C46   S    
C2    C39   S    
C79   H55   S    
C21   C23   A    
C73   H40   S    
C75   H43   S    
C14   H72   S    
O28   C82   S    
C9    H5    S    
C45   C49   S    
C13   C15   A    
O22   C64   S    
C74   H41   S    
C61   C62   S    
C15   C19   A    
C87   H77   S    
O13   V3    S    
C90   H85   S    
C63   H17   S    
C72   H37   S    
C76   C77   S    
C67   H25   S    
C68   C69   S    
H1    C23   S    
C85   C86   S    
C19   C21   A    
C36   C52   S    
O15   V3    S    
C11   O29   S    
C52   O24   S    
O27   C79   S    
C39   C55   T    
O30   C88   S    
C86   H76   S    
C61   H12   S    
C48   C52   S    
C90   H86   S    
C29   O21   S    
C64   H18   S    
C73   C74   S    
C30   O22   S    
C47   C51   S    
C33   H9    S    
C82   C83   S    
C12   O30   S    
C77   H49   S    
C46   C50   S    
C66   H24   S    
C84   H67   S    
C57   O18   A    
C76   H46   S    
O6    V2    S    
C7    C29   A    
C88   H81   S    
O29   C85   S    
C87   H79   S    
C12   C14   A    
O13   C57   A    
C34   C36   S    
C3    C32   S    
C80   C81   S    
C75   H44   S    
C35   H7    S    
C10   H6    S    
C23   C25   A    
C44   C50   S    
C20   C28   A    
C51   O23   S    
C16   C20   A    
C90   H84   S    
C83   C84   S    
C33   C41   S    
C73   H39   S    
O11   V4    S    
C82   H63   S    
O16   C60   A    
C74   C75   S    
C5    H69   S    
C80   H57   S    
C49   C51   S    
O15   C59   A    
C71   H34   S    
C28   H4    S    
C84   H66   S    
C6    H70   S    
C65   H20   S    
C45   C47   S    
C67   C68   S    
C42   C44   S    
O4    V2    S    
O5    C3    A    
C17   C31   A    
C5    C29   A    
C41   C45   S    
C6    C30   A    
C75   H45   S    
H2    C24   S    
C45   H53   S    
C82   H62   S    
C38   C54   T    
C7    C58   S    
O6    C4    A    
C86   C87   S    
C44   C54   S    
C61   H11   S    
C62   C63   S    
O16   V4    S    
C27   H3    S    
C25   H87   S    
O1    V2    S    
C13   H71   S    
C70   H33   S    
C63   H16   S    
O2    V1    S    
C65   C66   S    
C77   H48   S    
C34   H10   S    
C77   C78   S    
C69   H31   S    
C7    C27   A    
C50   C52   S    
C62   H14   S    
C89   H83   S    
C78   H52   S    
O14   C58   A    
C34   C42   S    
C88   C89   S    
O4    C2    A    
C42   O28   S    
C22   C24   A    
C37   C53   T    
C18   C26   A    
O3    V1    S    
C69   H30   S    
C66   H22   S    
C84   H68   S    
C74   H42   S    
C8    C30   A    
O26   C76   S    
C18   C32   A    
C85   H74   S    
C40   C56   T    
C79   C80   S    
C35   C51   S    
C10   C12   A    
C4    C31   S    
O3    C1    A    
C83   H65   S    
O25   C73   S    
C68   H27   S    
C36   H8    S    
C49   O25   S    
C36   C44   S    
C46   H54   S    
C11   C13   A    
C33   C47   S    
C26   H88   S    
C50   O26   S    
C43   C53   S    
C62   H13   S    
C19   C27   A    
C8    C57   S    
C70   C71   S    
C79   H56   S    
C70   H32   S    
C10   C32   A    
C14   C16   A    
C15   C17   A    
C43   C49   S    
O23   C67   S    
O19   V4    S    
C16   C18   A    
C8    C28   A    
C81   H60   S    
C35   C43   S    
C71   C72   S    
C71   H35   S    
O17   V3    S    
O5    V1    S    
O20   V3    S    
C64   C65   S    
C17   C25   A    
C1    C40   S    
C89   C90   S    
C20   C22   A    
C76   H47   S    
O12   C60   A    
C63   H15   S    
C67   H26   S    
C68   H28   S    
C87   H78   S    
C34   C48   S    
C1    O8    A    
C9    C11   A    
C89   H82   S    
C46   C48   S    
C86   H75   S    
C81   H59   S    
O9    V2    S    
C78   H51   S    
O18   V4    S    
O10   V1    S    
O11   C59   A    
O8    V2    S    
C5    C21   A    
C33   C35   S    
O12   V3    S    
C6    C22   A    
C37   C60   S    
O7    V1    S    
C69   H29   S    
C66   H23   S    
C81   H61   S    
