data_mof_unit_1704.cif
_audit_creation_date              2012-12-11T15:55:49-0500
_audit_creation_method            fapswitch 2.2
_symmetry_space_group_name_H-M    P1
_symmetry_Int_Tables_number       1
_space_group_crystal_system       triclinic
_cell_length_a                    6.93423
_cell_length_b                    14.54493
_cell_length_c                    16.090364
_cell_angle_alpha                 89.982794
_cell_angle_beta                  89.957397
_cell_angle_gamma                 90.039776
_cell_volume                      1622.83924852

loop_
_atom_site_label
_atom_site_type_symbol
_atom_type_description
_atom_site_fract_x
_atom_site_fract_y
_atom_site_fract_z
_atom_type_partial_charge
O1    O     O_R   0.505680 0.583900 0.413320 -0.544528
O2    O     O_R   0.176010 0.594950 0.586080 -0.545837
O3    O     O_R   0.005680 0.416100 0.586680 -0.543532
C1    C     C_R   0.345040 0.617125 0.615075 0.679087
O4    O     O_R   0.175960 0.594930 0.413930 -0.545682
O5    O     O_R   0.005640 0.416080 0.413300 -0.543083
C2    C     C_R   0.345083 0.617177 0.385003 0.678162
O6    O     O_R   0.505720 0.583920 0.586700 -0.544953
O7    O     O_3   0.339190 0.441320 0.500000 -0.356221
V1    V     V_3+5 0.064350 0.510890 0.500000 1.412589
O8    O     O_R   0.675920 0.405050 0.413920 -0.539906
C3    C     C_R   0.844986 0.382779 0.384986 0.692206
O9    O     O_R   0.675960 0.405070 0.586070 -0.510099
C4    C     C_R   0.844680 0.382563 0.614555 0.764186
V2    V     V_3+5 0.564340 0.489110 0.500000 1.461011
O10   O     O_3   0.839370 0.558680 0.500000 -0.379792
C5    C     C_R   0.994169 0.322812 0.746275 -0.009052
C6    C     C_R   0.851911 0.316318 0.684652 -0.216493
C7    C     C_R   0.710082 0.247356 0.694644 0.601675
C8    C     C_R   0.720760 0.184112 0.760964 -0.257117
H1    H     H_    0.613479 0.130145 0.764967 0.149255
C9    C     C_R   0.875639 0.186215 0.817780 -0.180221
C10   C     C_R   0.006807 0.259015 0.810570 0.090765
C11   C     C_3   0.221823 0.258683 0.807846 -0.367141
C12   C     C_3   0.207934 0.329036 0.738116 -0.335290
H2    H     H_    0.281012 0.191426 0.787291 0.187674
H3    H     H_    0.286545 0.286978 0.865616 0.159565
H4    H     H_    0.258776 0.303088 0.677080 0.243450
H5    H     H_    0.263654 0.397983 0.755837 0.152653
C13   C     C_R   0.046877 0.224709 0.217516 -0.154493
H6    H     H_    0.187624 0.206264 0.193608 0.116732
C14   C     C_R   0.035754 0.288252 0.282737 -0.145438
H7    H     H_    0.168494 0.316946 0.306878 0.120037
C15   C     C_R   0.856171 0.314438 0.316151 -0.043950
C16   C     C_R   0.688027 0.275297 0.282430 -0.145246
H8    H     H_    0.547280 0.293744 0.306338 0.119644
C17   C     C_R   0.699150 0.211753 0.217209 -0.150411
H9    H     H_    0.566411 0.183060 0.193067 0.119458
C18   C     C_R   0.878734 0.185564 0.183798 -0.047332
C19   C     C_R   0.188013 0.724129 0.717985 -0.154121
H10   H     H_    0.047271 0.705355 0.694342 0.116205
C20   C     C_R   0.199117 0.787697 0.783177 -0.147766
H11   H     H_    0.066367 0.816092 0.807565 0.118899
C21   C     C_R   0.378705 0.814284 0.816251 -0.046344
C22   C     C_R   0.546868 0.775494 0.782252 -0.153410
H12   H     H_    0.687611 0.794264 0.805895 0.116347
C23   C     C_R   0.535763 0.711926 0.717060 -0.150200
H13   H     H_    0.668513 0.683529 0.692672 0.116855
C24   C     C_R   0.356183 0.685387 0.683949 -0.046233
C25   C     C_R   0.188181 0.724795 0.282682 -0.154018
H14   H     H_    0.047464 0.706468 0.306772 0.116668
C26   C     C_R   0.199272 0.788356 0.217465 -0.149414
H15   H     H_    0.066560 0.817192 0.193499 0.119289
C27   C     C_R   0.378813 0.814386 0.183848 -0.046735
C28   C     C_R   0.546955 0.775094 0.217341 -0.154312
H16   H     H_    0.687668 0.793425 0.193248 0.116808
C29   C     C_R   0.535864 0.711531 0.282561 -0.150226
H17   H     H_    0.668570 0.682692 0.306531 0.117395
C30   C     C_R   0.356319 0.685503 0.316177 -0.044266
O11   O     O_R   0.229200 0.915950 0.913350 -0.540852
O12   O     O_R   0.559090 0.905000 0.086080 -0.543339
O13   O     O_R   0.729280 0.083880 0.086680 -0.540768
C31   C     C_R   0.389998 0.882719 0.115026 0.688291
O14   O     O_R   0.558920 0.904980 0.913920 -0.544233
O15   O     O_R   0.729110 0.083860 0.913300 -0.540222
C32   C     C_R   0.389869 0.882678 0.885023 0.686975
O16   O     O_R   0.229360 0.915970 0.086730 -0.540657
O17   O     O_3   0.395680 0.058580 0.000030 -0.369119
V3    V     V_3+5 0.670570 0.989070 0.999990 1.399501
O18   O     O_R   0.058820 0.094950 0.913870 -0.540169
C33   C     C_R   0.889786 0.116790 0.884946 0.731066
O19   O     O_R   0.058990 0.094970 0.086020 -0.544133
C34   C     C_R   0.889926 0.117214 0.114971 0.686339
V4    V     V_3+5 0.170560 0.010930 0.999930 1.402539
O20   O     O_3   0.895590 0.941310 0.999960 -0.371734
F1    F     F_    0.570450 0.235939 0.636593 -0.703237

loop_
_geom_bond_atom_site_label_1
_geom_bond_atom_site_label_2
_ccdc_geom_bond_type
C28   H16   S    
C4    C6    S    
C21   C32   S    
C7    C8    A    
C11   H3    S    
C1    O6    A    
C23   C24   A    
C22   H12   S    
C21   C22   A    
C12   H4    S    
C5    C10   A    
C25   C30   A    
C7    F1    S    
C16   C17   A    
C11   H2    S    
C6    C7    A    
O5    C3    A    
C13   H6    S    
C29   C30   A    
C27   C31   S    
O17   V4    S    
V2    O10   S    
C15   C16   A    
O12   C31   A    
O8    V2    S    
C16   H8    S    
O17   V3    S    
O18   V4    S    
C25   C26   A    
C10   C11   S    
O13   C34   A    
O18   C33   A    
O1    V2    S    
O7    V1    S    
C19   C20   A    
O11   C32   A    
O9    C4    A    
C20   C21   A    
C2    C30   S    
C26   C27   A    
C25   H14   S    
C22   C23   A    
C12   H5    S    
C31   O16   A    
V4    O20   S    
C11   C12   S    
O19   V4    S    
O4    C2    A    
O15   C33   A    
O13   V3    S    
O14   C32   A    
O2    C1    A    
C17   H9    S    
C23   H13   S    
C5    C6    A    
O16   V4    S    
O14   V3    S    
O3    C4    A    
C19   H10   S    
C8    C9    A    
O6    V2    S    
C28   C29   A    
C20   H11   S    
C3    C15   S    
O2    V1    S    
C9    C33   S    
C26   H15   S    
O12   V3    S    
C27   C28   A    
O1    C2    A    
O19   C34   A    
O5    V1    S    
O8    C3    A    
C1    C24   S    
C5    C12   S    
C14   H7    S    
O9    V2    S    
O7    V2    S    
O4    V1    S    
C17   C18   A    
O3    V1    S    
V1    O10   S    
C13   C14   A    
C29   H17   S    
O15   V3    S    
O11   V4    S    
C13   C18   A    
V3    O20   S    
C18   C34   S    
C8    H1    S    
C9    C10   A    
C19   C24   A    
C14   C15   A    
