data_mof_unit_3575.cif
_audit_creation_date              2012-12-11T15:06:40-0500
_audit_creation_method            fapswitch 2.2
_symmetry_space_group_name_H-M    P1
_symmetry_Int_Tables_number       1
_space_group_crystal_system       monoclinic
_cell_length_a                    7.244482
_cell_length_b                    14.710486
_cell_length_c                    22.610049
_cell_angle_alpha                 90.0
_cell_angle_beta                  90.0
_cell_angle_gamma                 88.76119
_cell_volume                      2408.98636629

loop_
_atom_site_label
_atom_site_type_symbol
_atom_type_description
_atom_site_fract_x
_atom_site_fract_y
_atom_site_fract_z
_atom_type_partial_charge
O1    O     O_R   0.390810 0.844810 0.447340 -0.529137
O2    O     O_R   0.109190 0.155190 0.947340 -0.529137
O3    O     O_R   0.890810 0.655190 0.552660 -0.532327
O4    O     O_R   0.609190 0.344810 0.052660 -0.532327
O5    O     O_R   0.720550 0.655820 0.440420 -0.539972
O6    O     O_R   0.779450 0.344180 0.940420 -0.539972
O7    O     O_R   0.220550 0.844180 0.559580 -0.520454
O8    O     O_R   0.279450 0.155820 0.059580 -0.520455
C1    C     C_R   0.553845 0.626492 0.426037 0.710170
C2    C     C_R   0.946154 0.373507 0.926037 0.710170
C3    C     C_R   0.050531 0.873533 0.573825 0.702132
C4    C     C_R   0.449469 0.126467 0.073825 0.702130
O9    O     O_R   0.720530 0.844130 0.440420 -0.532011
O10   O     O_R   0.779470 0.155870 0.940420 -0.532011
O11   O     O_R   0.220530 0.655870 0.559580 -0.524730
O12   O     O_R   0.279470 0.344130 0.059580 -0.524729
O13   O     O_R   0.890830 0.844810 0.552660 -0.523480
O14   O     O_R   0.609170 0.155190 0.052660 -0.523480
O15   O     O_R   0.390830 0.655190 0.447340 -0.508235
O16   O     O_R   0.109170 0.344810 0.947340 -0.508235
C5    C     C_R   0.550662 0.874005 0.426500 0.774807
C6    C     C_R   0.949338 0.125995 0.926500 0.774807
C7    C     C_R   0.053827 0.626184 0.573776 0.769106
C8    C     C_R   0.446173 0.373816 0.073776 0.769106
O17   O     O_3   0.557310 0.749980 0.536820 -0.378435
O18   O     O_3   0.942690 0.250020 0.036820 -0.378434
O19   O     O_3   0.057310 0.750020 0.463180 -0.381661
O20   O     O_3   0.442690 0.249980 0.963180 -0.381661
V1    V     V_3+5 0.832160 0.749980 0.493170 1.559368
V2    V     V_3+5 0.667840 0.250020 0.993170 1.559368
V3    V     V_3+5 0.332160 0.750020 0.506830 1.600863
V4    V     V_3+5 0.167840 0.249980 0.006830 1.600863
C9    C     C_R   0.854037 0.602225 0.856044 -0.170563
C10   C     C_R   0.645962 0.397775 0.356044 -0.170563
C11   C     C_R   0.526729 0.892285 0.137457 -0.161778
C12   C     C_R   0.973278 0.107716 0.637457 -0.161780
H1    H     H_    0.820987 0.545181 0.942388 0.185444
H2    H     H_    0.679012 0.454819 0.442388 0.185444
H3    H     H_    0.500304 0.948081 0.050479 0.189212
H4    H     H_    0.999706 0.051919 0.550479 0.189212
H5    H     H_    0.826887 0.722852 0.769481 0.129168
H6    H     H_    0.673111 0.277148 0.269481 0.129169
H7    H     H_    0.591341 0.769439 0.220719 0.129224
H8    H     H_    0.908665 0.230562 0.720719 0.129224
H9    H     H_    0.795408 0.667370 0.869615 0.145695
H10   H     H_    0.704591 0.332630 0.369616 0.145694
H11   H     H_    0.551458 0.824113 0.120586 0.145651
H12   H     H_    0.948552 0.175887 0.620586 0.145652
C13   C     C_R   0.946128 0.448144 0.882207 -0.030461
C14   C     C_R   0.553872 0.551856 0.382207 -0.030461
C15   C     C_R   0.464955 0.051685 0.117264 -0.036321
C16   C     C_R   0.035045 0.948315 0.617265 -0.036320
C17   C     C_R   0.120063 0.462495 0.596883 0.469187
C18   C     C_R   0.379937 0.537505 0.096882 0.469186
C19   C     C_R   0.510542 0.040674 0.407603 0.466624
C20   C     C_R   0.989456 0.959326 0.907603 0.466624
C21   C     C_R   0.144829 0.392189 0.637664 -0.182692
C22   C     C_R   0.355173 0.607812 0.137663 -0.182692
C23   C     C_R   0.477944 0.113402 0.369167 -0.182934
C24   C     C_R   0.022053 0.886598 0.869167 -0.182931
C25   C     C_R   0.104434 0.404817 0.697202 -0.261765
C26   C     C_R   0.395568 0.595184 0.197202 -0.261765
C27   C     C_R   0.470701 0.100348 0.308342 -0.257904
C28   C     C_R   0.029295 0.899652 0.808342 -0.257904
C29   C     C_R   0.031527 0.488280 0.718399 0.101381
C30   C     C_R   0.468474 0.511720 0.218399 0.101381
C31   C     C_R   0.500206 0.013512 0.283148 0.100669
C32   C     C_R   0.999792 0.986487 0.783148 0.100669
C33   C     C_R   0.005707 0.561152 0.676902 0.012385
C34   C     C_R   0.494293 0.438848 0.176901 0.012385
C35   C     C_R   0.534299 0.938388 0.322267 0.008948
C36   C     C_R   0.965700 0.061611 0.822267 0.008948
C37   C     C_R   0.983854 0.501678 0.779487 0.101551
C38   C     C_R   0.516146 0.498322 0.279487 0.101551
C39   C     C_R   0.495989 0.998822 0.220409 0.103260
C40   C     C_R   0.004011 0.001177 0.720409 0.103260
C41   C     C_R   0.908673 0.587421 0.797216 0.118364
C42   C     C_R   0.591326 0.412579 0.297216 0.118365
C43   C     C_R   0.528006 0.909327 0.198502 0.112791
C44   C     C_R   0.971997 0.090673 0.698503 0.112791
C45   C     C_R   0.885392 0.657645 0.756055 -0.196799
C46   C     C_R   0.614607 0.342355 0.256055 -0.196799
C47   C     C_R   0.563291 0.837307 0.237466 -0.191213
C48   C     C_R   0.936713 0.162693 0.737467 -0.191212
C49   C     C_R   0.934316 0.645181 0.697130 -0.172488
C50   C     C_R   0.565682 0.354819 0.197130 -0.172487
C51   C     C_R   0.565087 0.851239 0.298220 -0.167599
C52   C     C_R   0.934914 0.148761 0.798220 -0.167599
C53   C     C_R   0.004076 0.432764 0.823586 -0.233415
C54   C     C_R   0.495924 0.567236 0.323586 -0.233416
C55   C     C_R   0.463941 0.069636 0.178348 -0.239157
C56   C     C_R   0.036056 0.930364 0.678348 -0.239157
C57   C     C_R   0.869785 0.532854 0.897760 -0.030769
C58   C     C_R   0.630215 0.467146 0.397760 -0.030768
C59   C     C_R   0.496565 0.962839 0.097359 0.008086
C60   C     C_R   0.003440 0.037161 0.597359 0.008085
C61   C     C_R   0.053963 0.548736 0.616133 -0.227242
C62   C     C_R   0.446037 0.451264 0.116133 -0.227243
C63   C     C_R   0.536153 0.951875 0.384728 -0.227132
C64   C     C_R   0.963846 0.048124 0.884729 -0.227134
H13   H     H_    0.058378 0.365763 0.813642 0.097128
H14   H     H_    0.441623 0.634237 0.313642 0.097128
H15   H     H_    0.441761 0.139488 0.191289 0.094763
H16   H     H_    0.058233 0.860512 0.691289 0.094763
H17   H     H_    0.132894 0.347540 0.725588 0.138488
H18   H     H_    0.367109 0.652460 0.225587 0.138488
H19   H     H_    0.440632 0.159996 0.282257 0.139856
H20   H     H_    0.059364 0.840004 0.782257 0.139856
H21   H     H_    0.199559 0.326648 0.623504 0.179228
H22   H     H_    0.300443 0.673353 0.123504 0.179229
H23   H     H_    0.454881 0.181396 0.386368 0.177680
H24   H     H_    0.045115 0.818603 0.886368 0.177679
H25   H     H_    0.913057 0.702019 0.667340 0.103310
H26   H     H_    0.586941 0.297980 0.167340 0.103310
H27   H     H_    0.592944 0.792882 0.326239 0.091272
H28   H     H_    0.907059 0.207118 0.826239 0.091272
S1    S     S_3+6 0.182103 0.440363 0.522396 -0.018992
O21   O     O_2   0.051482 0.488787 0.480770 -0.354760
O22   O     O_2   0.374235 0.473601 0.512674 -0.359801
O23   O     O_3   0.178530 0.327962 0.508812 -0.497695
H29   H     H_    0.230846 0.320755 0.468556 0.378508
S2    S     S_3+6 0.317896 0.559636 0.022396 -0.018992
O24   O     O_2   0.448518 0.511213 0.980770 -0.354759
O25   O     O_2   0.125765 0.526398 0.012674 -0.359801
O26   O     O_3   0.321469 0.672038 0.008812 -0.497694
H30   H     H_    0.269149 0.679245 0.968557 0.378508
S3    S     S_3+6 0.511823 0.063046 0.484481 -0.024601
O27   O     O_2   0.333704 0.031462 0.510383 -0.359874
O28   O     O_2   0.669475 0.012197 0.513317 -0.361027
O29   O     O_3   0.532367 0.175029 0.497312 -0.502355
H31   H     H_    0.522706 0.181573 0.540816 0.375456
S4    S     S_3+6 0.988178 0.936953 0.984481 -0.024601
O30   O     O_2   0.166306 0.968529 0.010381 -0.359874
O31   O     O_2   0.830538 0.987808 0.013320 -0.361026
O32   O     O_3   0.967616 0.824971 0.997312 -0.502355
H32   H     H_    0.977282 0.818427 0.040816 0.375455

loop_
_geom_bond_atom_site_label_1
_geom_bond_atom_site_label_2
_ccdc_geom_bond_type
O17   V3    S    
C47   C51   A    
C22   C26   A    
C19   C23   A    
O19   V1    S    
O13   V1    S    
O3    C7    A    
H6    C46   S    
C44   C48   A    
O15   V3    S    
C36   C64   A    
O32   H32   S    
O1    C5    A    
C8    C62   S    
C28   C32   A    
O9    V1    S    
H4    C60   S    
S1    O22   D    
C18   C22   A    
O4    C8    A    
C17   S1    S    
C30   C38   A    
H7    C47   S    
O1    V3    S    
C29   C37   A    
O2    V4    S    
C11   C43   A    
O3    V1    S    
C12   C60   A    
C54   H14   S    
C3    C16   S    
C15   C55   A    
C1    O15   A    
C21   H21   S    
C2    O16   A    
S4    O30   D    
O2    C6    A    
C23   H23   S    
C16   C60   A    
O14   V2    S    
C25   H17   S    
C51   H27   S    
C39   C55   A    
C53   H13   S    
O11   C7    A    
C18   S2    S    
C11   H11   S    
O12   C8    A    
S2    O25   D    
O10   V2    S    
C36   C52   A    
C14   C54   A    
C28   H20   S    
O5    V1    S    
C10   C58   A    
C27   C31   A    
C6    C64   S    
C26   C30   A    
H1    C57   S    
O8    V4    S    
C40   C44   A    
O7    V3    S    
C12   C44   A    
S1    O23   S    
C13   C53   A    
C17   C21   A    
O18   V4    S    
C14   C58   A    
C17   C61   A    
C46   C50   A    
C35   C63   A    
C20   C24   A    
C32   C36   A    
C19   C63   A    
C52   H28   S    
O7    C3    A    
S3    O28   D    
O5    C1    A    
C9    H9    S    
C24   H24   S    
C42   C46   A    
C41   C45   A    
O8    C4    A    
H5    C45   S    
H2    C58   S    
O9    C5    A    
O11   V3    S    
H3    C59   S    
C20   S4    S    
C40   C56   A    
C10   H10   S    
C7    C61   S    
C19   S3    S    
O26   H30   S    
C35   C51   A    
C16   C56   A    
C32   C40   A    
C20   C64   A    
C27   H19   S    
S3    O27   D    
C34   C50   A    
C4    C15   S    
C33   C49   A    
O23   H29   S    
O16   V4    S    
C29   C33   A    
C3    O13   A    
O6    V2    S    
C22   H22   S    
C1    C14   S    
C48   C52   A    
C55   H15   S    
H8    C48   S    
C9    C57   A    
O6    C2    A    
C21   C25   A    
C26   H18   S    
C11   C59   A    
O12   V4    S    
C23   C27   A    
C50   H26   S    
C24   C28   A    
O10   C6    A    
S2    O26   S    
C49   H25   S    
O29   H31   S    
S3    O29   S    
C37   C53   A    
S1    O21   D    
C10   C42   A    
C43   C47   A    
C9    C41   A    
C30   C34   A    
S4    O32   S    
C5    C63   S    
C38   C54   A    
O20   V2    S    
C12   H12   S    
C31   C35   A    
O4    V2    S    
C56   H16   S    
C25   C29   A    
C31   C39   A    
S4    O31   D    
C38   C42   A    
C4    O14   A    
C37   C41   A    
C18   C62   A    
C13   C57   A    
S2    O24   D    
C2    C13   S    
C39   C43   A    
C45   C49   A    
C34   C62   A    
C15   C59   A    
C33   C61   A    
