data_mof_unit_673.cif
_audit_creation_date              2012-12-11T14:13:20-0500
_audit_creation_method            fapswitch 2.2
_symmetry_space_group_name_H-M    P1
_symmetry_Int_Tables_number       1
_space_group_crystal_system       triclinic
_cell_length_a                    11.643776
_cell_length_b                    18.53461
_cell_length_c                    9.980234
_cell_angle_alpha                 89.980037
_cell_angle_beta                  111.823646
_cell_angle_gamma                 90.052018
_cell_volume                      1999.49989964

loop_
_atom_site_label
_atom_site_type_symbol
_atom_type_description
_atom_site_fract_x
_atom_site_fract_y
_atom_site_fract_z
_atom_type_partial_charge
C1    C     C_R   0.073345 0.645900 0.139828 0.597689
C2    C     C_R   0.928246 0.353364 0.860443 0.559081
C3    C     C_R   0.928108 0.146603 0.860426 0.557362
C4    C     C_R   0.073103 0.853972 0.139718 0.597298
C5    C     C_R   0.392414 0.459322 0.491588 0.012540
C6    C     C_R   0.601652 0.537768 0.498370 -0.017403
C7    C     C_R   0.602260 0.962148 0.498606 -0.030371
C8    C     C_R   0.393377 0.039889 0.494521 0.013363
C9    C     C_2   0.377285 0.938073 0.003478 0.053868
C10   C     C_2   0.610417 0.059214 0.009312 0.000443
C11   C     C_2   0.611831 0.440973 0.006478 0.018975
C12   C     C_2   0.379016 0.562177 0.997979 0.006416
C13   C     C_2   0.457377 0.957841 0.940861 0.231632
C14   C     C_2   0.491227 0.034685 0.939501 0.173173
C15   C     C_2   0.493087 0.465695 0.935134 0.242402
C16   C     C_2   0.459952 0.542190 0.935140 0.234050
C17   C     C_2   0.016605 0.924658 0.115636 -0.055191
C18   C     C_2   0.991131 0.077850 0.885230 -0.111160
C19   C     C_2   0.991731 0.422028 0.885332 -0.108801
C20   C     C_2   0.017579 0.574974 0.116090 -0.052450
C21   C     C_2   0.022526 0.964008 0.006739 -0.129074
C22   C     C_2   0.000726 0.040713 0.002651 -0.167752
C23   C     C_2   0.002339 0.458936 0.003298 -0.164734
C24   C     C_2   0.023891 0.535685 0.007381 -0.121484
C25   C     C_R   0.470791 0.646914 0.443351 0.547040
C26   C     C_R   0.527994 0.352236 0.554763 0.518602
C27   C     C_R   0.527973 0.147666 0.554948 0.512768
C28   C     C_R   0.471117 0.852931 0.443668 0.555072
C29   C     C_R   0.353083 0.637936 0.011808 0.607444
C30   C     C_R   0.642535 0.363847 0.993608 0.530068
C31   C     C_R   0.641895 0.136054 0.994705 0.539138
C32   C     C_R   0.352315 0.861743 0.013546 0.655521
C33   C     C_R   0.495775 0.423141 0.481957 -0.006348
C34   C     C_R   0.498748 0.574272 0.509060 0.037558
C35   C     C_R   0.499922 0.925337 0.510257 0.005482
C36   C     C_R   0.495924 0.076486 0.483127 -0.007715
C37   C     C_R   0.284638 0.421316 0.481764 -0.102586
C38   C     C_R   0.711599 0.574645 0.512289 -0.126269
C39   C     C_R   0.712257 0.925608 0.511926 -0.131887
C40   C     C_R   0.285514 0.077330 0.486002 -0.097742
C41   C     C_R   0.198561 0.451715 0.532645 0.327370
C42   C     C_R   0.802125 0.542070 0.471343 0.352768
C43   C     C_R   0.802884 0.958781 0.471775 0.355834
C44   C     C_R   0.200329 0.046307 0.537751 0.327985
C45   C     C_R   0.212995 0.523293 0.579288 0.304097
C46   C     C_R   0.787191 0.470378 0.425359 0.336454
C47   C     C_R   0.787453 0.030505 0.425989 0.340214
C48   C     C_R   0.215851 0.974738 0.584433 0.307679
C49   C     C_R   0.310854 0.564525 0.569502 -0.099480
C50   C     C_R   0.681970 0.431947 0.420610 -0.131635
C51   C     C_R   0.681677 0.068373 0.420679 -0.126330
C52   C     C_R   0.314225 0.934196 0.574510 -0.106040
C53   C     C_R   0.400288 0.533559 0.522481 0.025637
C54   C     C_R   0.592465 0.463799 0.465757 -0.032817
C55   C     C_R   0.592554 0.036145 0.466147 -0.031347
C56   C     C_R   0.402155 0.965679 0.525609 -0.003946
Cr1   Cr    Cr6+3 0.187610 0.750000 0.979860 1.014995
Cr2   Cr    Cr6+3 0.812390 0.250000 0.020140 0.992985
Cr3   Cr    Cr6+3 0.245810 0.750000 0.341640 1.046153
Cr4   Cr    Cr6+3 0.754190 0.250000 0.658360 1.018525
Cr5   Cr    Cr6+3 0.485760 0.750000 0.219910 1.112152
Cr6   Cr    Cr6+3 0.514240 0.250000 0.780090 1.098218
H1    H     H_    0.271729 0.366022 0.443784 0.106462
H2    H     H_    0.725782 0.629709 0.551436 0.112951
H3    H     H_    0.726658 0.870467 0.550604 0.110751
H4    H     H_    0.271491 0.132542 0.447632 0.107412
H5    H     H_    0.321595 0.619184 0.609916 0.126801
H6    H     H_    0.668811 0.377649 0.377565 0.128489
H7    H     H_    0.667976 0.122609 0.377315 0.128991
H8    H     H_    0.326734 0.879656 0.616030 0.158213
H9    H     H_    0.983231 0.065826 0.091547 0.160747
H10   H     H_    0.051671 0.940572 0.924486 0.180759
H11   H     H_    0.052818 0.559266 0.925024 0.181448
H12   H     H_    0.985425 0.433662 0.092482 0.159105
H13   H     H_    0.008753 0.052276 0.796585 0.180381
H14   H     H_    0.991027 0.948974 0.199754 0.166914
H15   H     H_    0.992180 0.550535 0.200286 0.165409
H16   H     H_    0.008810 0.447769 0.796438 0.180039
O1    O     O_R   0.267710 0.668200 0.902110 -0.558380
O2    O     O_R   0.732290 0.331800 0.097890 -0.552102
O3    O     O_R   0.732290 0.168200 0.097890 -0.549001
O4    O     O_R   0.267710 0.831800 0.902110 -0.537340
O5    O     O_R   0.099480 0.674460 0.038850 -0.516797
O6    O     O_R   0.900520 0.325540 0.961150 -0.519856
O7    O     O_R   0.900520 0.174460 0.961150 -0.519815
O8    O     O_R   0.099480 0.825540 0.038850 -0.523474
O9    O     O_R   0.116720 0.669210 0.267660 -0.489525
O10   O     O_R   0.883280 0.330790 0.732340 -0.490535
O11   O     O_R   0.883280 0.169210 0.732340 -0.492262
O12   O     O_R   0.116720 0.830790 0.267660 -0.487662
O13   O     O_R   0.366710 0.675440 0.427590 -0.505464
O14   O     O_R   0.633290 0.324560 0.572410 -0.511457
O15   O     O_R   0.633290 0.175440 0.572410 -0.512471
O16   O     O_R   0.366710 0.824560 0.427590 -0.501884
O17   O     O_R   0.534870 0.669390 0.371760 -0.513654
O18   O     O_R   0.465130 0.330610 0.628240 -0.495536
O19   O     O_R   0.465130 0.169390 0.628240 -0.500024
O20   O     O_R   0.534870 0.830610 0.371760 -0.514539
O21   O     O_R   0.453080 0.674480 0.075160 -0.460034
O22   O     O_R   0.546920 0.325520 0.924840 -0.407499
O23   O     O_R   0.546920 0.174480 0.924840 -0.403851
O24   O     O_R   0.453080 0.825520 0.075160 -0.424527
O25   O     O_3   0.306390 0.750000 0.180470 -0.299953
O26   O     O_3   0.693610 0.250000 0.819530 -0.288443
O27   O     O_3   0.106343 0.410761 0.550315 -0.614221
H17   H     H_    0.110556 0.360911 0.516344 0.307125
O28   O     O_3   0.902321 0.580342 0.467308 -0.598135
H18   H     H_    0.898345 0.630471 0.500032 0.304557
O29   O     O_3   0.903738 0.921094 0.468378 -0.597226
H19   H     H_    0.900015 0.870841 0.500702 0.304963
O30   O     O_3   0.107532 0.086549 0.555525 -0.614346
H20   H     H_    0.111097 0.136532 0.521750 0.308474
O31   O     O_3   0.134210 0.550424 0.641194 -0.636223
H21   H     H_    0.152109 0.602383 0.661838 0.327032
O32   O     O_3   0.875801 0.439440 0.383128 -0.625758
H22   H     H_    0.854913 0.387925 0.359773 0.319097
O33   O     O_3   0.876017 0.061996 0.384216 -0.626758
H23   H     H_    0.854833 0.113491 0.361205 0.318344
O34   O     O_3   0.137152 0.946803 0.645744 -0.638095
H24   H     H_    0.153660 0.894509 0.662588 0.329920
O35   O     O_3   0.396109 0.081867 0.866274 -0.684840
H25   H     H_    0.316515 0.055469 0.829605 0.326706
O36   O     O_3   0.505149 0.906433 0.875266 -0.666738
H26   H     H_    0.558531 0.931295 0.832040 0.321407
O37   O     O_3   0.512797 0.589417 0.866445 -0.675713
H27   H     H_    0.469784 0.636410 0.848578 0.340362
O38   O     O_3   0.398053 0.418753 0.859981 -0.689629
H28   H     H_    0.318495 0.445088 0.823277 0.323652
C57   C     C_2   0.714953 0.010490 0.088606 0.178739
H29   H     H_    0.808316 0.029854 0.116725 0.138969
O39   O     O_2   0.699394 0.949827 0.126450 -0.463285
C58   C     C_2   0.336504 0.988835 0.092718 0.133975
H30   H     H_    0.348010 0.046658 0.087689 0.147666
O40   O     O_2   0.292583 0.965893 0.177887 -0.536435
C59   C     C_2   0.337600 0.510676 0.085911 0.147917
H31   H     H_    0.347736 0.452875 0.078748 0.142373
O41   O     O_2   0.294641 0.532914 0.172475 -0.534998
C60   C     C_2   0.716525 0.489579 0.086236 0.218800
H32   H     H_    0.809773 0.469888 0.115718 0.129927
O42   O     O_2   0.701186 0.550487 0.122960 -0.451879

loop_
_geom_bond_atom_site_label_1
_geom_bond_atom_site_label_2
_ccdc_geom_bond_type
C1    O9    A    
C44   C48   A    
C18   H13   S    
C5    C37   A    
C12   C29   S    
C3    O7    A    
Cr1   O1    S    
C2    O6    A    
Cr5   O20   S    
C7    C55   A    
C8    C56   A    
Cr4   O10   S    
O36   H26   S    
Cr4   O11   S    
C50   C54   A    
C41   O27   S    
C46   O32   S    
C31   O23   A    
C5    C53   A    
Cr5   O25   S    
C11   C60   S    
C38   C42   A    
Cr6   O18   S    
C42   C46   A    
C13   O36   S    
C24   H11   S    
C4    O8    A    
C26   O14   A    
C15   C16   S    
C30   O22   A    
Cr1   O8    S    
C3    C18   S    
C28   O16   A    
C8    C36   A    
C9    C13   D    
C9    C32   S    
C50   H6    S    
C47   O33   S    
C11   C15   D    
C10   C31   S    
C20   C24   D    
C11   C30   S    
C58   H30   S    
C12   C59   S    
C5    C33   A    
C17   H14   S    
C23   C24   S    
C6    C38   A    
C2    O10   A    
Cr3   O16   S    
C45   C49   A    
C16   O37   S    
Cr6   O26   S    
Cr2   O2    S    
C25   C34   S    
Cr6   O23   S    
C30   O2    A    
Cr4   O15   S    
C35   C56   A    
C14   O35   S    
C40   H4    S    
C21   C22   S    
C39   H3    S    
Cr5   O21   S    
C6    C54   A    
C37   H1    S    
C48   O34   S    
C4    O12   A    
Cr4   O14   S    
C26   O18   A    
Cr1   O25   S    
C25   O13   A    
C29   O21   A    
C21   H10   S    
C12   C16   D    
C59   H31   S    
C28   C35   S    
C10   C14   D    
Cr2   O3    S    
C39   C43   A    
C17   C21   D    
C6    C34   A    
Cr3   O12   S    
C19   H16   S    
C19   C23   D    
Cr2   O6    S    
Cr6   O19   S    
C26   C33   S    
C29   O1    A    
C48   C52   A    
O28   H18   S    
Cr1   O5    S    
Cr3   O13   S    
O35   H25   S    
C60   O42   D    
Cr6   O22   S    
C4    C17   S    
C20   H15   S    
C25   O17   A    
O37   H27   S    
C32   O24   A    
C27   O15   A    
Cr2   O26   S    
C23   H12   S    
O38   H28   S    
Cr2   O7    S    
C22   H9    S    
C8    C40   A    
O31   H21   S    
C42   O28   S    
C9    C58   S    
C28   O20   A    
C33   C54   A    
C59   O41   D    
C27   O19   A    
C1    C20   S    
C7    C39   A    
C49   H5    S    
O30   H20   S    
C2    C19   S    
C18   C22   D    
C7    C35   A    
C47   C51   A    
O34   H24   S    
Cr5   O17   S    
C27   C36   S    
C1    O5    A    
C32   O4    A    
O27   H17   S    
C46   C50   A    
C31   O3    A    
C3    O11   A    
Cr3   O25   S    
Cr5   O24   S    
C57   H29   S    
C10   C57   S    
C36   C55   A    
Cr4   O26   S    
O33   H23   S    
C51   H7    S    
C52   C56   A    
C49   C53   A    
C51   C55   A    
C37   C41   A    
Cr3   O9    S    
C52   H8    S    
C60   H32   S    
C44   O30   S    
C45   O31   S    
C40   C44   A    
C34   C53   A    
C58   O40   D    
O29   H19   S    
C38   H2    S    
C41   C45   A    
Cr1   O4    S    
C15   O38   S    
C43   O29   S    
C13   C14   S    
C43   C47   A    
O32   H22   S    
C57   O39   D    
