data_mof_unit_2129.cif
_audit_creation_date              2013-03-05T15:42:40-0500
_audit_creation_method            fapswitch 2.2
_symmetry_space_group_name_H-M    P1
_symmetry_Int_Tables_number       1
_space_group_crystal_system       triclinic
_cell_length_a                    7.740098
_cell_length_b                    8.558461
_cell_length_c                    27.746037
_cell_angle_alpha                 91.082627
_cell_angle_beta                  85.639934
_cell_angle_gamma                 93.837855
_cell_volume                      1828.38472078

loop_
_atom_site_label
_atom_site_type_symbol
_atom_site_description
_atom_site_fract_x
_atom_site_fract_y
_atom_site_fract_z
_atom_type_partial_charge
O1    O     O_R   0.389250 0.738570 0.503220 -0.611947
O2    O     O_R   0.610750 0.261430 0.496780 -0.611951
O3    O     O_R   0.678390 0.711630 0.494810 -0.628384
O4    O     O_R   0.321610 0.288370 0.505190 -0.628388
C1    C     C_R   0.546018 0.794899 0.498732 0.976249
C2    C     C_R   0.453982 0.205101 0.501268 0.976237
O5    O     O_R   0.355440 0.513440 0.575450 -0.621636
O6    O     O_R   0.644560 0.486560 0.424550 -0.621624
O7    O     O_R   0.644590 0.486500 0.567040 -0.630080
O8    O     O_R   0.355410 0.513500 0.432960 -0.630081
C3    C     C_R   0.501997 0.500076 0.593925 0.876636
C4    C     C_R   0.498000 0.499913 0.406075 0.876604
Zn1   Zn    Zn3+2 0.306940 0.517990 0.505620 0.952350
Zn2   Zn    Zn3+2 0.693060 0.482010 0.494380 0.952355
C5    C     C_R   0.585712 0.627620 0.820957 0.551886
C6    C     C_R   0.414170 0.372241 0.179053 0.551912
O9    O     O_2   0.672021 0.742106 0.794280 -0.480083
O10   O     O_2   0.327779 0.257807 0.205734 -0.480073
N1    N     N_R   0.510280 0.501235 0.798021 -0.367656
N2    N     N_R   0.489678 0.498593 0.201985 -0.367682
C7    C     C_R   0.429110 0.377785 0.822749 0.548425
C8    C     C_R   0.570912 0.622010 0.177257 0.548450
C9    C     C_R   0.662736 0.478949 0.717937 -0.073530
C10   C     C_R   0.337356 0.521498 0.282064 -0.073633
C11   C     C_R   0.660928 0.478792 0.667866 -0.212509
C12   C     C_R   0.339176 0.521711 0.332135 -0.212497
C13   C     C_R   0.352727 0.522472 0.675709 -0.198414
C14   C     C_R   0.647126 0.476817 0.324291 -0.198374
C15   C     C_R   0.355096 0.522911 0.725620 -0.087706
C16   C     C_R   0.644745 0.476333 0.274379 -0.087802
C17   C     C_R   0.509738 0.500940 0.746714 0.299290
C18   C     C_R   0.490224 0.498886 0.253289 0.299416
C19   C     C_R   0.499011 0.505968 0.898092 -0.092570
C20   C     C_R   0.500909 0.493866 0.101917 -0.092551
C21   C     C_R   0.575125 0.636651 0.871856 -0.146120
C22   C     C_R   0.424754 0.363202 0.128155 -0.146139
C23   C     C_R   0.638276 0.770231 0.897316 0.350947
C24   C     C_R   0.361558 0.229635 0.102698 0.350955
C25   C     C_R   0.423236 0.377070 0.873091 -0.003247
C26   C     C_R   0.576744 0.622741 0.126916 -0.003261
C27   C     C_R   0.505632 0.500373 0.646464 -0.042970
C28   C     C_R   0.494354 0.499557 0.353536 -0.042975
H1    H     H_    0.231375 0.539712 0.660129 0.164773
H2    H     H_    0.768377 0.459096 0.339871 0.164802
H3    H     H_    0.236951 0.540407 0.748034 0.149997
H4    H     H_    0.762782 0.458356 0.251963 0.150012
C29   C     C_R   0.578642 0.628919 0.025166 0.076756
C30   C     C_R   0.421275 0.370909 0.974843 0.076758
C31   C     C_R   0.425948 0.366304 0.025805 -0.003991
C32   C     C_R   0.573935 0.633537 0.974206 -0.003991
C33   C     C_R   0.501627 0.496329 0.050778 0.082003
C34   C     C_R   0.498278 0.503506 0.949231 0.082004
C35   C     C_R   0.661221 0.751726 0.051552 -0.207297
C36   C     C_R   0.338749 0.248080 0.948454 -0.207304
C37   C     C_R   0.658862 0.748896 0.101374 -0.048592
C38   C     C_R   0.341140 0.250902 0.898631 -0.048537
O11   O     O_2   0.644185 0.744345 0.201553 -0.507430
O12   O     O_2   0.355944 0.255398 0.798453 -0.507411
C39   C     C_R   0.637672 0.766745 0.947435 -0.284351
C40   C     C_R   0.362161 0.233116 0.052579 -0.284333
H5    H     H_    0.219817 0.539547 0.353964 0.162936
H6    H     H_    0.780395 0.461472 0.646038 0.162868
H7    H     H_    0.217824 0.539126 0.265577 0.150007
H8    H     H_    0.782369 0.461775 0.734422 0.149970
H9    H     H_    0.722435 0.846875 0.119840 0.219989
H10   H     H_    0.277605 0.152907 0.880163 0.219998
H11   H     H_    0.731861 0.851813 0.035030 0.156147
H12   H     H_    0.268140 0.147971 0.964972 0.156130
H13   H     H_    0.682036 0.874492 0.964439 0.174338
H14   H     H_    0.317746 0.125379 0.035579 0.174336
C41   C     C_2   0.570293 0.958434 0.497998 -0.370051
C42   C     C_2   0.429707 0.041566 0.502001 -0.370047
H15   H     H_    0.702930 0.009846 0.494179 0.180890
H16   H     H_    0.297070 0.990154 0.505821 0.180890
N3    N     N_2   0.950320 0.457960 0.486880 -0.175422
N4    N     N_2   0.049680 0.542040 0.513120 -0.175428
H17   H     H_    0.014301 0.382908 0.463416 0.192417
H18   H     H_    0.985699 0.617092 0.536584 0.192402
N5    N     N_R   0.694196 0.914630 0.873644 0.244383
O13   O     O_R   0.838384 0.989831 0.884273 -0.384896
O14   O     O_R   0.585219 0.986422 0.849876 -0.331496
N6    N     N_R   0.305611 0.085248 0.126373 0.244387
O15   O     O_R   0.161409 0.010069 0.115747 -0.384899
O16   O     O_R   0.414575 0.013441 0.150141 -0.331545

loop_
_geom_bond_atom_site_label_1
_geom_bond_atom_site_label_2
_geom_bond_distance
_ccdc_geom_bond_type
C13   C15   1.386292 A    
O7    Zn2   2.022518 S    
N1    C17   1.423839 S    
C8    O11   1.350644 S    
C19   C34   1.419039 A    
C30   C36   1.414684 A    
C23   N5    1.435914 S    
C20   C33   1.419031 A    
C19   C25   1.410134 A    
C31   C40   1.412745 A    
O1    C1    1.273283 A    
C32   C39   1.412735 A    
N1    C7    1.361884 A    
C12   H5    1.083483 S    
N4    H18   1.029285 S    
C30   C34   1.422518 A    
C36   H12   1.075580 S    
C14   C28   1.404817 A    
O4    Zn1   1.975804 S    
C4    C28   1.460091 S    
C31   C33   1.416660 A    
C32   C34   1.416650 A    
C6    N2    1.364447 A    
C29   C35   1.414686 A    
C24   N6    1.435914 S    
C15   C17   1.396915 A    
C7    O12   1.350645 S    
O2    C2    1.273284 A    
O2    Zn2   1.952306 S    
C5    C21   1.409345 A    
C37   H9    1.083819 S    
O5    C3    1.292535 A    
C29   C32   1.418546 A    
C35   C37   1.381752 A    
C36   C38   1.381748 A    
O4    C2    1.283483 A    
C11   C27   1.404971 A    
C41   H15   1.087905 S    
C29   C33   1.422511 A    
C2    C42   1.399966 S    
C14   H2    1.083454 S    
C15   H3    1.083390 S    
C9    C17   1.398469 A    
C5    N1    1.364481 A    
N3    N4    1.276943 D    
C10   C18   1.398594 A    
N3    H17   1.029284 S    
C13   C27   1.404639 A    
C25   C38   1.393022 A    
C7    C25   1.394199 A    
Zn1   N4    2.010190 S    
C40   H14   1.075475 S    
O6    C4    1.292534 A    
C26   C37   1.393019 A    
C8    C26   1.394199 A    
O7    C3    1.294906 A    
C23   C39   1.391133 A    
O3    Zn2   1.975804 S    
O8    C4    1.294903 A    
C39   H13   1.075487 S    
C24   C40   1.391138 A    
C42   H16   1.087906 S    
C9    H8    1.083229 S    
N2    C8    1.361854 A    
C10   H7    1.083345 S    
N6    O16   1.301217 A    
C20   C26   1.410150 A    
O1    Zn1   1.952306 S    
C12   C28   1.405119 A    
N5    O14   1.301220 A    
N2    C18   1.423762 S    
C5    O9    1.348627 S    
C30   C31   1.418563 A    
O6    Zn2   2.002939 S    
C21   C23   1.411422 A    
C16   H4    1.083516 S    
C10   C12   1.390379 A    
O3    C1    1.283482 A    
O8    Zn1   2.022518 S    
Zn2   N3    2.010189 S    
C14   C16   1.386296 A    
C41   C42   1.335999 D    
C1    C41   1.399966 S    
C6    C22   1.409334 A    
C16   C18   1.397031 A    
C38   H10   1.083820 S    
C22   C24   1.411405 A    
C19   C21   1.416064 A    
C3    C27   1.460097 S    
C20   C22   1.416065 A    
C11   H6    1.083341 S    
C9    C11   1.390378 A    
C35   H11   1.075589 S    
N5    O13   1.301323 A    
C13   H1    1.083327 S    
O5    Zn1   2.002938 S    
C6    O10   1.348633 S    
N6    O15   1.301312 A    
