data_mof_unit_3441.cif
_audit_creation_date              2012-12-10T19:28:36-0500
_audit_creation_method            fapswitch 2.2
_symmetry_space_group_name_H-M    P1
_symmetry_Int_Tables_number       1
_space_group_crystal_system       triclinic
_cell_length_a                    27.676597
_cell_length_b                    10.536028
_cell_length_c                    9.867089
_cell_angle_alpha                 89.131174
_cell_angle_beta                  90.06788
_cell_angle_gamma                 91.810887
_cell_volume                      2875.48865043

loop_
_atom_site_label
_atom_site_type_symbol
_atom_type_description
_atom_site_fract_x
_atom_site_fract_y
_atom_site_fract_z
_atom_type_partial_charge
C1    C     C_R   0.500668 0.258207 0.501105 0.878691
C2    C     C_R   0.872738 0.389096 0.431033 -0.097897
C3    C     C_R   0.353491 0.503307 0.500179 -0.101730
C4    C     C_R   0.646509 0.496692 0.499821 -0.101731
C5    C     C_R   0.974936 0.401251 0.432022 0.060281
C6    C     C_R   0.025064 0.598741 0.567989 0.060282
C7    C     C_R   0.973980 0.600509 0.557492 -0.075432
C8    C     C_R   0.026020 0.399484 0.442519 -0.075431
C9    C     C_R   0.949040 0.496250 0.497777 0.049793
C10   C     C_R   0.050960 0.503743 0.502233 0.049793
C11   C     C_R   0.949183 0.317934 0.346534 -0.166389
C12   C     C_R   0.499332 0.741793 0.498895 0.878691
C13   C     C_R   0.050817 0.682057 0.653479 -0.166389
C14   C     C_R   0.899133 0.307419 0.348680 0.448546
C15   C     C_R   0.100867 0.692572 0.651332 0.448547
C16   C     C_R   0.406280 0.498799 0.500076 0.860452
C17   C     C_R   0.593720 0.501201 0.499924 0.860454
C18   C     C_R   0.053123 0.293525 0.404212 0.284672
C19   C     C_R   0.946877 0.706467 0.595799 0.284673
C20   C     C_3   0.517981 0.037430 0.619157 0.193273
C21   C     C_3   0.482019 0.962569 0.380842 0.193273
C22   C     C_3   0.544823 0.959974 0.514679 0.156811
C23   C     C_R   0.102153 0.511074 0.500622 -0.156282
C24   C     C_3   0.455177 0.040025 0.485320 0.156812
C25   C     C_3   0.499126 0.876592 0.496586 -0.076458
C26   C     C_3   0.500874 0.123408 0.503414 -0.076457
C27   C     C_3   0.471854 0.952762 0.602240 -0.237956
C28   C     C_3   0.528146 0.047237 0.397760 -0.237955
C29   C     C_3   0.518512 0.398631 0.049535 -0.015972
C30   C     C_3   0.481488 0.601369 0.950465 -0.015972
C31   C     C_3   0.543246 0.494255 0.952738 0.366178
C32   C     C_3   0.456754 0.505745 0.047262 0.366177
C33   C     C_3   0.475322 0.404380 0.953358 0.352971
C34   C     C_R   0.897847 0.488919 0.499387 -0.156282
C35   C     C_3   0.524678 0.595620 0.046642 0.352971
C36   C     C_R   0.178491 0.435815 0.419864 0.591339
C37   C     C_R   0.821508 0.564180 0.580142 0.591338
C38   C     C_R   0.177925 0.619498 0.558632 0.560103
C39   C     C_R   0.822074 0.380497 0.441374 0.560102
C40   C     C_R   0.282243 0.598450 0.403554 0.168165
C41   C     C_R   0.717757 0.401548 0.596448 0.168165
C42   C     C_R   0.332153 0.586425 0.407529 -0.190938
C43   C     C_R   0.667846 0.413573 0.592472 -0.190938
C44   C     C_R   0.324487 0.431175 0.593356 0.109434
C45   C     C_R   0.128095 0.418025 0.431712 -0.171159
C46   C     C_R   0.675514 0.568822 0.406645 0.109433
C47   C     C_R   0.274124 0.447783 0.594631 0.163837
C48   C     C_R   0.725877 0.552214 0.405371 0.163837
C49   C     C_R   0.253302 0.528993 0.496967 0.247052
C50   C     C_R   0.746698 0.471004 0.503037 0.247054
C51   C     C_3   0.345869 0.334052 0.688670 -0.731847
C52   C     C_3   0.654132 0.665944 0.311328 -0.731846
C53   C     C_3   0.540137 0.076840 0.753945 -0.803056
C54   C     C_3   0.459863 0.923160 0.246055 -0.803055
C55   C     C_3   0.540440 0.278513 0.105741 -0.699557
C56   C     C_R   0.871905 0.581969 0.568295 -0.171159
C57   C     C_3   0.459560 0.721487 0.894259 -0.699557
C58   C     C_3   0.242629 0.376210 0.697988 -0.759399
C59   C     C_3   0.757371 0.623787 0.302015 -0.759399
C60   C     C_3   0.740066 0.315588 0.700780 -0.735711
C61   C     C_3   0.259933 0.684409 0.299222 -0.735707
C62   C     C_3   0.596215 0.915197 0.530882 -0.840617
C63   C     C_3   0.403785 0.084803 0.469118 -0.840618
C64   C     C_R   0.103315 0.306350 0.387794 0.395761
C65   C     C_R   0.896685 0.693644 0.612214 0.395761
C66   C     C_R   0.127262 0.610898 0.568976 -0.097896
Cl1   Cl    Cl    0.603971 0.487132 0.895070 -0.564273
Cl2   Cl    Cl    0.972313 0.863572 0.590588 -0.406630
Cl3   Cl    Cl    0.396029 0.512868 0.104930 -0.564272
Cl4   Cl    Cl    0.440370 0.272995 0.892250 -0.620613
Cl5   Cl    Cl    0.559630 0.727005 0.107750 -0.620613
Cl6   Cl    Cl    0.133905 0.173460 0.325721 -0.382358
Cl7   Cl    Cl    0.866095 0.826534 0.674287 -0.382357
Cl8   Cl    Cl    0.872767 0.193142 0.239627 -0.426813
Cl9   Cl    Cl    0.127233 0.806845 0.760388 -0.426815
Cl10  Cl    Cl    0.027687 0.136421 0.409426 -0.406629
H1    H     H_    0.447919 0.913798 0.683811 0.172403
H2    H     H_    0.616848 0.689187 0.338344 0.261893
H3    H     H_    0.675039 0.757344 0.315936 0.235735
H4    H     H_    0.654634 0.630355 0.206053 0.291707
H5    H     H_    0.553189 0.991770 0.808773 0.253098
H6    H     H_    0.570943 0.145039 0.736115 0.237580
H7    H     H_    0.512726 0.121522 0.817042 0.289061
H8    H     H_    0.446811 0.008230 0.191227 0.253099
H9    H     H_    0.487274 0.878479 0.182958 0.289061
H10   H     H_    0.429057 0.854959 0.263885 0.237580
H11   H     H_    0.557770 0.226977 0.022490 0.238385
H12   H     H_    0.552081 0.086202 0.316189 0.172403
H13   H     H_    0.568103 0.303095 0.183293 0.253252
H14   H     H_    0.511465 0.216096 0.150428 0.249854
H15   H     H_    0.442230 0.773023 0.977510 0.238385
H16   H     H_    0.488535 0.783904 0.849572 0.249854
H17   H     H_    0.431897 0.696905 0.816707 0.253252
H18   H     H_    0.256950 0.392500 0.801621 0.258794
H19   H     H_    0.204676 0.406338 0.698644 0.231318
H20   H     H_    0.242077 0.273067 0.676663 0.260986
H21   H     H_    0.743052 0.607497 0.198382 0.258794
H22   H     H_    0.757924 0.726930 0.323341 0.260986
H23   H     H_    0.645294 0.357009 0.661588 0.192841
H24   H     H_    0.795325 0.593658 0.301361 0.231318
H25   H     H_    0.712279 0.268609 0.767272 0.242475
H26   H     H_    0.760213 0.240538 0.649586 0.263024
H27   H     H_    0.765360 0.371571 0.765707 0.258855
H28   H     H_    0.287720 0.731390 0.232731 0.242474
H29   H     H_    0.234640 0.628425 0.234296 0.258856
H30   H     H_    0.239786 0.759457 0.350416 0.263024
H31   H     H_    0.620119 0.995302 0.564300 0.253522
H32   H     H_    0.597237 0.836729 0.607062 0.259333
H33   H     H_    0.609328 0.882533 0.432003 0.247783
H34   H     H_    0.354705 0.642990 0.338414 0.192841
H35   H     H_    0.379881 0.004699 0.435694 0.253523
H36   H     H_    0.390671 0.117461 0.567998 0.247783
H37   H     H_    0.402763 0.163275 0.392942 0.259332
H38   H     H_    0.967682 0.262602 0.272691 0.220223
H39   H     H_    0.032318 0.737387 0.727323 0.220222
H40   H     H_    0.383153 0.310810 0.661652 0.261892
H41   H     H_    0.345367 0.369640 0.793946 0.291708
H42   H     H_    0.324962 0.242652 0.684061 0.235734
N1    N     N_R   0.201839 0.532069 0.486488 -0.364104
N2    N     N_R   0.798161 0.467927 0.513517 -0.364103
N3    N     N_3   0.499960 0.500030 0.863290 -0.164818
N4    N     N_3   0.500040 0.499970 0.136710 -0.164819
O1    O     O_R   0.500000 0.313960 0.616610 -0.576479
O2    O     O_2   0.795323 0.642035 0.656100 -0.464436
O3    O     O_2   0.796325 0.287243 0.379714 -0.468724
O4    O     O_2   0.203675 0.712753 0.620290 -0.468723
O5    O     O_R   0.500000 0.686040 0.383390 -0.576479
O6    O     O_R   0.500020 0.313950 0.383350 -0.624938
O7    O     O_R   0.499980 0.686050 0.616650 -0.624937
O8    O     O_R   0.428750 0.500030 0.616610 -0.599511
O9    O     O_R   0.571250 0.499970 0.383390 -0.599512
O10   O     O_R   0.428770 0.500020 0.383360 -0.559386
O11   O     O_R   0.571230 0.499980 0.616640 -0.559386
O12   O     O_2   0.204677 0.357961 0.343905 -0.464436
Zn1   Zn    Zn3+2 0.499990 0.500010 0.655740 1.023996
Zn2   Zn    Zn3+2 0.500010 0.499990 0.344260 1.023996

loop_
_geom_bond_atom_site_label_1
_geom_bond_atom_site_label_2
_ccdc_geom_bond_type
C15   Cl9   S    
C3    C42   A    
C34   C56   A    
C23   C45   A    
C57   H16   S    
C29   C33   S    
C17   O9    A    
O8    Zn1   S    
C24   C27   S    
C54   H8    S    
C47   C49   A    
C12   O5    A    
C4    C46   A    
C31   Cl1   S    
C62   H33   S    
C30   C35   S    
C39   O3    S    
C14   Cl8   S    
C23   C66   A    
C43   H23   S    
C5    C11   A    
C55   H14   S    
O6    Zn2   S    
C21   C54   S    
C11   C14   A    
C60   H26   S    
C62   H32   S    
C40   C49   A    
C30   C57   S    
C46   C52   S    
C51   H42   S    
C65   Cl7   S    
C53   H5    S    
C49   N1    S    
C63   H36   S    
C36   N1    A    
C11   H38   S    
C58   H20   S    
O7    Zn1   S    
C37   C56   A    
C2    C39   A    
C38   C66   A    
C22   C25   S    
C28   H12   S    
C1    O6    A    
C52   H3    S    
C16   O8    A    
C44   C47   A    
C2    C34   A    
C40   C42   A    
C2    C14   A    
C35   Cl5   S    
C22   C28   S    
C33   N3    S    
C59   H24   S    
C41   C43   A    
C52   H2    S    
C38   O4    S    
C46   C48   A    
C3    C44   A    
C12   O7    A    
C32   N4    S    
C19   Cl2   S    
C61   H28   S    
O5    Zn2   S    
C31   N3    S    
O9    Zn2   S    
C54   H10   S    
C62   H31   S    
C29   C55   S    
C15   C66   A    
C8    C18   A    
C40   C61   S    
O1    Zn1   S    
C53   H6    S    
C58   H19   S    
C1    O1    A    
C5    C9    A    
C22   C62   S    
C37   O2    S    
C56   C65   A    
C30   N3    S    
O10   Zn2   S    
C29   N4    S    
C36   C45   A    
N3    Zn1   S    
C61   H30   S    
N4    Zn2   S    
C13   H39   S    
C33   Cl4   S    
C55   H11   S    
C4    C17   S    
C44   C51   S    
C8    C10   A    
C4    C43   A    
C21   C28   S    
C20   C22   S    
C24   C63   S    
C7    C19   A    
C13   C15   A    
C17   O11   A    
C1    C26   S    
C59   H21   S    
C50   N2    S    
C5    C8    A    
C38   N1    A    
C60   H25   S    
C60   H27   S    
C41   C50   A    
C61   H29   S    
C48   C59   S    
C58   H18   S    
C7    C9    A    
C21   C25   S    
C18   Cl10  S    
C57   H15   S    
C32   Cl3   S    
C35   N4    S    
C41   C60   S    
C24   C26   S    
C20   C53   S    
C27   H1    S    
C36   O12   S    
C6    C10   A    
C54   H9    S    
C6    C7    A    
C20   C27   S    
C10   C23   A    
C25   C27   S    
C45   C64   A    
C26   C28   S    
C51   H40   S    
C12   C25   S    
C53   H7    S    
C32   C33   S    
C42   H34   S    
C29   C31   S    
C47   C58   S    
C30   C32   S    
C18   C64   A    
C9    C34   A    
C37   N2    A    
C20   C26   S    
C48   C50   A    
C51   H41   S    
C19   C65   A    
C31   C35   S    
C64   Cl6   S    
C63   H35   S    
C16   O10   A    
C63   H37   S    
C55   H13   S    
C21   C24   S    
O11   Zn1   S    
C59   H22   S    
C57   H17   S    
C52   H4    S    
C3    C16   S    
C39   N2    A    
C6    C13   A    
