data_mof_unit_1871.cif
_audit_creation_date              2012-10-26T19:51:24-0400
_audit_creation_method            fapswitch 2.2
_symmetry_space_group_name_H-M    P1
_symmetry_Int_Tables_number       1
_space_group_crystal_system       triclinic
_cell_length_a                    19.455204
_cell_length_b                    18.263179
_cell_length_c                    9.096367
_cell_angle_alpha                 89.998827
_cell_angle_beta                  91.143287
_cell_angle_gamma                 89.997381
_cell_volume                      3231.42195655

loop_
_atom_site_label
_atom_site_type_symbol
_atom_type_description
_atom_site_fract_x
_atom_site_fract_y
_atom_site_fract_z
_atom_type_partial_charge
C1    C     C_R   0.367636 0.500060 0.500583 0.542763
C2    C     C_R   0.440218 0.200471 0.470064 -0.055444
C3    C     C_R   0.499996 0.837906 0.499972 0.088768
C4    C     C_R   0.500003 0.160167 0.499995 0.059899
C5    C     C_R   0.540771 0.959282 0.604197 0.218933
C6    C     C_R   0.467409 0.036689 0.382827 0.202681
C7    C     C_R   0.459240 0.959295 0.395736 0.219063
C8    C     C_R   0.532604 0.036675 0.617126 0.202575
C9    C     C_R   0.500006 0.076870 0.499983 -0.079251
C10   C     C_R   0.500002 0.920153 0.499968 -0.077005
C11   C     C_R   0.499910 0.500003 0.220569 0.552774
C12   C     C_R   0.632366 0.500057 0.499518 0.542754
C13   C     C_R   0.500089 0.500002 0.779431 0.552732
C14   C     C_1   0.499969 0.500019 0.065492 -0.044540
C15   C     C_1   0.500030 0.500018 0.934508 -0.044540
C16   C     C_R   0.744719 0.434465 0.491885 -0.122249
C17   C     C_R   0.256035 0.567071 0.496632 -0.119833
C18   C     C_R   0.255326 0.434527 0.510110 -0.122052
C19   C     C_R   0.743972 0.567091 0.504327 -0.120025
C20   C     C_R   0.816287 0.434997 0.493084 -0.117531
C21   C     C_R   0.184475 0.567613 0.497781 -0.113043
C22   C     C_R   0.183773 0.435069 0.510518 -0.116816
C23   C     C_R   0.538546 0.721334 0.400542 0.236538
C24   C     C_R   0.815550 0.567596 0.504472 -0.113348
C25   C     C_R   0.852166 0.501540 0.499585 0.027779
C26   C     C_R   0.147729 0.501604 0.504241 0.029124
C27   C     C_R   0.707913 0.500469 0.498570 0.012357
C28   C     C_R   0.292099 0.500480 0.502296 0.012303
C29   C     C_R   0.963434 0.550168 0.410356 -0.106598
C30   C     C_R   0.036106 0.454224 0.595814 -0.107075
C31   C     C_R   0.035022 0.550083 0.411280 -0.106224
C32   C     C_R   0.964534 0.454028 0.594207 -0.107167
C33   C     C_R   0.071967 0.502083 0.503995 0.029920
C34   C     C_R   0.557206 0.277416 0.546443 0.241233
C35   C     C_R   0.927737 0.501971 0.501451 0.028698
C36   C     C_R   0.461440 0.721341 0.599434 0.236420
C37   C     C_R   0.442791 0.277421 0.453573 0.241051
C38   C     C_R   0.537717 0.798536 0.397095 -0.048361
C39   C     C_R   0.559785 0.200468 0.529938 -0.055434
C40   C     C_R   0.462264 0.798544 0.602852 -0.048592
Cu1   Cu    Cu3+1 0.500000 0.573360 0.500000 1.031210
Cu2   Cu    Cu3+1 0.500000 0.426640 0.500000 1.011807
H1    H     H_    0.718415 0.382382 0.485076 0.159010
H2    H     H_    0.063405 0.417546 0.670071 0.113369
H3    H     H_    0.061459 0.586706 0.337778 0.115529
H4    H     H_    0.937873 0.417110 0.666795 0.115041
H5    H     H_    0.567809 0.827588 0.316854 0.143569
H6    H     H_    0.607809 0.171974 0.547841 0.167550
H7    H     H_    0.432163 0.827604 0.683073 0.143437
H8    H     H_    0.392195 0.171979 0.452164 0.167608
H9    H     H_    0.565657 0.697460 0.193294 0.221135
H10   H     H_    0.631531 0.699403 0.317218 0.214279
H11   H     H_    0.596620 0.332020 0.719906 0.252121
H12   H     H_    0.283015 0.618848 0.491423 0.146941
H13   H     H_    0.654090 0.277321 0.640404 0.207323
H14   H     H_    0.434259 0.697487 0.806648 0.221097
H15   H     H_    0.368459 0.699415 0.682759 0.214600
H16   H     H_    0.403325 0.331993 0.280108 0.252191
H17   H     H_    0.345871 0.277351 0.359794 0.207778
H18   H     H_    0.598041 0.847340 0.916456 0.366080
H19   H     H_    0.357166 0.144141 0.131888 0.369809
H20   H     H_    0.401849 0.848007 0.082621 0.366324
H21   H     H_    0.642732 0.144417 0.867689 0.369548
H22   H     H_    0.281648 0.382426 0.516040 0.158802
H23   H     H_    0.716985 0.618869 0.509398 0.147030
H24   H     H_    0.843659 0.383465 0.487143 0.119241
H25   H     H_    0.157898 0.619713 0.495119 0.121796
H26   H     H_    0.156618 0.383357 0.513960 0.117469
H27   H     H_    0.842361 0.619518 0.510625 0.123520
H28   H     H_    0.935905 0.586977 0.336706 0.116242
N1    N     N_R   0.500000 0.683620 0.500000 -0.166005
N2    N     N_R   0.500000 0.316380 0.500000 -0.181234
N3    N     N_3   0.580665 0.682422 0.300109 -0.553102
N4    N     N_3   0.613776 0.313805 0.618106 -0.579703
N5    N     N_3   0.419298 0.682433 0.699853 -0.553056
N6    N     N_3   0.386206 0.313818 0.381962 -0.579433
O1    O     O_R   0.400190 0.561980 0.499980 -0.485814
O2    O     O_2   0.659537 0.959767 0.768118 -0.177259
O3    O     O_3   0.562097 0.875001 0.861365 -0.479154
O4    O     O_2   0.492381 0.143725 0.184333 -0.275532
O5    O     O_2   0.447305 0.028727 0.087482 -0.118615
O6    O     O_3   0.363193 0.113539 0.221102 -0.522300
O7    O     O_2   0.366273 0.848955 0.369758 -0.314977
O8    O     O_2   0.340473 0.959821 0.231858 -0.177897
O9    O     O_3   0.437925 0.875082 0.138496 -0.479167
O10   O     O_2   0.507619 0.143681 0.815655 -0.275820
O11   O     O_2   0.552722 0.028678 0.912466 -0.118109
O12   O     O_R   0.599810 0.438020 0.500020 -0.476084
O13   O     O_3   0.636813 0.113507 0.778842 -0.522196
O14   O     O_R   0.599810 0.561980 0.500020 -0.485844
O15   O     O_R   0.400190 0.438020 0.499980 -0.476131
O16   O     O_R   0.500000 0.561940 0.288400 -0.469029
O17   O     O_R   0.500000 0.438060 0.711600 -0.497180
O18   O     O_R   0.500000 0.561940 0.711600 -0.469023
O19   O     O_R   0.500000 0.438060 0.288400 -0.497049
O20   O     O_2   0.633763 0.848954 0.630072 -0.315298
S1    S     S_3+6 0.602351 0.910398 0.715674 0.067732
S2    S     S_3+6 0.444055 0.081387 0.213621 0.087456
S3    S     S_3+6 0.397669 0.910432 0.284226 0.067615
S4    S     S_3+6 0.555956 0.081352 0.786342 0.087517

loop_
_geom_bond_atom_site_label_1
_geom_bond_atom_site_label_2
_ccdc_geom_bond_type
C7    C10   A    
C21   C26   A    
H18   O3    S    
C20   C25   A    
O8    S3    D    
Cu2   O17   S    
C1    O1    A    
Cu1   Cu2   S    
H11   N4    S    
C6    C9    A    
H16   N6    S    
C7    S3    S    
C6    S2    S    
C20   H24   S    
C29   H28   S    
H19   O6    S    
Cu1   O1    S    
C11   C14   S    
O5    S2    D    
C40   H7    S    
Cu2   O15   S    
C2    H8    S    
H13   N4    S    
C11   O16   A    
C3    C38   A    
C8    C9    A    
C1    C28   S    
C31   C33   A    
O10   S4    D    
C36   N1    A    
Cu1   N1    S    
C16   C27   A    
Cu1   O14   S    
C1    O15   A    
H14   N5    S    
O7    S3    D    
C21   H25   S    
O6    S2    S    
C30   H2    S    
C23   N3    S    
C24   H27   S    
H20   O9    S    
C12   O12   A    
O13   S4    S    
C34   C39   A    
C32   C35   A    
C23   N1    A    
C36   C40   A    
C18   C28   A    
C24   C25   A    
H10   N3    S    
C12   C27   S    
C17   C21   A    
Cu2   O19   S    
C13   O17   A    
C2    C4    A    
O9    S3    S    
C36   N5    S    
C26   C33   S    
Cu1   O18   S    
C4    C39   A    
C16   C20   A    
O20   S1    D    
H21   O13   S    
O2    S1    D    
Cu2   N2    S    
C16   H1    S    
C22   H26   S    
C38   H5    S    
C25   C35   S    
C37   N6    S    
C34   N4    S    
C3    C40   A    
C13   C15   S    
C22   C26   A    
Cu2   O12   S    
C34   N2    A    
C19   C27   A    
O11   S4    D    
C11   O19   A    
C30   C33   A    
O4    S2    D    
C18   C22   A    
C17   C28   A    
C32   H4    S    
O3    S1    S    
H9    N3    S    
C5    S1    S    
C12   O14   A    
C5    C8    A    
C6    C7    A    
C23   C38   A    
C29   C35   A    
C13   O18   A    
H15   N5    S    
C19   C24   A    
C8    S4    S    
C5    C10   A    
C29   C31   A    
C3    C10   S    
C30   C32   A    
C2    C37   A    
C18   H22   S    
H17   N6    S    
C19   H23   S    
Cu1   O16   S    
C31   H3    S    
C37   N2    A    
C14   C15   T    
C4    C9    S    
C17   H12   S    
C39   H6    S    
