data_mof_unit_227.cif
_audit_creation_date              2012-12-11T14:50:46-0500
_audit_creation_method            fapswitch 2.2
_symmetry_space_group_name_H-M    P1
_symmetry_Int_Tables_number       1
_space_group_crystal_system       triclinic
_cell_length_a                    20.710257
_cell_length_b                    7.081744
_cell_length_c                    20.32625
_cell_angle_alpha                 90.001503
_cell_angle_beta                  101.579001
_cell_angle_gamma                 90.00418
_cell_volume                      2920.47450109

loop_
_atom_site_label
_atom_site_type_symbol
_atom_type_description
_atom_site_fract_x
_atom_site_fract_y
_atom_site_fract_z
_atom_type_partial_charge
O1    O     O_R   0.423690 0.494470 0.435930 -0.535817
O2    O     O_R   0.576310 0.994470 0.564070 -0.535829
O3    O     O_R   0.556070 0.822310 0.435760 -0.536404
O4    O     O_R   0.443930 0.322310 0.564240 -0.536397
C1    C     C_R   0.575748 0.655358 0.420639 0.727754
C2    C     C_R   0.424252 0.155352 0.579361 0.727778
O5    O     O_R   0.422940 0.824080 0.428040 -0.541112
O6    O     O_R   0.577060 0.324080 0.571960 -0.541144
O7    O     O_R   0.442240 0.995960 0.556300 -0.534922
O8    O     O_R   0.557760 0.495960 0.443700 -0.534918
C3    C     C_R   0.398377 0.656828 0.410664 0.702933
C4    C     C_R   0.601624 0.156845 0.589336 0.702942
O9    O     O_3   0.506490 0.661310 0.542090 -0.371138
O10   O     O_3   0.493510 0.161310 0.457910 -0.371122
V1    V     V_3+5 0.498800 0.935560 0.492190 1.404121
V2    V     V_3+5 0.501200 0.435560 0.507810 1.404106
C5    C     C_R   0.835291 0.073852 0.859340 -0.082316
C6    C     C_R   0.164712 0.573931 0.140650 -0.082324
C7    C     C_R   0.662314 0.159246 0.643076 -0.104394
C8    C     C_R   0.337678 0.659173 0.356937 -0.104352
C9    C     C_R   0.759859 0.334464 0.700935 0.161342
C10   C     C_R   0.240051 0.834177 0.299183 0.161444
C11   C     C_R   0.705771 0.313623 0.647154 -0.164645
C12   C     C_R   0.294154 0.813343 0.352948 -0.164634
C13   C     C_R   0.673919 0.022769 0.693946 -0.235009
C14   C     C_R   0.326129 0.522884 0.305995 -0.234914
C15   C     C_R   0.727125 0.042556 0.749052 0.081528
C16   C     C_R   0.272904 0.542653 0.250908 0.081442
C17   C     C_R   0.771002 0.197768 0.752912 0.139105
C18   C     C_R   0.228962 0.697673 0.247133 0.139050
C19   C     C_R   0.824784 0.211226 0.808316 -0.278562
C20   C     C_R   0.175170 0.711127 0.191741 -0.278520
C21   C     C_R   0.788669 0.924435 0.856326 0.156277
C22   C     C_R   0.211387 0.424710 0.143585 0.156315
C23   C     C_R   0.735888 0.910271 0.801126 -0.181575
C24   C     C_R   0.264182 0.410545 0.198771 -0.181422
H1    H     H_    0.860176 0.324859 0.811228 0.144396
H2    H     H_    0.139730 0.824605 0.188888 0.144365
H3    H     H_    0.701373 0.793997 0.798558 0.123420
H4    H     H_    0.298744 0.294426 0.201274 0.123364
H5    H     H_    0.696984 0.420306 0.608134 0.125679
H6    H     H_    0.302902 0.919872 0.392026 0.125608
H7    H     H_    0.640027 0.905245 0.692027 0.128746
H8    H     H_    0.360077 0.405537 0.307847 0.128674
C25   C     C_3   0.255711 0.276748 0.810266 -0.327310
C26   C     C_3   0.744202 0.776475 0.189639 -0.327315
C27   C     C_3   0.249298 0.924587 0.795250 -0.328993
C28   C     C_3   0.750798 0.424402 0.204866 -0.329018
C29   C     C_3   0.299026 0.935926 0.747208 -0.327714
C30   C     C_3   0.701070 0.435751 0.252907 -0.327735
H9    H     H_    0.356611 0.278002 0.791950 0.138137
H10   H     H_    0.643305 0.777415 0.207965 0.138134
H11   H     H_    0.283260 0.261137 0.862930 0.138326
H12   H     H_    0.716656 0.760536 0.136986 0.138323
H13   H     H_    0.216275 0.800713 0.781444 0.135429
H14   H     H_    0.783885 0.300712 0.218743 0.135441
H15   H     H_    0.276684 0.901805 0.847619 0.138311
H16   H     H_    0.723418 0.401295 0.152513 0.138307
H17   H     H_    0.350090 0.918634 0.776708 0.138060
H18   H     H_    0.650013 0.418136 0.223423 0.138054
H19   H     H_    0.289676 0.817397 0.710567 0.135563
H20   H     H_    0.710484 0.317412 0.289619 0.135574
C31   C     C_1   0.378783 0.146277 0.625189 -0.189485
C32   C     C_1   0.621217 0.646294 0.374811 -0.189478
C33   C     C_3   0.207690 0.108025 0.791482 0.289969
C34   C     C_3   0.792311 0.608016 0.208519 0.289983
C35   C     C_3   0.305403 0.288112 0.762181 -0.327716
C36   C     C_3   0.694509 0.787848 0.237723 -0.327729
C37   C     C_3   0.292744 0.127360 0.709250 0.290062
C38   C     C_3   0.707256 0.627369 0.290750 0.290072
C39   C     C_3   0.220746 0.146063 0.669579 -0.328406
C40   C     C_3   0.779247 0.646518 0.330403 -0.328402
C41   C     C_3   0.171034 0.134813 0.717646 -0.327659
C42   C     C_3   0.828960 0.635257 0.282337 -0.327658
C43   C     C_1   0.340290 0.138033 0.663116 -0.100857
C44   C     C_1   0.659710 0.638050 0.336884 -0.100860
C45   C     C_1   0.160113 0.097349 0.837573 -0.100474
C46   C     C_1   0.839888 0.597332 0.162429 -0.100479
C47   C     C_1   0.121532 0.089102 0.875400 -0.186590
C48   C     C_1   0.878468 0.589084 0.124601 -0.186608
H21   H     H_    0.141052 0.266333 0.713083 0.137729
H22   H     H_    0.858873 0.766912 0.286817 0.137720
H23   H     H_    0.136453 0.015121 0.702353 0.138202
H24   H     H_    0.863603 0.515763 0.297698 0.138205
H25   H     H_    0.214401 0.282904 0.642113 0.137297
H26   H     H_    0.785525 0.783500 0.357786 0.137291
H27   H     H_    0.227377 0.411045 0.807523 0.136119
H28   H     H_    0.772466 0.910893 0.192298 0.136135
H29   H     H_    0.300668 0.427757 0.736529 0.136383
H30   H     H_    0.699175 0.927620 0.263291 0.136409
H31   H     H_    0.209837 0.031693 0.631409 0.138098
H32   H     H_    0.790220 0.532353 0.368642 0.138103
O11   O     O_R   0.942280 0.741210 0.056360 -0.533425
O12   O     O_R   0.057720 0.241210 0.943640 -0.533422
O13   O     O_R   0.077070 0.409690 0.071960 -0.535116
O14   O     O_R   0.922930 0.909690 0.928040 -0.535130
C49   C     C_R   0.102676 0.576656 0.088044 0.706643
C50   C     C_R   0.897322 0.076636 0.911956 0.706622
O15   O     O_R   0.943940 0.411580 0.064250 -0.535770
O16   O     O_R   0.056060 0.911580 0.935750 -0.535770
O17   O     O_R   0.923670 0.239840 0.935920 -0.539271
O18   O     O_R   0.076330 0.739840 0.064080 -0.539263
C51   C     C_R   0.924073 0.580079 0.078932 0.727633
C52   C     C_R   0.075927 0.080085 0.921068 0.727644
O19   O     O_3   0.993540 0.572620 0.957940 -0.371217
O20   O     O_3   0.006460 0.072620 0.042060 -0.371201
V3    V     V_3+5 0.001200 0.298330 0.007800 1.397247
V4    V     V_3+5 0.998800 0.798330 0.992200 1.397224
C53   C     C_3   0.793114 0.779185 0.911488 -0.756526
H33   H     H_    0.746277 0.699462 0.907429 0.189764
H34   H     H_    0.832451 0.675155 0.908308 0.220885
H35   H     H_    0.803286 0.849242 0.961389 0.194025
C54   C     C_3   0.206981 0.279697 0.088347 -0.756570
H36   H     H_    0.253847 0.200167 0.092352 0.189772
H37   H     H_    0.167685 0.175481 0.091480 0.220874
H38   H     H_    0.196769 0.349946 0.038481 0.193981
C55   C     C_3   0.803780 0.505025 0.702265 -0.815208
H39   H     H_    0.786824 0.599237 0.658513 0.210925
H40   H     H_    0.803842 0.588461 0.748517 0.221142
H41   H     H_    0.854805 0.459257 0.701092 0.206420
C56   C     C_3   0.196055 0.004526 0.297949 -0.815138
H42   H     H_    0.212937 0.098509 0.341785 0.210872
H43   H     H_    0.195998 0.088294 0.251772 0.221117
H44   H     H_    0.145039 0.958482 0.299045 0.206371

loop_
_geom_bond_atom_site_label_1
_geom_bond_atom_site_label_2
_ccdc_geom_bond_type
O17   V3    S    
O15   C51   A    
C15   C17   A    
C12   H6    S    
C23   H3    S    
O1    C3    A    
O16   C52   A    
O2    C4    A    
O11   C51   A    
C2    O7    A    
C14   H8    S    
C27   C29   S    
C22   C54   S    
O5    C3    A    
O19   V3    S    
C8    C14   A    
C25   H27   S    
C26   C34   S    
C53   H34   S    
O11   V4    S    
C40   H32   S    
C46   C48   T    
O20   V3    S    
C34   C42   S    
C35   H29   S    
C33   C41   S    
C37   C39   S    
C56   H44   S    
C9    C55   S    
C39   H25   S    
C8    C12   A    
O14   C50   A    
C25   C35   S    
C36   H30   S    
O18   V4    S    
C6    C49   S    
C20   H2    S    
C18   C20   A    
C5    C50   S    
C49   O18   A    
H10   C36   S    
C54   H38   S    
C28   C30   S    
O14   V4    S    
O12   C52   A    
O6    V2    S    
C29   C37   S    
C13   H7    S    
C5    C21   A    
C42   H22   S    
C41   H21   S    
C26   H28   S    
C45   C47   T    
C34   C46   S    
O19   V4    S    
O12   V3    S    
O16   V4    S    
C33   C45   S    
C48   C51   S    
C24   H4    S    
C29   H19   S    
C40   C42   S    
C53   H35   S    
C39   C41   S    
O5    V1    S    
C15   C23   A    
C9    C17   A    
C3    C8    S    
C19   H1    S    
C1    C32   S    
C35   C37   S    
C2    C31   S    
O4    V2    S    
C7    C11   A    
C26   C36   S    
C27   H15   S    
O6    C4    A    
C26   H12   S    
C32   C44   T    
O1    V2    S    
H9    C35   S    
O2    V1    S    
C6    C22   A    
C56   H42   S    
O13   V3    S    
O4    C2    A    
C9    C11   A    
C25   C33   S    
C30   H20   S    
C10   C12   A    
C47   C52   S    
C55   H41   S    
C6    C20   A    
O3    V1    S    
C31   C43   T    
C10   C56   S    
C27   H13   S    
C54   H36   S    
C28   H14   S    
C10   C18   A    
C42   H24   S    
O3    C1    A    
C11   H5    S    
C40   H26   S    
O13   C49   A    
C28   H16   S    
C13   C15   A    
C50   O17   A    
O15   V3    S    
C14   C16   A    
C29   H17   S    
C30   H18   S    
C55   H40   S    
C30   C38   S    
C1    O8    A    
C17   C19   A    
O8    V2    S    
C53   H33   S    
C38   C44   S    
O20   V4    S    
C5    C19   A    
C4    C7    S    
C16   C18   A    
C21   C23   A    
C41   H23   S    
C37   C43   S    
C21   C53   S    
C22   C24   A    
O7    V1    S    
C7    C13   A    
C56   H43   S    
C25   H11   S    
C39   H31   S    
C16   C24   A    
C36   C38   S    
O9    V2    S    
O10   V1    S    
C38   C40   S    
C28   C34   S    
C55   H39   S    
C27   C33   S    
C54   H37   S    
