data_mof_unit_2353.cif
_audit_creation_date              2012-10-26T19:59:14-0400
_audit_creation_method            fapswitch 2.2
_symmetry_space_group_name_H-M    P1
_symmetry_Int_Tables_number       1
_space_group_crystal_system       triclinic
_cell_length_a                    7.45457
_cell_length_b                    8.688723
_cell_length_c                    15.847401
_cell_angle_alpha                 94.423915
_cell_angle_beta                  76.370032
_cell_angle_gamma                 103.034959
_cell_volume                      971.524344415

loop_
_atom_site_label
_atom_site_type_symbol
_atom_type_description
_atom_site_fract_x
_atom_site_fract_y
_atom_site_fract_z
_atom_type_partial_charge
C1    C     C_R   0.544987 0.800125 0.502673 0.549635
C2    C     C_R   0.613881 0.521952 0.334601 0.548764
C3    C     C_R   0.323422 0.446588 0.759178 0.008081
C4    C     C_R   0.676578 0.553413 0.240822 0.008081
C5    C     C_R   0.073844 0.371933 0.886858 -0.142498
C6    C     C_R   0.926156 0.628068 0.113142 -0.142498
C7    C     C_R   0.130809 0.408328 0.799008 -0.161082
C8    C     C_R   0.869191 0.591673 0.200992 -0.161082
C9    C     C_R   0.457661 0.445056 0.809288 -0.012238
C10   C     C_R   0.542339 0.554945 0.190712 -0.012238
C11   C     C_R   0.400892 0.454924 0.900442 0.044873
C12   C     C_R   0.455013 0.199875 0.497327 0.549635
C13   C     C_R   0.599108 0.545078 0.099558 0.044873
C14   C     C_R   0.207649 0.398470 0.938385 0.034693
C15   C     C_R   0.792351 0.601531 0.061616 0.034692
C16   C     C_R   0.530534 0.511422 0.954681 0.023906
C17   C     C_R   0.469466 0.488579 0.045319 0.023906
C18   C     C_3   0.365130 0.616852 0.230730 -0.374821
C19   C     C_3   0.634869 0.383149 0.769270 -0.374821
C20   C     C_R   0.283882 0.402732 0.078385 -0.149161
C21   C     C_R   0.716117 0.597270 0.921616 -0.149161
C22   C     C_R   0.152698 0.364683 0.026424 -0.140718
C23   C     C_R   0.847302 0.635319 0.973576 -0.140718
C24   C     C_2   0.570360 0.967994 0.503976 -0.160446
C25   C     C_2   0.429640 0.032006 0.496024 -0.160446
C26   C     C_R   0.386119 0.478048 0.665399 0.548764
Cu1   Cu    Cu3+1 0.322120 0.483240 0.490330 0.937347
Cu2   Cu    Cu3+1 0.677880 0.516760 0.509670 0.937347
H1    H     H_    0.007952 0.308661 0.055244 0.123403
H2    H     H_    0.293989 0.960742 0.488501 0.133125
H3    H     H_    0.004748 0.615789 0.568927 0.237214
H4    H     H_    0.995252 0.384211 0.431073 0.237214
H5    H     H_    0.315628 0.669482 0.181099 0.113536
H6    H     H_    0.249416 0.521797 0.263529 0.143925
H7    H     H_    0.395685 0.714045 0.278533 0.151326
H8    H     H_    0.750584 0.478204 0.736471 0.143925
H9    H     H_    0.684371 0.330519 0.818901 0.113536
H10   H     H_    0.604315 0.285956 0.721467 0.151326
H11   H     H_    0.992048 0.691341 0.944756 0.123403
H12   H     H_    0.974415 0.602229 0.238902 0.124961
H13   H     H_    0.025585 0.397772 0.761098 0.124961
H14   H     H_    0.925056 0.329848 0.915281 0.123626
H15   H     H_    0.074944 0.670154 0.084719 0.123626
H16   H     H_    0.237311 0.365281 0.144779 0.120838
H17   H     H_    0.762689 0.634721 0.855221 0.120838
H18   H     H_    0.706011 0.039258 0.511499 0.133125
N1    N     N_2   0.945180 0.542040 0.524240 -0.262592
N2    N     N_2   0.054820 0.457960 0.475760 -0.262592
O1    O     O_R   0.384450 0.714270 0.493720 -0.506295
O2    O     O_R   0.615550 0.285730 0.506280 -0.506295
O3    O     O_R   0.684880 0.742590 0.510050 -0.495080
O4    O     O_R   0.315120 0.257410 0.489950 -0.495080
O5    O     O_R   0.265540 0.477900 0.617090 -0.508554
O6    O     O_R   0.734460 0.522100 0.382910 -0.508554
O7    O     O_R   0.565970 0.506210 0.633420 -0.505767
O8    O     O_R   0.434030 0.493790 0.366580 -0.505767

loop_
_geom_bond_atom_site_label_1
_geom_bond_atom_site_label_2
_ccdc_geom_bond_type
Cu1   N2    S    
C2    C4    S    
C5    H14   S    
Cu1   O5    S    
Cu2   N1    S    
C16   C21   A    
C3    C9    A    
C19   H10   S    
C3    C26   S    
C1    O3    A    
C11   C16   A    
C12   O4    A    
C12   O2    A    
N1    N2    D    
C13   C17   A    
C12   C25   S    
C4    C8    A    
C24   H18   S    
C26   O7    A    
C14   C22   A    
C15   C23   A    
C19   H8    S    
H3    N1    S    
C24   C25   D    
C9    C11   A    
C5    C14   A    
H4    N2    S    
C1    O1    A    
C18   H6    S    
C23   H11   S    
C22   H1    S    
Cu2   O7    S    
C10   C18   S    
C3    C7    A    
C21   H17   S    
C6    H15   S    
C13   C15   A    
C21   C23   A    
C2    O6    A    
C11   C14   A    
C6    C15   A    
C18   H5    S    
C4    C10   A    
C26   O5    A    
Cu1   Cu2   S    
C17   C20   A    
C8    H12   S    
Cu1   O4    S    
C1    C24   S    
C18   H7    S    
C25   H2    S    
C5    C7    A    
Cu2   O6    S    
Cu1   O8    S    
C6    C8    A    
C19   H9    S    
C20   H16   S    
Cu2   O3    S    
Cu2   O2    S    
C9    C19   S    
C2    O8    A    
Cu1   O1    S    
C7    H13   S    
C20   C22   A    
C16   C17   A    
C10   C13   A    
