data_mof_unit_4.cif
_audit_creation_date              2012-12-11T15:23:38-0500
_audit_creation_method            fapswitch 2.2
_symmetry_space_group_name_H-M    P1
_symmetry_Int_Tables_number       1
_space_group_crystal_system       triclinic
_cell_length_a                    6.93553
_cell_length_b                    17.504896
_cell_length_c                    19.27498
_cell_angle_alpha                 109.537419
_cell_angle_beta                  90.23458
_cell_angle_gamma                 90.532988
_cell_volume                      2205.19830122

loop_
_atom_site_label
_atom_site_type_symbol
_atom_type_description
_atom_site_fract_x
_atom_site_fract_y
_atom_site_fract_z
_atom_type_partial_charge
O1    O     O_R   0.505810 0.439670 0.562310 -0.533171
O2    O     O_R   0.169070 0.404920 0.411210 -0.540494
O3    O     O_R   0.005550 0.560330 0.437690 -0.540976
C1    C     C_R   0.338353 0.381375 0.383024 0.679728
O4    O     O_R   0.175650 0.430000 0.560110 -0.540276
O5    O     O_R   0.012170 0.585580 0.587650 -0.538381
C2    C     C_R   0.344586 0.414972 0.581824 0.711548
O6    O     O_R   0.499180 0.414420 0.412350 -0.537847
O7    O     O_3   0.341430 0.551020 0.508860 -0.371317
V1    V     V_3+5 0.063930 0.490540 0.498360 1.425207
O8    O     O_R   0.682850 0.595080 0.588790 -0.544492
C3    C     C_R   0.852724 0.618391 0.616898 0.679020
O9    O     O_R   0.676280 0.570000 0.439890 -0.544598
C4    C     C_R   0.845214 0.585098 0.418173 0.707118
V2    V     V_3+5 0.564760 0.509460 0.501640 1.414616
O10   O     O_3   0.837130 0.448980 0.491140 -0.361872
C5    C     C_R   0.750829 0.870542 0.175933 -0.208998
C6    C     C_R   0.914068 0.865755 0.131454 -0.085882
C7    C     C_R   0.065877 0.814281 0.134970 -0.226355
C8    C     C_R   0.054526 0.767420 0.181501 0.094962
C9    C     C_R   0.891162 0.773272 0.226383 0.056172
C10   C     C_R   0.739268 0.825334 0.223799 0.085231
C11   C     C_R   0.203545 0.714638 0.183894 -0.188281
C12   C     C_R   0.192253 0.668855 0.231005 -0.195908
C13   C     C_R   0.031530 0.674895 0.276489 0.093123
C14   C     C_R   0.879645 0.726967 0.273921 0.055531
C15   C     C_R   0.716267 0.732799 0.318794 0.086463
C16   C     C_R   0.567305 0.785623 0.316433 -0.159573
C17   C     C_R   0.578600 0.831411 0.269320 -0.170902
C18   C     C_R   0.019899 0.629616 0.324284 -0.217481
C19   C     C_R   0.856608 0.634331 0.368718 -0.085189
C20   C     C_R   0.704843 0.685857 0.365263 -0.215414
H1    H     H_    0.633636 0.910421 0.174122 0.125243
H2    H     H_    0.191898 0.809876 0.100807 0.126526
H3    H     H_    0.329675 0.709123 0.149635 0.131808
H4    H     H_    0.310001 0.629022 0.232160 0.128812
H5    H     H_    0.137089 0.589723 0.326065 0.122250
H6    H     H_    0.578811 0.690227 0.399414 0.130807
H7    H     H_    0.441189 0.791147 0.350701 0.143887
H8    H     H_    0.460867 0.871254 0.268174 0.139034
C21   C     C_3   0.811988 0.816870 0.741386 -0.134044
C22   C     C_3   0.981387 0.767376 0.696706 -0.132573
H9    H     H_    0.059996 0.781266 0.652223 0.114270
H10   H     H_    0.751713 0.872601 0.734806 0.115376
C23   C     C_3   0.867594 0.688650 0.687585 -0.009548
C24   C     C_3   0.698032 0.737308 0.731436 -0.117203
C25   C     C_3   0.789667 0.732582 0.803318 -0.142416
C26   C     C_3   0.959068 0.683090 0.758639 -0.144738
C27   C     C_3   0.073023 0.762650 0.768588 -0.118433
C28   C     C_3   0.903462 0.811307 0.812440 -0.010026
H11   H     H_    0.543559 0.726469 0.715590 0.107617
H12   H     H_    0.711054 0.718693 0.847801 0.101216
H13   H     H_    0.019351 0.627359 0.765216 0.098503
H14   H     H_    0.227497 0.773490 0.784433 0.107311
C29   C     C_3   0.482978 0.236533 0.304920 -0.120758
C30   C     C_3   0.322500 0.180726 0.257694 -0.126836
H15   H     H_    0.562487 0.225474 0.350702 0.121669
C31   C     C_3   0.414724 0.189192 0.187869 -0.017394
C32   C     C_3   0.575010 0.244230 0.234330 -0.121795
C33   C     C_3   0.448626 0.319268 0.242335 -0.142996
C34   C     C_3   0.288143 0.263467 0.195116 -0.136369
C35   C     C_3   0.196115 0.255766 0.265703 -0.115192
C36   C     C_3   0.356398 0.310809 0.312155 -0.014808
H16   H     H_    0.730481 0.239210 0.220601 0.104751
H17   H     H_    0.499647 0.376960 0.236206 0.099282
H18   H     H_    0.208603 0.274535 0.149347 0.102477
H19   H     H_    0.040650 0.260786 0.279441 0.107442
C37   C     C_R   0.257474 0.123640 0.819632 -0.172654
C38   C     C_R   0.415800 0.133534 0.867928 -0.086689
C39   C     C_R   0.562209 0.189638 0.867806 -0.220602
C40   C     C_R   0.548759 0.236695 0.821438 0.131462
C41   C     C_R   0.389520 0.226037 0.772906 0.074391
C42   C     C_R   0.245104 0.168538 0.771471 0.015290
C43   C     C_R   0.691876 0.294291 0.822793 -0.197803
C44   C     C_R   0.676489 0.341702 0.777374 -0.149541
C45   C     C_R   0.519416 0.331460 0.728783 0.170990
C46   C     C_R   0.375700 0.272509 0.725530 0.007421
C47   C     C_R   0.220887 0.259119 0.674249 -0.042933
C48   C     C_R   0.079974 0.198519 0.671300 0.466274
C49   C     C_R   0.092184 0.155465 0.721010 -0.252920
C50   C     C_R   0.506435 0.378230 0.682429 -0.157851
C51   C     C_R   0.354719 0.365809 0.631301 -0.133365
C52   C     C_R   0.214299 0.305989 0.627098 -0.141552
H20   H     H_    0.145290 0.079656 0.818493 0.123162
H21   H     H_    0.684731 0.197801 0.904798 0.122279
H22   H     H_    0.815532 0.302960 0.859275 0.120273
H23   H     H_    0.788941 0.385894 0.779651 0.113514
H24   H     H_    0.616062 0.423884 0.685595 0.118100
H25   H     H_    0.102912 0.296005 0.585750 0.203037
H26   H     H_    0.984274 0.109698 0.719217 0.180041
O11   O     O_R   0.271890 0.085690 0.087580 -0.536866
O12   O     O_R   0.595690 0.070020 0.939870 -0.541221
O13   O     O_R   0.758900 0.914390 0.912370 -0.536841
C53   C     C_R   0.426764 0.084918 0.917933 0.706630
O14   O     O_R   0.602020 0.095100 0.088770 -0.541236
O15   O     O_R   0.765280 0.939660 0.062330 -0.540359
C54   C     C_R   0.432741 0.118657 0.116962 0.678400
O16   O     O_R   0.265520 0.060430 0.937620 -0.540289
O17   O     O_3   0.429560 0.949050 0.991100 -0.368956
V3    V     V_3+5 0.707160 0.009450 0.001650 1.403409
O18   O     O_R   0.094540 0.929890 0.060190 -0.543166
C55   C     C_R   0.925540 0.914896 0.081920 0.710679
O19   O     O_R   0.088200 0.904800 0.911290 -0.543611
C56   C     C_R   0.918337 0.881551 0.883140 0.680573
V4    V     V_3+5 0.206300 0.990390 0.998440 1.401352
O20   O     O_3   0.934030 0.050940 0.008900 -0.368035
H27   H     H_    0.271479 0.123038 0.263831 0.114646
S1    S     S_3+6 0.895465 0.169597 0.602989 -0.012999
O21   O     O_2   0.986873 0.127083 0.529830 -0.324189
O22   O     O_2   0.752725 0.113120 0.619799 -0.326040
O23   O     O_3   0.778152 0.251146 0.598124 -0.531874
H28   H     H_    0.682032 0.229389 0.557999 0.365210

loop_
_geom_bond_atom_site_label_1
_geom_bond_atom_site_label_2
_ccdc_geom_bond_type
C9    C14   A    
C28   C56   S    
O18   C55   A    
C10   C17   A    
C29   C32   S    
C21   C22   S    
O11   V4    S    
C7    C8    A    
C4    C19   S    
C1    O6    A    
C50   C51   A    
C46   C47   A    
C1    C36   S    
C14   C15   A    
C12   H4    S    
O16   V4    S    
C35   H19   S    
C33   C36   S    
C16   C17   A    
O15   C55   A    
O5    C3    A    
C18   C19   A    
C53   O16   A    
C27   H14   S    
S1    O21   D    
C6    C7    A    
C6    C55   S    
O8    V2    S    
C34   H18   S    
C35   C36   S    
C25   C26   S    
S1    O22   D    
C37   C38   A    
C29   C36   S    
C21   C24   S    
C39   C40   A    
O1    V2    S    
C20   H6    S    
O7    V1    S    
C31   C34   S    
C32   C33   S    
O1    C2    A    
O9    C4    A    
C49   H26   S    
C38   C39   A    
C31   C54   S    
C5    H1    S    
O17   V4    S    
C47   C52   A    
O13   C56   A    
C25   C28   S    
O18   V4    S    
C26   H13   S    
C52   H25   S    
C43   C44   A    
C37   H20   S    
C12   C13   A    
C38   C53   S    
O4    C2    A    
C47   C48   A    
C41   C42   A    
C16   H7    S    
C37   C42   A    
C23   C24   S    
C24   H11   S    
O11   C54   A    
C18   H5    S    
C33   C34   S    
C22   C23   S    
O2    C1    A    
C44   C45   A    
C30   H27   S    
C41   C46   A    
O17   V3    S    
C8    C11   A    
C11   C12   A    
C29   C30   S    
O12   C53   A    
C5    C6    A    
C32   H16   S    
O19   V4    S    
C45   C46   A    
O13   V3    S    
O3    C4    A    
C44   H23   S    
C26   C27   S    
C33   H17   S    
C51   C52   A    
O6    V2    S    
C11   H3    S    
C29   H15   S    
C21   H10   S    
C30   C35   S    
C31   C32   S    
C22   H9    S    
O2    V1    S    
C21   C28   S    
O19   C56   A    
O12   V3    S    
C23   C26   S    
C13   C18   A    
C24   C25   S    
O23   H28   S    
C15   C20   A    
O14   V3    S    
C19   C20   A    
C3    C23   S    
C7    H2    S    
C45   C50   A    
O5    V1    S    
C40   C43   A    
O8    C3    A    
O14   C54   A    
C25   H12   S    
C43   H22   S    
V4    O20   S    
V3    O20   S    
C5    C10   A    
S1    O23   S    
O9    V2    S    
C13   C14   A    
O4    V1    S    
O3    V1    S    
V1    O10   S    
O15   V3    S    
C17   H8    S    
C42   C49   A    
C30   C31   S    
C48   S1    S    
O7    V2    S    
C34   C35   S    
C50   H24   S    
C22   C27   S    
C48   C49   A    
C40   C41   A    
C2    C51   S    
C8    C9    A    
C27   C28   S    
C15   C16   A    
C9    C10   A    
C39   H21   S    
V2    O10   S    
