data_mof_unit_943.cif
_audit_creation_date              2013-03-05T15:49:56-0500
_audit_creation_method            fapswitch 2.2
_symmetry_space_group_name_H-M    P1
_symmetry_Int_Tables_number       1
_space_group_crystal_system       triclinic
_cell_length_a                    12.07836
_cell_length_b                    12.852737
_cell_length_c                    14.988069
_cell_angle_alpha                 90.432514
_cell_angle_beta                  86.170351
_cell_angle_gamma                 93.405554
_cell_volume                      2317.43739566

loop_
_atom_site_label
_atom_site_type_symbol
_atom_site_description
_atom_site_fract_x
_atom_site_fract_y
_atom_site_fract_z
_atom_type_partial_charge
O1    O     O_R   0.421700 0.658830 0.504450 -0.649042
O2    O     O_R   0.578300 0.341170 0.495550 -0.643153
O3    O     O_R   0.609310 0.646410 0.493750 -0.552539
O4    O     O_R   0.390690 0.353590 0.506250 -0.572153
C1    C     C_R   0.522184 0.700064 0.493857 0.944648
C2    C     C_R   0.477732 0.299898 0.503987 0.969345
O5    O     O_R   0.406180 0.506230 0.637500 -0.554258
O6    O     O_R   0.593820 0.493770 0.362500 -0.605811
O7    O     O_R   0.593800 0.493820 0.626800 -0.638352
O8    O     O_R   0.406200 0.506180 0.373200 -0.668651
C3    C     C_R   0.499650 0.498504 0.672678 0.984296
C4    C     C_R   0.499568 0.499071 0.327209 0.999665
Zn1   Zn    Zn3+2 0.374730 0.508290 0.507150 1.014427
Zn2   Zn    Zn3+2 0.625270 0.491710 0.492850 1.011532
C5    C     C_R   0.536330 0.413587 0.183610 0.345499
C6    C     C_R   0.450076 0.579383 0.816408 0.398676
C7    C     C_R   0.497638 0.499837 0.231618 -0.205160
C8    C     C_R   0.498380 0.497173 0.768216 -0.223971
C9    C     C_R   0.447905 0.581397 0.189631 -0.125877
C10   C     C_R   0.541350 0.412574 0.811202 -0.115310
C11   C     C_R   0.441600 0.578011 0.096592 0.039090
C12   C     C_R   0.532305 0.409054 0.904781 0.042362
C13   C     C_R   0.484668 0.493160 0.047500 0.027841
C14   C     C_R   0.486891 0.492878 0.953724 0.018609
C15   C     C_R   0.526184 0.408667 0.091749 0.040154
C16   C     C_R   0.443503 0.576308 0.909397 0.029538
C17   C     C_R   0.395227 0.658230 0.050954 -0.224606
C18   C     C_R   0.562555 0.321389 0.950888 -0.220090
C19   C     C_R   0.394333 0.656188 0.958875 -0.163560
C20   C     C_R   0.557077 0.320530 0.043189 -0.179505
H1    H     H_    0.360442 0.724297 0.085188 0.139080
H2    H     H_    0.589526 0.252067 0.916565 0.142220
H3    H     H_    0.356894 0.719191 0.926700 0.185863
H4    H     H_    0.578356 0.250573 0.076075 0.181516
C21   C     C_R   0.463739 0.188426 0.509818 -0.047589
C22   C     C_R   0.535238 0.811562 0.483775 -0.044421
C23   C     C_R   0.632446 0.972097 0.433377 -0.279199
C24   C     C_R   0.365076 0.027711 0.556871 -0.287584
C25   C     C_R   0.628236 0.863763 0.437043 0.004942
C26   C     C_R   0.371471 0.135899 0.557081 -0.012631
C27   C     C_R   0.447676 0.867115 0.521172 -0.296442
C28   C     C_R   0.548476 0.133262 0.467227 -0.259121
C29   C     C_R   0.451871 0.973643 0.516299 0.181956
C30   C     C_R   0.544732 0.026492 0.472236 0.181946
H5    H     H_    0.618585 0.173647 0.430519 0.166241
H6    H     H_    0.375380 0.827439 0.555320 0.165614
H7    H     H_    0.702808 0.013993 0.398308 0.163680
H8    H     H_    0.294956 0.985603 0.592082 0.164806
N1    N     N_R   0.207800 0.519350 0.516680 -0.151639
N2    N     N_R   0.792200 0.480650 0.483320 -0.139087
C31   C     C_R   0.942127 0.364131 0.476677 -0.084889
C32   C     C_R   0.057545 0.634731 0.518647 -0.118127
C33   C     C_R   0.831149 0.385364 0.464314 -0.119942
C34   C     C_R   0.169274 0.615848 0.529380 -0.054008
C35   C     C_R   0.861240 0.557415 0.517873 0.600475
C36   C     C_R   0.137673 0.438031 0.490856 0.565848
C37   C     C_R   0.979545 0.548648 0.508680 -0.204560
C38   C     C_R   0.020266 0.448611 0.492520 -0.148918
H9    H     H_    0.227463 0.680441 0.541621 0.199590
H10   H     H_    0.772769 0.322051 0.449126 0.187939
O9    O     O_3   0.574987 0.329715 0.227666 -0.673612
C39   C     C_3   0.690658 0.345468 0.238072 0.124333
H11   H     H_    0.703147 0.333055 0.309643 0.177035
H12   H     H_    0.726476 0.425624 0.220942 0.143024
C40   C     C_3   0.755238 0.265381 0.183091 -0.397988
H13   H     H_    0.712652 0.186687 0.191942 0.243723
H14   H     H_    0.759330 0.286541 0.111253 0.218870
C41   C     C_3   0.873756 0.261915 0.211261 -0.937567
H15   H     H_    0.917961 0.339896 0.203034 0.265418
H16   H     H_    0.918968 0.204867 0.168916 0.272349
H17   H     H_    0.873042 0.237197 0.282076 0.294610
O10   O     O_3   0.397730 0.657235 0.774251 -0.637546
C42   C     C_3   0.475368 0.731907 0.732829 0.078369
H18   H     H_    0.426687 0.785778 0.696109 0.174082
H19   H     H_    0.532150 0.696505 0.681890 0.107221
C43   C     C_3   0.541239 0.797955 0.799386 -0.419853
H20   H     H_    0.482883 0.838666 0.846093 0.231803
H21   H     H_    0.591445 0.747604 0.838679 0.225097
C44   C     C_3   0.619576 0.879357 0.750335 -0.899412
H22   H     H_    0.679591 0.840809 0.703449 0.263953
H23   H     H_    0.666726 0.925789 0.799508 0.266100
H24   H     H_    0.571611 0.932913 0.712116 0.274737
C45   C     C_2   0.969078 0.253073 0.482819 0.408396
H25   H     H_    0.038966 0.231255 0.518788 0.125346
O11   O     O_2   0.910856 0.183687 0.450313 -0.617435
C46   C     C_2   0.026326 0.744485 0.511920 0.398203
H26   H     H_    0.948612 0.762037 0.484786 0.108295
O12   O     O_2   0.088045 0.816949 0.535187 -0.595669
C47   C     C_2   0.404220 0.670443 0.242581 0.444903
H27   H     H_    0.322492 0.696940 0.232104 0.042887
O13   O     O_2   0.460273 0.715996 0.297060 -0.547800
C48   C     C_2   0.594797 0.327550 0.759196 0.430862
H28   H     H_    0.672429 0.299424 0.779038 0.043796
O14   O     O_2   0.550957 0.286189 0.695966 -0.549260
C49   C     C_2   0.283704 0.188102 0.611590 0.489587
H29   H     H_    0.200040 0.151953 0.618394 0.038700
O15   O     O_2   0.304799 0.267400 0.654057 -0.519437
C50   C     C_2   0.719236 0.810932 0.387082 0.462909
H30   H     H_    0.802157 0.848775 0.381026 0.039524
O16   O     O_2   0.701805 0.729021 0.347278 -0.526249
O17   O     O_3   0.182697 0.348170 0.457344 -0.670866
C51   C     C_3   0.215479 0.360244 0.365101 0.115379
H31   H     H_    0.302147 0.336260 0.354585 0.192479
H32   H     H_    0.213322 0.441626 0.339669 0.130122
C52   C     C_3   0.143744 0.288051 0.308295 -0.404404
H33   H     H_    0.142268 0.207038 0.333989 0.255023
H34   H     H_    0.057972 0.314470 0.312586 0.234909
C53   C     C_3   0.188138 0.289642 0.210437 -0.922936
H35   H     H_    0.188189 0.369686 0.182922 0.262846
H36   H     H_    0.134424 0.236675 0.170697 0.273566
H37   H     H_    0.274141 0.262914 0.203985 0.274941
O18   O     O_3   0.812520 0.638947 0.564629 -0.648982
C54   C     C_3   0.851602 0.652993 0.652109 0.032387
H38   H     H_    0.856700 0.738011 0.666480 0.173481
H39   H     H_    0.935470 0.625412 0.660799 0.150868
C55   C     C_3   0.772462 0.599236 0.723247 -0.334017
H40   H     H_    0.689609 0.630122 0.720132 0.229362
H41   H     H_    0.767789 0.513871 0.710653 0.231456
C56   C     C_3   0.810598 0.619228 0.817201 -0.972001
H42   H     H_    0.893326 0.587683 0.823705 0.276755
H43   H     H_    0.749914 0.579974 0.866841 0.266244
H44   H     H_    0.815507 0.704152 0.831986 0.273882

loop_
_geom_bond_atom_site_label_1
_geom_bond_atom_site_label_2
_geom_bond_distance
_ccdc_geom_bond_type
C3    C8    1.431202 S    
O17   C51   1.419542 S    
C35   O18   1.393772 S    
C17   C19   1.380881 A    
C42   H19   1.105524 S    
C42   H18   1.106965 S    
C49   H29   1.085635 S    
C6    O10   1.392213 S    
C43   C44   1.526909 S    
O7    Zn2   2.018501 S    
C55   H40   1.102250 S    
O5    C3    1.286870 A    
C52   H34   1.106926 S    
O1    C1    1.295463 A    
C9    C11   1.401834 A    
C43   H21   1.110600 S    
C36   O17   1.382508 S    
C46   O12   1.221509 D    
C5    C15   1.391026 A    
N1    C34   1.358006 A    
C1    C22   1.440342 S    
C19   H3    1.082265 S    
C53   H35   1.111199 S    
C51   C52   1.525676 S    
O4    Zn1   2.008863 S    
C21   C28   1.396360 A    
C39   H12   1.118324 S    
C53   H36   1.110035 S    
C41   H15   1.111010 S    
C40   H14   1.109704 S    
C4    C7    1.434596 S    
C27   H6    1.084364 S    
C36   C38   1.431156 A    
C23   H7    1.085689 S    
C24   H8    1.085757 S    
C54   C55   1.524611 S    
C11   C17   1.405383 A    
C12   C18   1.405345 A    
C27   C29   1.369415 A    
C22   C27   1.395343 A    
O2    C2    1.294917 A    
C28   C30   1.372804 A    
C32   C46   1.487506 S    
O18   C54   1.429513 S    
C33   H10   1.077813 S    
C32   C34   1.405156 A    
C34   H9    1.078166 S    
C56   H43   1.110947 S    
C6    C16   1.391405 A    
C52   C53   1.527496 S    
N2    C33   1.359267 A    
C20   H4    1.080980 S    
C17   H1    1.080675 S    
C51   H31   1.109611 S    
C55   C56   1.525874 S    
C18   H2    1.081563 S    
C43   H20   1.110418 S    
O4    C2    1.289854 A    
C44   H23   1.110278 S    
C46   H26   1.083928 S    
C25   C50   1.483561 S    
C31   C33   1.408172 A    
C28   H5    1.085843 S    
C29   C30   1.404586 A    
C39   H11   1.107238 S    
C9    C47   1.490027 S    
C10   C48   1.490713 S    
C45   H25   1.083056 S    
O6    C4    1.292514 A    
C40   C41   1.522516 S    
C48   O14   1.219463 D    
C5    O9    1.388444 S    
C31   C38   1.424914 A    
C51   H32   1.118317 S    
O7    C3    1.293323 A    
O3    Zn2   2.008863 S    
O8    C4    1.289468 A    
Zn1   N1    2.025120 S    
C41   H16   1.110352 S    
C45   O11   1.221435 D    
C10   C12   1.400396 A    
C50   H30   1.085618 S    
C50   O16   1.220463 D    
C35   C37   1.437399 A    
C42   C43   1.536805 S    
C12   C14   1.415704 A    
C47   O13   1.219592 D    
C26   C49   1.483904 S    
C31   C45   1.487658 S    
C54   H38   1.111047 S    
C52   H33   1.111626 S    
C56   H44   1.111045 S    
C15   C20   1.397746 A    
C5    C7    1.403430 A    
O6    Zn2   2.015697 S    
C39   C40   1.530926 S    
C22   C25   1.419478 A    
C14   C16   1.410632 A    
O10   C42   1.417814 S    
O3    C1    1.291871 A    
O8    Zn1   2.018501 S    
C44   H24   1.111415 S    
C56   H42   1.110876 S    
C49   O15   1.220583 D    
N1    C36   1.375556 A    
C2    C21   1.435286 S    
N2    C35   1.374500 A    
C53   H37   1.111257 S    
C23   C30   1.396364 A    
C11   C13   1.416157 A    
C21   C26   1.418429 A    
C24   C29   1.395258 A    
C23   C25   1.391653 A    
C24   C26   1.388057 A    
C37   C38   1.417129 A    
Zn2   N2    2.025120 S    
C41   H17   1.109536 S    
C18   C20   1.380667 A    
C48   H28   1.085125 S    
C7    C9    1.411015 A    
C55   H41   1.110651 S    
C8    C10   1.410330 A    
C13   C15   1.410883 A    
O9    C39   1.418555 S    
O2    Zn2   1.983644 S    
C32   C37   1.423542 A    
C13   C14   1.403971 A    
C44   H22   1.110919 S    
O5    Zn1   2.015695 S    
O1    Zn1   1.983644 S    
C16   C19   1.399586 A    
C6    C8    1.408549 A    
C40   H13   1.111876 S    
C47   H27   1.084689 S    
C54   H39   1.108942 S    
