data_mof_unit_974.cif
_audit_creation_date              2012-12-10T17:48:45-0500
_audit_creation_method            fapswitch 2.2
_symmetry_space_group_name_H-M    P1
_symmetry_Int_Tables_number       1
_space_group_crystal_system       triclinic
_cell_length_a                    15.718528
_cell_length_b                    10.691719
_cell_length_c                    9.878941
_cell_angle_alpha                 89.68766
_cell_angle_beta                  90.016868
_cell_angle_gamma                 91.476078
_cell_volume                      1659.66029995

loop_
_atom_site_label
_atom_site_type_symbol
_atom_type_description
_atom_site_fract_x
_atom_site_fract_y
_atom_site_fract_z
_atom_type_partial_charge
C1    C     C_R   0.510049 0.261005 0.501226 0.887401
C2    C     C_R   0.502177 0.055464 0.877222 -0.168251
C3    C     C_R   0.455460 0.943801 0.868560 -0.139355
C4    C     C_R   0.338330 0.500055 0.500044 0.882924
C5    C     C_R   0.445600 0.885438 0.743557 -0.093679
C6    C     C_R   0.482912 0.938876 0.625129 0.093735
C7    C     C_R   0.514228 0.061925 0.630497 0.032822
C8    C     C_R   0.524026 0.128047 0.506102 -0.247543
C9    C     C_R   0.531662 0.063117 0.383547 0.483908
C10   C     C_R   0.516208 0.936156 0.382954 -0.320984
C11   C     C_R   0.491952 0.873796 0.501878 -0.200910
C12   C     C_3   0.949464 0.443560 0.631701 -0.382050
C13   C     C_R   0.390456 0.333395 0.141179 -0.071629
C14   C     C_R   0.336686 0.251123 0.071238 -0.203631
C15   C     C_R   0.336335 0.251672 0.931241 -0.194677
C16   C     C_R   0.494043 0.739901 0.500184 0.910248
C17   C     C_R   0.389998 0.334173 0.860529 -0.116052
C18   C     C_R   0.446287 0.417613 0.928126 0.044129
C19   C     C_R   0.446486 0.417367 0.072781 0.148040
C20   C     C_R   0.550056 0.580805 0.071534 -0.274921
C21   C     C_R   0.551796 0.579937 0.926490 0.526592
C22   C     C_R   0.661639 0.500584 0.500009 0.891206
C23   C     C_3   0.917197 0.510035 0.502454 0.228342
C24   C     C_3   0.047190 0.436649 0.628223 -0.440581
C25   C     C_3   0.047977 0.437434 0.376584 -0.484666
C26   C     C_3   0.949762 0.439483 0.376327 -0.508774
C27   C     C_1   0.750454 0.503163 0.500382 -0.213202
C28   C     C_3   0.082903 0.508400 0.502375 0.183909
C29   C     C_3   0.634457 0.109119 0.224218 0.031060
C30   C     C_3   0.683850 0.232744 0.243895 -0.272300
C31   C     C_3   0.773285 0.227884 0.184635 -1.018134
C32   C     C_3   0.681581 0.691524 0.903605 0.079153
C33   C     C_3   0.687506 0.825585 0.957447 -0.360718
C34   C     C_3   0.951672 0.648191 0.498830 0.321511
C35   C     C_3   0.774655 0.854728 0.019412 -0.994121
C36   C     C_3   0.103698 0.712544 0.708749 0.156944
C37   C     C_3   0.126778 0.833040 0.784324 -0.336448
C38   C     C_3   0.142732 0.807767 0.934308 -0.995100
C39   C     C_3   0.862062 0.803247 0.584074 0.087998
C40   C     C_3   0.904285 0.928476 0.542790 -0.319476
C41   C     C_3   0.838035 0.028258 0.519223 -1.002570
C42   C     C_3   0.050775 0.646459 0.492129 0.330265
C43   C     C_1   0.825768 0.506297 0.501320 -0.076803
C44   C     C_1   0.174267 0.505662 0.500845 -0.065531
C45   C     C_1   0.249528 0.502819 0.500134 -0.184179
C46   C     C_R   0.531952 0.114201 0.759514 -0.143541
H1    H     H_    0.074950 0.469776 0.724924 0.148631
H2    H     H_    0.921302 0.347062 0.638701 0.174717
H3    H     H_    0.929408 0.494328 0.723899 0.194381
H4    H     H_    0.929459 0.691935 0.402257 0.007184
H5    H     H_    0.635696 0.084411 0.115267 0.159671
H6    H     H_    0.667353 0.032459 0.279035 0.123142
H7    H     H_    0.649261 0.309446 0.193286 0.247943
H8    H     H_    0.688423 0.253381 0.353804 0.207017
H9    H     H_    0.810132 0.154001 0.235656 0.271568
H10   H     H_    0.806639 0.319515 0.199598 0.268220
H11   H     H_    0.770193 0.208553 0.074348 0.265504
H12   H     H_    0.569741 0.199355 0.771290 0.163277
H13   H     H_    0.512809 0.098898 0.974544 0.177747
H14   H     H_    0.523776 0.886917 0.288221 0.180044
H15   H     H_    0.588476 0.647622 0.127860 0.160993
H16   H     H_    0.064847 0.336600 0.622126 0.188690
H17   H     H_    0.385317 0.329561 0.753324 0.208155
H18   H     H_    0.727312 0.683705 0.818579 0.165629
H19   H     H_    0.702520 0.622702 0.981217 0.111764
H20   H     H_    0.676150 0.892262 0.872963 0.235407
H21   H     H_    0.637742 0.839490 0.035334 0.211389
H22   H     H_    0.786052 0.791826 0.107087 0.265203
H23   H     H_    0.428609 0.900887 0.958961 0.142026
H24   H     H_    0.777276 0.952981 0.055250 0.267278
H25   H     H_    0.825565 0.842805 0.942937 0.272107
H26   H     H_    0.068981 0.338720 0.377485 0.203982
H27   H     H_    0.923842 0.341571 0.376370 0.210272
H28   H     H_    0.927414 0.485654 0.281977 0.171936
H29   H     H_    0.157391 0.648045 0.721381 0.133889
H30   H     H_    0.044949 0.671659 0.755006 0.180200
H31   H     H_    0.185117 0.876883 0.739028 0.223486
H32   H     H_    0.074030 0.899693 0.774061 0.225175
H33   H     H_    0.084771 0.765787 0.982425 0.264901
H34   H     H_    0.407763 0.799591 0.740833 0.148847
H35   H     H_    0.159213 0.897097 0.986052 0.268835
H36   H     H_    0.196457 0.743213 0.947075 0.267118
H37   H     H_    0.824155 0.817974 0.677168 0.159961
H38   H     H_    0.816096 0.770135 0.505329 0.125283
H39   H     H_    0.948528 0.960342 0.624055 0.229110
H40   H     H_    0.941608 0.916789 0.448420 0.217829
H41   H     H_    0.793516 0.998767 0.437425 0.263885
H42   H     H_    0.870318 0.117673 0.488852 0.264749
H43   H     H_    0.801321 0.044108 0.613399 0.268081
H44   H     H_    0.385270 0.329159 0.248371 0.199016
H45   H     H_    0.294511 0.187306 0.126177 0.146347
H46   H     H_    0.294136 0.187963 0.876899 0.148687
H47   H     H_    0.073009 0.480982 0.281487 0.175889
H48   H     H_    0.066546 0.675960 0.386479 0.066668
N1    N     N_R   0.499210 0.498800 0.142780 -0.138208
N2    N     N_R   0.499180 0.498720 0.857170 -0.158378
O1    O     O_R   0.500000 0.316780 0.614690 -0.661831
O2    O     O_3   0.599050 0.667099 0.851026 -0.605017
O3    O     O_3   0.092971 0.741431 0.570266 -0.636698
O4    O     O_3   0.924273 0.713989 0.615219 -0.649522
O5    O     O_R   0.499990 0.316750 0.385360 -0.588339
O6    O     O_R   0.377150 0.500020 0.614720 -0.643719
O7    O     O_R   0.377140 0.499990 0.385380 -0.632516
O8    O     O_R   0.500010 0.683250 0.614640 -0.576216
O9    O     O_R   0.500000 0.683220 0.385310 -0.621789
O10   O     O_R   0.622860 0.500010 0.614620 -0.587228
O11   O     O_R   0.622850 0.499980 0.385280 -0.627266
O12   O     O_3   0.548354 0.123980 0.261984 -0.632827
Zn1   Zn    Zn3+2 0.500010 0.500020 0.653130 0.953603
Zn2   Zn    Zn3+2 0.499990 0.499980 0.346870 0.933761

loop_
_geom_bond_atom_site_label_1
_geom_bond_atom_site_label_2
_ccdc_geom_bond_type
C41   H43   S    
O9    Zn2   S    
C25   H47   S    
C13   H44   S    
C1    C8    S    
C18   N2    A    
C34   C42   S    
C12   H2    S    
C12   H3    S    
C7    C8    A    
C2    C46   A    
C9    O12   S    
C30   H8    S    
C12   C23   S    
C37   C38   S    
O7    Zn2   S    
C5    C6    A    
C36   C37   S    
C3    H23   S    
C39   H38   S    
O8    Zn1   S    
C38   H33   S    
C22   O11   A    
C4    O7    A    
C26   H27   S    
C23   C43   S    
C18   C19   A    
C23   C26   S    
C40   H40   S    
C20   H15   S    
C36   H30   S    
C26   H28   S    
C15   H46   S    
C16   O8    A    
C35   H24   S    
C8    C9    A    
C4    O6    A    
C34   O4    S    
C29   O12   S    
C31   H10   S    
C9    C10   A    
C35   H25   S    
C13   C14   A    
C46   H12   S    
C33   H20   S    
C4    C45   S    
C41   H41   S    
C30   H7    S    
C34   H4    S    
C13   C19   A    
C7    C46   A    
C32   H18   S    
C1    O1    A    
C39   C40   S    
C2    H13   S    
O5    Zn2   S    
C22   O10   A    
C37   H31   S    
C28   C44   S    
C25   C28   S    
C40   H39   S    
C10   H14   S    
C29   C30   S    
C36   H29   S    
O1    Zn1   S    
C11   C16   S    
C23   C34   S    
C17   C18   A    
C25   H26   S    
C5    H34   S    
C16   O9    A    
C40   C41   S    
C20   N1    A    
C22   C27   S    
C38   H35   S    
O11   Zn2   S    
C1    O5    A    
C6    C11   A    
C19   N1    A    
C44   C45   T    
C33   H21   S    
C29   H5    S    
C15   C17   A    
C41   H42   S    
C24   H16   S    
C42   H48   S    
C24   H1    S    
C24   C28   S    
C3    C5    A    
N1    Zn2   S    
C6    C7    A    
C21   N2    A    
N2    Zn1   S    
C12   C24   S    
C32   C33   S    
C31   H11   S    
C2    C3    A    
C25   C26   S    
C39   H37   S    
C42   O3    S    
C17   H17   S    
C21   O2    S    
C39   O4    S    
C30   C31   S    
C35   H22   S    
C28   C42   S    
C33   C35   S    
C32   O2    S    
C36   O3    S    
C14   H45   S    
C10   C11   A    
C27   C43   T    
C20   C21   A    
C14   C15   A    
O6    Zn1   S    
C31   H9    S    
C37   H32   S    
O10   Zn1   S    
C38   H36   S    
C32   H19   S    
C29   H6    S    
