data_mof_unit_3732.cif
_audit_creation_date              2013-03-05T15:54:26-0500
_audit_creation_method            fapswitch 2.2
_symmetry_space_group_name_H-M    P1
_symmetry_Int_Tables_number       1
_space_group_crystal_system       triclinic
_cell_length_a                    15.745747
_cell_length_b                    10.686374
_cell_length_c                    9.96183
_cell_angle_alpha                 87.116141
_cell_angle_beta                  89.273823
_cell_angle_gamma                 93.55011
_cell_volume                      1670.68173186

loop_
_atom_site_label
_atom_site_type_symbol
_atom_site_description
_atom_site_fract_x
_atom_site_fract_y
_atom_site_fract_z
_atom_type_partial_charge
O1    O     O_R   0.500000 0.316780 0.614690 -0.664984
O2    O     O_R   0.499990 0.316750 0.385360 -0.515425
C1    C     C_R   0.504807 0.259995 0.504608 0.923366
O3    O     O_R   0.376780 0.500000 0.614650 -0.643551
O4    O     O_R   0.376770 0.499980 0.385310 -0.581810
C2    C     C_R   0.338433 0.501831 0.500785 0.865830
Zn1   Zn    Zn3+2 0.500010 0.500020 0.653130 0.981191
Zn2   Zn    Zn3+2 0.499990 0.499980 0.346870 1.107562
O5    O     O_R   0.500010 0.683250 0.614640 -0.614642
O6    O     O_R   0.500000 0.683220 0.385310 -0.580522
O7    O     O_R   0.623230 0.500020 0.614690 -0.614346
O8    O     O_R   0.623220 0.500000 0.385350 -0.547688
C3    C     C_R   0.495129 0.738964 0.496778 0.896041
C4    C     C_R   0.661749 0.500659 0.499223 0.924279
C5    C     C_3   0.970220 0.485710 0.625818 0.180958
C6    C     C_3   0.023976 0.393934 0.554631 0.210806
C7    C     C_1   0.250022 0.504457 0.502916 -0.140178
C8    C     C_1   0.750411 0.500615 0.497630 -0.001664
C9    C     C_3   0.031652 0.598024 0.577107 -0.253499
C10   C     C_3   0.084478 0.504221 0.503496 -0.063927
C11   C     C_3   0.978132 0.610911 0.448604 0.285816
C12   C     C_3   0.916297 0.501383 0.499287 -0.171389
C13   C     C_3   0.032624 0.520483 0.373400 -0.270710
C14   C     C_3   0.971225 0.410362 0.427851 0.179198
C15   C     C_1   0.175015 0.505321 0.503921 0.123041
C16   C     C_1   0.825539 0.500763 0.497599 0.212643
H1    H     H_    0.058776 0.535462 0.269408 0.222068
H2    H     H_    0.056963 0.675667 0.638113 0.228221
C17   C     C_R   0.448369 0.092051 0.750621 -0.274208
H3    H     H_    0.475917 0.178142 0.786864 0.222813
C18   C     C_R   0.395938 0.017569 0.842391 0.259418
C19   C     C_R   0.362009 0.899581 0.805460 0.277955
C20   C     C_R   0.386145 0.856099 0.681847 -0.258516
H4    H     H_    0.361050 0.764092 0.655451 0.192645
C21   C     C_R   0.446115 0.925881 0.596763 0.032807
C22   C     C_R   0.469198 0.050463 0.621806 0.017052
C23   C     C_R   0.512633 0.125858 0.516360 -0.203538
C24   C     C_R   0.550172 0.070083 0.406710 0.297331
H5    H     H_    0.570484 0.897957 0.317303 0.241062
C25   C     C_R   0.537280 0.942511 0.395868 -0.189219
C26   C     C_R   0.487236 0.871256 0.490785 -0.139207
C27   C     C_R   0.357686 0.373326 0.140081 0.568163
C28   C     C_R   0.283455 0.353896 0.061716 -0.245698
H6    H     H_    0.221699 0.324852 0.105162 0.167320
C29   C     C_R   0.291013 0.345631 0.924727 -0.105288
H7    H     H_    0.237966 0.308226 0.867777 0.221419
C30   C     C_R   0.369109 0.373453 0.863531 -0.122759
H8    H     H_    0.377845 0.341952 0.764536 0.190926
C31   C     C_R   0.434072 0.438426 0.930600 0.103194
C32   C     C_R   0.431600 0.438690 0.075088 0.059609
N1    N     N_R   0.499210 0.498800 0.142780 -0.159792
C33   C     C_R   0.565571 0.555549 0.066004 0.340368
H9    H     H_    0.617052 0.602418 0.865448 0.195317
C34   C     C_R   0.564680 0.555711 0.923451 -0.101761
N2    N     N_R   0.499180 0.498720 0.857170 -0.138211
N3    N     N_R   0.047277 0.273562 0.613828 0.257544
O9    O     O_R   0.988106 0.188229 0.651295 -0.257937
O10   O     O_R   0.126726 0.251242 0.631246 -0.399700
N4    N     N_R   0.310215 0.817763 0.896620 0.241532
O11   O     O_R   0.331033 0.803683 0.022245 -0.325930
O12   O     O_R   0.251449 0.741256 0.850164 -0.359624
N5    N     N_R   0.637654 0.614956 0.128100 0.229373
O13   O     O_R   0.714004 0.593909 0.087082 -0.292337
O14   O     O_R   0.627585 0.708460 0.203819 -0.352139
O15   O     O_3   0.364982 0.308686 0.264648 -0.564519
C35   C     C_3   0.289540 0.239043 0.311700 0.113459
H10   H     H_    0.268768 0.167623 0.239571 0.220825
H11   H     H_    0.237941 0.303045 0.329450 0.143502
C36   C     C_3   0.304658 0.166997 0.443390 -0.726481
H12   H     H_    0.328928 0.231303 0.520050 0.221972
H13   H     H_    0.243968 0.118842 0.481527 0.264311
H14   H     H_    0.350190 0.094433 0.425753 0.247478
N6    N     N_R   0.938679 0.465044 0.763843 0.267279
O16   O     O_R   0.992238 0.453126 0.861264 -0.286922
O17   O     O_R   0.857455 0.458772 0.790697 -0.308888
N7    N     N_R   0.940913 0.306937 0.347527 0.270303
O18   O     O_R   0.995315 0.237367 0.292859 -0.287608
O19   O     O_R   0.859960 0.284046 0.329099 -0.255637
N8    N     N_R   0.954625 0.731247 0.389676 0.259742
O20   O     O_R   0.013749 0.816347 0.351346 -0.281865
O21   O     O_R   0.875105 0.754465 0.374809 -0.297456
N9    N     N_R   0.606171 0.140508 0.311195 0.243877
O22   O     O_R   0.610632 0.107821 0.187320 -0.277328
O23   O     O_R   0.661146 0.225889 0.351751 -0.335499
N10   N     N_R   0.376519 0.064102 0.971118 0.217482
O24   O     O_R   0.434922 0.126114 0.036527 -0.363102
O25   O     O_R   0.299034 0.052567 0.019052 -0.351596

loop_
_geom_bond_atom_site_label_1
_geom_bond_atom_site_label_2
_geom_bond_distance
_ccdc_geom_bond_type
C35   H11   1.111974 S    
C18   N10   1.434666 S    
N6    O16   1.300343 A    
C4    C8    1.395976 S    
C9    C10   1.547970 S    
C8    C16   1.182835 T    
Zn1   N2    2.031832 S    
C3    C26   1.425160 S    
C30   C31   1.396726 A    
H9    C34   1.082109 S    
C5    C9    1.548356 S    
C17   C22   1.420053 A    
N5    O13   1.301181 A    
C22   C23   1.431326 A    
C9    C11   1.546554 S    
C23   C24   1.410870 A    
N7    O19   1.300061 A    
N10   O24   1.300978 A    
O4    C2    1.293924 A    
O7    C4    1.293060 A    
C35   C36   1.516384 S    
C10   C15   1.424948 S    
C5    C6    1.529322 S    
N3    O9    1.300238 A    
C36   H13   1.110205 S    
O5    C3    1.294820 A    
N5    O14   1.298066 A    
C5    C12   1.536634 S    
C21   C22   1.393754 A    
C27   O15   1.399085 S    
C13   C14   1.547687 S    
C13   H1    1.110275 S    
C6    C10   1.531113 S    
N10   O25   1.300934 A    
C35   H10   1.111765 S    
N4    O11   1.301453 A    
C6    C14   1.529098 S    
C11   C12   1.536155 S    
C24   N9    1.440040 S    
N6    O17   1.300249 A    
O3    Zn1   1.982602 S    
C33   C34   1.420252 A    
C32   N1    1.406326 A    
C29   C30   1.374635 A    
N4    O12   1.301554 A    
N1    C33   1.378093 A    
C30   H8    1.067934 S    
N7    O18   1.300331 A    
O3    C2    1.291585 A    
H5    C25   1.081903 S    
N8    O21   1.300285 A    
C14   N7    1.457033 S    
C31   N2    1.361244 A    
O1    C1    1.283387 A    
C36   H14   1.107042 S    
Zn1   O7    1.972852 S    
C28   H6    1.080577 S    
C6    N3    1.457614 S    
C17   H3    1.073720 S    
C18   C19   1.406681 A    
C10   C13   1.548605 S    
Zn2   O8    1.982602 S    
C11   N8    1.457324 S    
C20   H4    1.082840 S    
C9    H2    1.110197 S    
C28   C29   1.376073 A    
Zn2   N1    2.033970 S    
C27   C32   1.447874 A    
C25   C26   1.388942 A    
C5    N6    1.457572 S    
O8    C4    1.293309 A    
C31   C32   1.439540 A    
N9    O23   1.301219 A    
C11   C13   1.546133 S    
C12   C14   1.535836 S    
C27   C28   1.424092 A    
Zn1   O5    1.976230 S    
C2    C7    1.394029 S    
C34   N2    1.360327 A    
O1    Zn1   2.014072 S    
O2    Zn2   1.976231 S    
O6    C3    1.289904 A    
O4    Zn2   1.972851 S    
C7    C15   1.181572 T    
C19   C20   1.394383 A    
O2    C1    1.311590 A    
C17   C18   1.406101 A    
C33   N5    1.428988 S    
C24   C25   1.375687 A    
C20   C21   1.412476 A    
N3    O10   1.300103 A    
O15   C35   1.423360 S    
C36   H12   1.108672 S    
C21   C26   1.402156 A    
N8    O20   1.300270 A    
C29   H7    1.082965 S    
C1    C23   1.445329 S    
Zn2   O6    2.014071 S    
N9    O22   1.301531 A    
C12   C16   1.428986 S    
C19   N4    1.437806 S    
