data_mof_unit_2482.cif
_audit_creation_date              2012-12-10T17:37:21-0500
_audit_creation_method            fapswitch 2.2
_symmetry_space_group_name_H-M    P1
_symmetry_Int_Tables_number       1
_space_group_crystal_system       triclinic
_cell_length_a                    12.332792
_cell_length_b                    13.117077
_cell_length_c                    15.850104
_cell_angle_alpha                 77.78317
_cell_angle_beta                  101.035706
_cell_angle_gamma                 116.523756
_cell_volume                      2228.43428199

loop_
_atom_site_label
_atom_site_type_symbol
_atom_type_description
_atom_site_fract_x
_atom_site_fract_y
_atom_site_fract_z
_atom_type_partial_charge
C1    C     C_R   0.855217 0.286413 0.507139 0.783563
C2    C     C_3   0.997762 0.498387 0.916889 0.094020
C3    C     C_3   0.114228 0.547337 0.036934 -0.171854
C4    C     C_3   0.998431 0.497409 0.083291 0.155806
C5    C     C_3   0.052654 0.607249 0.961378 -0.174356
C6    C     C_3   0.937024 0.557697 0.009447 -0.172668
C7    C     C_1   0.997798 0.499042 0.825015 -0.047111
C8    C     C_1   0.999515 0.497927 0.175021 -0.031960
C9    C     C_R   0.273135 0.039404 0.420437 0.474311
C10   C     C_R   0.228513 0.838567 0.479111 -0.188133
C11   C     C_R   0.816028 0.083979 0.560946 -0.163834
C12   C     C_R   0.999364 0.499714 0.659902 0.811010
C13   C     C_R   0.735459 0.970262 0.581940 -0.140985
C14   C     C_R   0.611740 0.934857 0.554873 -0.125412
C15   C     C_R   0.566652 0.011182 0.499554 0.084959
C16   C     C_R   0.651203 0.123817 0.470631 -0.080280
C17   C     C_R   0.440123 0.980733 0.475240 -0.071595
C18   C     C_R   0.399315 0.065278 0.430012 -0.078421
C19   C     C_R   0.485124 0.172024 0.392670 0.431651
C20   C     C_R   0.609349 0.194705 0.405361 0.268452
C21   C     C_R   0.353278 0.867803 0.494278 -0.264953
C22   C     C_R   0.188184 0.926720 0.448956 0.267503
C23   C     C_R   0.145208 0.714431 0.489650 0.823063
C24   C     C_R   0.774265 0.162922 0.509211 -0.097316
C25   C     C_R   0.347768 0.333985 0.644869 0.344323
C26   C     C_R   0.759544 0.645977 0.383556 0.118577
C27   C     C_R   0.663116 0.677649 0.358662 -0.248185
C28   C     C_R   0.559929 0.622279 0.403048 -0.165798
C29   C     C_R   0.551748 0.533874 0.473583 0.021642
C30   C     C_R   0.653124 0.504919 0.496737 0.249323
C31   C     C_R   0.447927 0.474447 0.522258 -0.132812
C32   C     C_R   0.448055 0.388319 0.594404 0.013579
C33   C     C_R   0.546101 0.356711 0.613135 0.356106
C34   C     C_R   0.000370 0.499935 0.340096 0.825669
C35   C     C_R   0.647192 0.417395 0.566504 -0.290030
C36   C     C_R   0.342696 0.496715 0.501929 0.035119
C37   C     C_R   0.246836 0.358261 0.618822 0.039267
C38   C     C_3   0.943165 0.387871 0.039547 -0.217372
C39   C     C_3   0.884009 0.449283 0.964435 0.004422
C40   C     C_1   0.998261 0.499434 0.749459 -0.155842
C41   C     C_1   0.000278 0.498765 0.250570 -0.156374
C42   C     C_3   0.057978 0.439117 0.991462 0.003790
Cu1   Cu    Cu3+1 0.098270 0.475420 0.519690 0.948042
Cu2   Cu    Cu3+1 0.901730 0.524580 0.480310 0.963076
H1    H     H_    0.381530 0.799338 0.517559 0.177683
H2    H     H_    0.910112 0.111378 0.589290 0.162011
H3    H     H_    0.554239 0.848246 0.580993 0.124142
H4    H     H_    0.768007 0.910706 0.623973 0.145774
H5    H     H_    0.169484 0.316020 0.656100 0.154017
H6    H     H_    0.334626 0.559718 0.448375 0.135214
H7    H     H_    0.839412 0.689549 0.348916 0.147432
H8    H     H_    0.898356 0.298058 0.072363 0.151252
H9    H     H_    0.488761 0.651206 0.380985 0.136184
H10   H     H_    0.668444 0.745541 0.304879 0.155242
H11   H     H_    0.720067 0.392764 0.587436 0.199310
H12   H     H_    0.886384 0.606002 0.018043 0.146566
H13   H     H_    0.097390 0.696924 0.928362 0.156491
H14   H     H_    0.209327 0.587125 0.068119 0.146339
N1    N     N_R   0.246280 0.438200 0.549540 -0.217829
N2    N     N_R   0.754330 0.561180 0.450980 -0.195311
O1    O     O_R   0.972510 0.318130 0.524770 -0.584090
O2    O     O_R   0.806530 0.359650 0.491510 -0.561755
O3    O     O_R   0.082970 0.479240 0.637550 -0.574603
O4    O     O_R   0.916990 0.520750 0.604290 -0.599821
O5    O     O_R   0.193470 0.640350 0.508490 -0.591482
O6    O     O_R   0.027490 0.681870 0.475230 -0.573027
O7    O     O_R   0.083010 0.479250 0.395710 -0.574191
O8    O     O_R   0.917030 0.520760 0.362450 -0.555516
C43   C     C_1   0.758148 0.396094 0.923711 0.246454
N3    N     N_1   0.658948 0.354188 0.891476 -0.256049
O9    O     O_3   0.685386 0.281424 0.348923 -0.710546
H15   H     H_    0.755220 0.264451 0.346173 0.317443
O10   O     O_3   0.540516 0.263258 0.675269 -0.692672
H16   H     H_    0.614918 0.250631 0.679084 0.321709
O11   O     O_3   0.346285 0.260265 0.721095 -0.676863
H17   H     H_    0.423951 0.299002 0.757269 0.371851
C44   C     C_1   0.124561 0.374577 0.980963 0.250724
N4    N     N_1   0.177080 0.323690 0.972624 -0.247389
O12   O     O_3   0.067318 0.905202 0.444697 -0.744919
H18   H     H_    0.037072 0.856737 0.499714 0.342856
O13   O     O_3   0.445276 0.249140 0.338588 -0.645694
H19   H     H_    0.515382 0.324750 0.327255 0.364529
O14   O     O_3   0.235859 0.126336 0.385967 -0.658188
H20   H     H_    0.145929 0.095640 0.380373 0.364740

loop_
_geom_bond_atom_site_label_1
_geom_bond_atom_site_label_2
_ccdc_geom_bond_type
C3    C42   S    
O10   H16   S    
Cu2   O6    S    
C19   C20   A    
C4    C8    S    
C36   N1    A    
C1    O2    A    
O13   H19   S    
C27   H10   S    
Cu1   O3    S    
C44   N4    T    
C10   C22   A    
C26   C27   A    
C30   C35   A    
C23   O6    A    
C16   C20   A    
C2    C42   S    
C22   O12   S    
C38   C42   S    
C5    C6    S    
C12   O4    A    
C9    C22   A    
C38   H8    S    
C15   C16   A    
C11   C24   A    
C18   C19   A    
C2    C7    S    
C25   C37   A    
C2    C39   S    
C31   C32   A    
C30   N2    A    
C7    C40   T    
C20   O9    S    
C1    C24   S    
Cu1   N1    S    
C25   C32   A    
C16   C24   A    
C13   C14   A    
C34   C41   S    
C21   H1    S    
C10   C21   A    
C35   H11   S    
C8    C41   T    
C4    C6    S    
C34   O8    A    
C12   O3    A    
Cu2   O2    S    
Cu2   O4    S    
C25   O11   S    
C12   C40   S    
O11   H17   S    
C29   C30   A    
C37   H5    S    
O14   H20   S    
C14   C15   A    
Cu1   O5    S    
C17   C18   A    
C39   C43   S    
C37   N1    A    
C9    O14   S    
C33   O10   S    
C4    C38   S    
Cu1   Cu2   S    
Cu2   O8    S    
C2    C5    S    
C3    C4    S    
C36   H6    S    
Cu1   O1    S    
C15   C17   A    
C28   C29   A    
C31   C36   A    
C6    H12   S    
C3    C5    S    
C1    O1    A    
C34   O7    A    
C13   H4    S    
C28   H9    S    
C14   H3    S    
C10   C23   S    
C5    H13   S    
C32   C33   A    
C23   O5    A    
O9    H15   S    
C29   C31   A    
C26   H7    S    
C11   C13   A    
C38   C39   S    
Cu2   N2    S    
C33   C35   A    
C43   N3    T    
C17   C21   A    
O12   H18   S    
C3    H14   S    
C9    C18   A    
C42   C44   S    
Cu1   O7    S    
C27   C28   A    
C6    C39   S    
C11   H2    S    
C19   O13   S    
C26   N2    A    
