data_mof_unit_3178.cif
_audit_creation_date              2012-12-10T17:22:03-0500
_audit_creation_method            fapswitch 2.2
_symmetry_space_group_name_H-M    P1
_symmetry_Int_Tables_number       1
_space_group_crystal_system       triclinic
_cell_length_a                    10.158874
_cell_length_b                    10.543257
_cell_length_c                    15.76484
_cell_angle_alpha                 89.783862
_cell_angle_beta                  81.20925
_cell_angle_gamma                 94.782037
_cell_volume                      1662.6569397

loop_
_atom_site_label
_atom_site_type_symbol
_atom_type_description
_atom_site_fract_x
_atom_site_fract_y
_atom_site_fract_z
_atom_type_partial_charge
C1    C     C_R   0.555616 0.734707 0.499069 0.795078
C2    C     C_2   0.485737 0.929858 0.561601 -0.416895
C3    C     C_2   0.414624 0.130916 0.527995 -0.484453
C4    C     C_R   0.500208 0.500218 0.661536 0.895949
C5    C     C_2   0.496432 0.067727 0.568791 0.643304
C6    C     C_2   0.924578 0.512300 0.507341 -0.147594
C7    C     C_2   0.070224 0.491274 0.493582 0.000736
C8    C     C_R   0.444662 0.265838 0.509628 0.966103
C9    C     C_R   0.499901 0.500267 0.338377 0.905316
C10   C     C_3   0.384226 0.596521 0.961345 0.603693
C11   C     C_3   0.637367 0.573565 0.936705 -0.107578
C12   C     C_3   0.375397 0.577283 0.062544 -0.028427
C13   C     C_3   0.634342 0.584023 0.036965 0.945690
C14   C     C_1   0.499918 0.502422 0.249671 -0.184702
C15   C     C_3   0.498950 0.511083 0.916828 0.096008
C16   C     C_3   0.245323 0.560624 0.931058 -0.912454
C17   C     C_3   0.238695 0.518755 0.111038 -0.967771
C18   C     C_3   0.615106 0.080183 0.681905 -0.312653
C19   C     C_3   0.814773 0.887452 0.505917 -0.248332
C20   C     C_3   0.116488 0.645007 0.597927 -0.655851
C21   C     C_3   0.396048 0.785941 0.870799 -0.327961
C22   C     C_3   0.764653 0.524891 0.884787 -0.910338
C23   C     C_3   0.499507 0.507305 0.082962 0.030567
C24   C     C_3   0.738928 0.794876 0.043146 -0.211928
C25   C     C_3   0.777416 0.424535 0.077151 -0.363552
C26   C     C_3   0.545146 0.264098 0.906517 -0.899717
C27   C     C_3   0.479855 0.368903 0.050616 -0.514888
C28   C     C_3   0.468787 0.370552 0.954266 0.010041
C29   C     C_1   0.499877 0.504638 0.174501 0.024412
C30   C     C_1   0.500565 0.508080 0.825079 -0.019666
C31   C     C_1   0.501197 0.503898 0.749931 -0.226394
C32   C     C_2   0.584828 0.870007 0.516446 0.366043
H1    H     H_    0.382700 0.673436 0.091450 0.238355
H2    H     H_    0.387518 0.318675 0.086508 0.193193
H3    H     H_    0.203140 0.462499 0.948950 0.212387
H4    H     H_    0.171126 0.626332 0.959245 0.250374
H5    H     H_    0.251941 0.567826 0.860315 0.229113
H6    H     H_    0.208523 0.423529 0.087535 0.247004
H7    H     H_    0.241392 0.509710 0.180869 0.258851
H8    H     H_    0.158998 0.582443 0.104565 0.263718
H9    H     H_    0.688267 0.143250 0.711077 0.189314
H10   H     H_    0.653923 0.984691 0.675493 0.164294
H11   H     H_    0.518422 0.075376 0.726456 0.130216
H12   H     H_    0.555844 0.307413 0.065494 0.193305
H13   H     H_    0.852948 0.815741 0.459101 0.181029
H14   H     H_    0.794393 0.845702 0.572211 0.116429
H15   H     H_    0.895644 0.965096 0.505270 0.183593
H16   H     H_    0.204889 0.684433 0.625602 0.229483
H17   H     H_    0.074928 0.725022 0.567658 0.173096
H18   H     H_    0.042509 0.600505 0.651194 0.186208
H19   H     H_    0.288602 0.802800 0.877241 0.178635
H20   H     H_    0.426802 0.731114 0.812684 0.159601
H21   H     H_    0.453167 0.880583 0.861360 0.177302
H22   H     H_    0.770876 0.550260 0.815730 0.239057
H23   H     H_    0.389642 0.879875 0.586722 0.117652
H24   H     H_    0.855653 0.571658 0.906199 0.259496
H25   H     H_    0.768925 0.421571 0.888336 0.261832
H26   H     H_    0.803672 0.773708 0.982343 0.140858
H27   H     H_    0.795213 0.788241 0.097897 0.200444
H28   H     H_    0.713353 0.894652 0.038517 0.164523
H29   H     H_    0.763196 0.365992 0.021186 0.164346
H30   H     H_    0.717976 0.384835 0.137592 0.179809
H31   H     H_    0.883600 0.419926 0.084946 0.198394
H32   H     H_    0.485574 0.171186 0.921086 0.232357
H33   H     H_    0.560585 0.277733 0.835886 0.254605
H34   H     H_    0.329157 0.081632 0.504669 0.112749
H35   H     H_    0.642401 0.253210 0.927716 0.234636
H36   H     H_    0.105347 0.421810 0.446652 0.121753
H37   H     H_    0.884735 0.581407 0.552878 0.166551
H38   H     H_    0.881501 0.383263 0.422434 0.171158
H39   H     H_    0.645199 0.672447 0.910519 0.202967
H40   H     H_    0.363139 0.340791 0.949017 0.167954
N1    N     N_2   0.842720 0.448890 0.465540 -0.186053
N2    N     N_2   0.157250 0.551040 0.534500 -0.037648
O1    O     O_R   0.431050 0.692470 0.506940 -0.617717
O2    O     O_3   0.702910 0.939196 0.480362 -0.570129
O3    O     O_3   0.425218 0.729870 0.946727 -0.602727
O4    O     O_3   0.618606 0.714387 0.058656 -0.644104
O5    O     O_3   0.756786 0.553265 0.065188 -0.615365
O6    O     O_R   0.651130 0.659650 0.484820 -0.613479
O7    O     O_R   0.389910 0.516410 0.633920 -0.614841
O8    O     O_R   0.609990 0.483590 0.611800 -0.598382
O9    O     O_R   0.348870 0.340350 0.515180 -0.622511
O10   O     O_R   0.568950 0.307530 0.493060 -0.534690
O11   O     O_R   0.390010 0.516410 0.388200 -0.611259
O12   O     O_R   0.610090 0.483590 0.366080 -0.600729
O13   O     O_3   0.603054 0.132053 0.601090 -0.541240
Zn1   Zn    Zn3+2 0.353060 0.521920 0.514770 0.943213
Zn2   Zn    Zn3+2 0.646940 0.478080 0.485230 0.979235

loop_
_geom_bond_atom_site_label_1
_geom_bond_atom_site_label_2
_ccdc_geom_bond_type
C6    H37   S    
C13   O5    S    
C8    O9    A    
C22   H25   S    
C19   H14   S    
C22   H22   S    
C12   C23   S    
O8    Zn2   S    
C6    N1    D    
C26   H35   S    
C23   C29   S    
C19   O2    S    
C2    H23   S    
C18   H10   S    
C16   H3    S    
C17   H7    S    
C30   C31   T    
C11   H39   S    
C13   C23   S    
C2    C32   D    
C25   H31   S    
O6    Zn2   S    
C26   H32   S    
C20   H18   S    
C9    O11   A    
C7    H36   S    
C11   C15   S    
C27   H12   S    
C4    O7    A    
C12   C17   S    
C23   C27   S    
C16   H5    S    
C25   H30   S    
O9    Zn1   S    
C25   O5    S    
C28   H40   S    
C10   O3    S    
C7    N2    D    
C27   H2    S    
C4    C31   S    
C3    C8    S    
C18   H9    S    
C22   H24   S    
C1    C32   S    
C17   H8    S    
C1    O1    A    
C9    C14   S    
C20   H17   S    
C9    O12   A    
C24   H28   S    
H38   N1    S    
C20   N2    S    
C25   H29   S    
C20   H16   S    
C10   C12   S    
C24   O4    S    
C3    H34   S    
O10   Zn2   S    
C14   C29   T    
C21   H19   S    
C15   C30   S    
O11   Zn1   S    
C13   O4    S    
C8    O10   A    
C26   H33   S    
C3    C5    D    
O12   Zn2   S    
C32   O2    S    
C2    C5    S    
C19   H13   S    
C6    C7    S    
C11   C22   S    
C26   C28   S    
C18   O13   S    
C10   C15   S    
N1    Zn2   S    
C10   C16   S    
C18   H11   S    
C16   H4    S    
C21   H21   S    
C11   C13   S    
C15   C28   S    
C24   H27   S    
C19   H15   S    
C17   H6    S    
O7    Zn1   S    
C5    O13   S    
O1    Zn1   S    
C4    O8    A    
C24   H26   S    
C21   O3    S    
C27   C28   S    
C1    O6    A    
N2    Zn1   S    
C12   H1    S    
C21   H20   S    
