data_mof_unit_4674.cif
_audit_creation_date              2013-03-05T15:39:56-0500
_audit_creation_method            fapswitch 2.2
_symmetry_space_group_name_H-M    P1
_symmetry_Int_Tables_number       1
_space_group_crystal_system       triclinic
_cell_length_a                    27.956889
_cell_length_b                    18.853724
_cell_length_c                    16.86957
_cell_angle_alpha                 89.937808
_cell_angle_beta                  62.441376
_cell_angle_gamma                 89.90424
_cell_volume                      7882.91204874

loop_
_atom_site_label
_atom_site_type_symbol
_atom_site_description
_atom_site_fract_x
_atom_site_fract_y
_atom_site_fract_z
_atom_type_partial_charge
O1    O     O_R   0.255040 0.869590 0.478480 -0.503779
O2    O     O_R   0.744960 0.130410 0.521520 -0.514502
O3    O     O_R   0.744960 0.869590 0.521520 -0.506627
O4    O     O_R   0.255040 0.130410 0.478480 -0.501738
O5    O     O_R   0.755040 0.369590 0.478480 -0.505475
O6    O     O_R   0.244960 0.630410 0.521520 -0.505713
O7    O     O_R   0.244960 0.369590 0.521520 -0.504725
O8    O     O_R   0.755040 0.630410 0.478480 -0.504871
O9    O     O_R   0.182050 0.796550 0.624440 -0.588542
O10   O     O_R   0.817950 0.203450 0.375560 -0.594976
O11   O     O_R   0.817950 0.796550 0.375560 -0.594002
O12   O     O_R   0.182050 0.203450 0.624440 -0.587973
O13   O     O_R   0.682050 0.296550 0.624440 -0.581446
O14   O     O_R   0.317950 0.703450 0.375560 -0.590703
O15   O     O_R   0.317950 0.296550 0.375560 -0.590811
O16   O     O_R   0.682050 0.703450 0.624440 -0.589720
Cu1   Cu    Cu3+1 0.209920 0.785290 0.495070 1.011977
Cu2   Cu    Cu3+1 0.790080 0.214710 0.504930 1.003970
Cu3   Cu    Cu3+1 0.790080 0.785290 0.504930 1.007292
Cu4   Cu    Cu3+1 0.209920 0.214710 0.495070 1.011600
Cu5   Cu    Cu3+1 0.709920 0.285290 0.495070 1.012926
Cu6   Cu    Cu3+1 0.290080 0.714710 0.504930 1.009969
Cu7   Cu    Cu3+1 0.290080 0.285290 0.504930 1.012063
Cu8   Cu    Cu3+1 0.709920 0.714710 0.495070 1.012723
C1    C     C_R   0.295009 0.728188 0.329649 0.794961
C2    C     C_R   0.704981 0.271791 0.670356 0.811587
C3    C     C_R   0.704974 0.728216 0.670299 0.800738
C4    C     C_R   0.295019 0.271797 0.329705 0.792694
C5    C     C_R   0.794978 0.228131 0.329670 0.777990
C6    C     C_R   0.204989 0.771808 0.670352 0.798139
C7    C     C_R   0.204972 0.228218 0.670300 0.797892
C8    C     C_R   0.795012 0.771810 0.329709 0.792729
O17   O     O_R   0.250530 0.763330 0.367210 -0.586434
O18   O     O_R   0.749470 0.236670 0.632790 -0.583462
O19   O     O_R   0.749470 0.763330 0.632790 -0.583348
O20   O     O_R   0.250530 0.236670 0.367210 -0.587086
O21   O     O_R   0.750530 0.263330 0.367210 -0.598001
O22   O     O_R   0.249470 0.736670 0.632790 -0.585609
O23   O     O_R   0.249470 0.263330 0.632790 -0.585461
O24   O     O_R   0.750530 0.736670 0.367210 -0.585436
O25   O     O_R   0.177260 0.690030 0.513710 -0.613930
O26   O     O_R   0.822740 0.309970 0.486290 -0.613607
O27   O     O_R   0.822740 0.690030 0.486290 -0.614414
O28   O     O_R   0.177260 0.309970 0.513710 -0.614405
O29   O     O_R   0.677260 0.190030 0.513710 -0.607347
O30   O     O_R   0.322740 0.809970 0.486290 -0.615380
O31   O     O_R   0.322740 0.190030 0.486290 -0.612735
O32   O     O_R   0.677260 0.809970 0.513710 -0.612983
C9    C     C_R   0.196448 0.631833 0.528010 0.827403
C10   C     C_R   0.803552 0.368167 0.471986 0.828971
C11   C     C_R   0.803580 0.631861 0.471873 0.826572
C12   C     C_R   0.196420 0.368139 0.528125 0.826273
C13   C     C_R   0.700076 0.130953 0.515975 0.830260
C14   C     C_R   0.303495 0.868160 0.472158 0.828837
C15   C     C_R   0.303844 0.131932 0.471024 0.824125
C16   C     C_R   0.696526 0.868188 0.527312 0.830310
C17   C     C_R   0.044220 0.500049 0.519387 0.037376
C18   C     C_R   0.955784 0.499951 0.480598 0.037357
C19   C     C_R   0.557313 0.998720 0.479508 0.037191
C20   C     C_R   0.463916 0.999507 0.454121 0.038286
C21   C     C_R   0.021246 0.564812 0.511613 0.041733
C22   C     C_R   0.978758 0.435188 0.488371 0.041780
C23   C     C_R   0.978867 0.564751 0.487599 0.040782
C24   C     C_R   0.021137 0.435249 0.512385 0.040747
C25   C     C_R   0.542640 0.061101 0.448841 0.040654
C26   C     C_R   0.484414 0.935177 0.469079 0.041646
C27   C     C_R   0.493263 0.062932 0.443026 0.040647
C28   C     C_R   0.527300 0.935969 0.491500 0.038593
C29   C     C_R   0.113039 0.435273 0.543181 0.015022
C30   C     C_R   0.886963 0.564726 0.456810 0.015085
C31   C     C_R   0.886874 0.435098 0.457397 0.016455
C32   C     C_R   0.113128 0.564902 0.542593 0.016511
C33   C     C_R   0.617389 0.936255 0.527040 0.013978
C34   C     C_R   0.390492 0.064558 0.443318 0.016857
C35   C     C_R   0.388821 0.934682 0.449515 0.016454
C36   C     C_R   0.633911 0.060650 0.482340 0.011794
C37   C     C_R   0.164111 0.434834 0.543540 -0.232484
C38   C     C_R   0.835890 0.565166 0.456454 -0.232468
C39   C     C_R   0.835841 0.434777 0.456750 -0.233694
C40   C     C_R   0.164160 0.565222 0.543243 -0.233469
C41   C     C_R   0.665780 0.935146 0.535770 -0.221909
C42   C     C_R   0.336678 0.065171 0.453221 -0.233133
C43   C     C_R   0.336049 0.934655 0.455416 -0.233246
C44   C     C_R   0.674016 0.063250 0.512562 -0.237724
C45   C     C_R   0.187573 0.499995 0.548297 0.262456
C46   C     C_R   0.812428 0.500005 0.451696 0.262139
C47   C     C_R   0.689204 0.999882 0.539905 0.265247
C48   C     C_R   0.311580 0.999969 0.454129 0.260102
C49   C     C_R   0.090485 0.500079 0.534542 0.073608
C50   C     C_R   0.909518 0.499920 0.465446 0.073525
C51   C     C_R   0.602701 0.998692 0.496917 0.075437
C52   C     C_R   0.414078 0.999697 0.449455 0.075560
C53   C     C_R   0.582657 0.877419 0.548750 -0.144944
C54   C     C_R   0.422780 0.126021 0.424301 -0.155539
C55   C     C_R   0.418914 0.872062 0.440076 -0.151386
C56   C     C_R   0.624033 0.117363 0.437137 -0.153325
C57   C     C_R   0.081965 0.373491 0.555058 -0.148721
C58   C     C_R   0.918037 0.626509 0.444931 -0.148719
C59   C     C_R   0.917867 0.373214 0.446316 -0.148481
C60   C     C_R   0.082135 0.626785 0.553671 -0.148609
C61   C     C_R   0.539459 0.876590 0.529408 -0.214076
C62   C     C_R   0.472343 0.125523 0.425406 -0.208908
C63   C     C_R   0.463396 0.871689 0.455669 -0.218823
C64   C     C_R   0.578642 0.118627 0.423390 -0.206568
C65   C     C_R   0.038466 0.372842 0.536666 -0.215737
C66   C     C_R   0.961537 0.627158 0.463320 -0.215874
C67   C     C_R   0.961332 0.372646 0.464820 -0.216061
C68   C     C_R   0.038672 0.627353 0.535165 -0.215855
H1    H     H_    0.586715 0.832225 0.584535 0.169307
H2    H     H_    0.412051 0.175211 0.404092 0.172521
H3    H     H_    0.410688 0.822432 0.417528 0.175835
H4    H     H_    0.651733 0.160982 0.409033 0.170420
H5    H     H_    0.088531 0.325191 0.582782 0.173717
H6    H     H_    0.911469 0.674809 0.417210 0.173808
H7    H     H_    0.911355 0.324739 0.419047 0.173702
H8    H     H_    0.088645 0.675261 0.580943 0.173283
H9    H     H_    0.514267 0.829806 0.548468 0.143383
H10   H     H_    0.492899 0.175736 0.414114 0.138671
H11   H     H_    0.483033 0.821347 0.451562 0.141182
H12   H     H_    0.573666 0.164612 0.389800 0.137533
H13   H     H_    0.017208 0.323226 0.546080 0.141177
H14   H     H_    0.982795 0.676774 0.453905 0.141102
H15   H     H_    0.982519 0.322952 0.455998 0.139582
H16   H     H_    0.017485 0.677047 0.543986 0.139621
H17   H     H_    0.214970 0.872347 0.010521 0.135738
H18   H     H_    0.784617 0.127048 0.989817 0.135898
H19   H     H_    0.849907 0.743545 0.922847 0.132563
H20   H     H_    0.149924 0.256686 0.077330 0.132567
H21   H     H_    0.714733 0.371915 0.010823 0.136022
H22   H     H_    0.284965 0.627549 0.989542 0.136004
H23   H     H_    0.349910 0.243598 0.922805 0.134303
H24   H     H_    0.649925 0.756765 0.077281 0.132846
C69   C     C_R   0.220711 0.767701 0.953512 0.104157
C70   C     C_R   0.778876 0.231664 0.046885 0.103164
C71   C     C_R   0.778887 0.767571 0.047183 0.108146
C72   C     C_R   0.220942 0.232752 0.952951 0.107801
C73   C     C_R   0.720456 0.267299 0.953749 0.103757
C74   C     C_R   0.279223 0.732195 0.046550 0.104404
C75   C     C_R   0.278896 0.267543 0.047181 0.107367
C76   C     C_R   0.720948 0.732747 0.952945 0.108489
C77   C     C_R   0.241422 0.698952 0.947756 -0.168554
C78   C     C_R   0.758188 0.300428 0.052662 -0.169771
C79   C     C_R   0.722198 0.770529 0.089726 -0.168712
C80   C     C_R   0.277631 0.229838 0.910390 -0.167445
C81   C     C_R   0.741123 0.198522 0.947997 -0.167893
C82   C     C_R   0.258509 0.800943 0.052309 -0.168978
C83   C     C_R   0.222205 0.270461 0.089748 -0.168488
C84   C     C_R   0.777636 0.729797 0.910405 -0.168483
H25   H     H_    0.234614 0.658529 0.908538 0.142062
H26   H     H_    0.765002 0.340827 0.091901 0.142655
H27   H     H_    0.700005 0.787397 0.158719 0.133436
H28   H     H_    0.299825 0.213002 0.841385 0.134687
H29   H     H_    0.734326 0.158139 0.908722 0.143113
H30   H     H_    0.265319 0.841368 0.091522 0.140654
H31   H     H_    0.200014 0.287287 0.158758 0.133615
H32   H     H_    0.799832 0.712922 0.841416 0.133215
C85   C     C_R   0.270317 0.681344 0.993902 -0.168481
C86   C     C_R   0.729342 0.318099 0.006468 -0.170309
C87   C     C_R   0.693537 0.753219 0.043124 -0.167690
C88   C     C_R   0.306298 0.247128 0.956983 -0.168381
C89   C     C_R   0.769977 0.180849 0.994196 -0.170607
C90   C     C_R   0.229615 0.818551 0.006163 -0.168464
C91   C     C_R   0.193537 0.253169 0.043152 -0.169036
C92   C     C_R   0.806296 0.747103 0.957004 -0.168389
C93   C     C_R   0.144441 0.829723 0.943820 -0.198489
C94   C     C_R   0.855264 0.169813 0.056413 -0.197807
C95   C     C_R   0.855233 0.829988 0.056374 -0.199418
C96   C     C_R   0.144647 0.170217 0.943722 -0.199243
C97   C     C_R   0.644297 0.329492 0.943931 -0.198929
C98   C     C_R   0.355516 0.670208 0.056212 -0.198388
C99   C     C_R   0.355243 0.329967 0.056369 -0.198224
C100  C     C_R   0.644653 0.670211 0.943718 -0.199289
H33   H     H_    0.129985 0.846712 0.012438 0.150564
H34   H     H_    0.869677 0.152769 0.987825 0.150691
H35   H     H_    0.868672 0.848574 0.988597 0.150364
H36   H     H_    0.131193 0.151663 0.011515 0.150257
H37   H     H_    0.629793 0.346407 0.012588 0.150020
H38   H     H_    0.369961 0.653201 0.987603 0.150693
H39   H     H_    0.368675 0.348565 0.988599 0.150961
H40   H     H_    0.631196 0.651665 0.011515 0.150331
C101  C     C_R   0.117786 0.852004 0.895099 -0.061563
C102  C     C_R   0.882077 0.147796 0.104994 -0.061613
C103  C     C_R   0.882070 0.852132 0.104942 -0.060691
C104  C     C_R   0.117878 0.147948 0.895094 -0.061635
C105  C     C_R   0.617738 0.351937 0.895128 -0.061275
C106  C     C_R   0.382200 0.647975 0.104908 -0.061017
C107  C     C_R   0.382081 0.352113 0.104936 -0.061097
C108  C     C_R   0.617881 0.647946 0.895093 -0.060937
C109  C     C_R   0.136408 0.829715 0.806981 -0.216486
C110  C     C_R   0.863521 0.170194 0.193053 -0.221374
C111  C     C_R   0.863496 0.829831 0.193075 -0.221384
C112  C     C_R   0.136482 0.170193 0.806931 -0.215467
C113  C     C_R   0.636413 0.329737 0.806966 -0.215546
C114  C     C_R   0.363594 0.670292 0.193013 -0.218856
C115  C     C_R   0.363512 0.329804 0.193065 -0.218499
C116  C     C_R   0.636485 0.670191 0.806931 -0.218106
H41   H     H_    0.116312 0.847666 0.768965 0.180172
H42   H     H_    0.883750 0.152475 0.230954 0.178476
H43   H     H_    0.883617 0.847678 0.231020 0.178647
H44   H     H_    0.116420 0.152237 0.768936 0.180478
H45   H     H_    0.616389 0.347814 0.768891 0.180922
H46   H     H_    0.383713 0.652383 0.231008 0.179405
H47   H     H_    0.383632 0.347655 0.231012 0.179502
H48   H     H_    0.616418 0.652243 0.768941 0.179868
C117  C     C_R   0.182384 0.787481 0.766003 -0.057632
C118  C     C_R   0.817465 0.212268 0.234109 -0.052231
C119  C     C_R   0.817554 0.787688 0.234158 -0.056707
C120  C     C_R   0.182384 0.212410 0.765880 -0.057969
C121  C     C_R   0.682349 0.287423 0.766027 -0.060747
C122  C     C_R   0.317603 0.712498 0.234005 -0.057567
C123  C     C_R   0.317573 0.287655 0.234147 -0.057137
C124  C     C_R   0.682392 0.712400 0.765875 -0.057319
C125  C     C_R   0.209081 0.765368 0.814912 -0.187301
C126  C     C_R   0.790589 0.234070 0.185375 -0.194872
C127  C     C_R   0.790870 0.765562 0.185418 -0.187482
C128  C     C_R   0.208989 0.234678 0.814687 -0.187504
C129  C     C_R   0.708960 0.265160 0.815016 -0.186080
C130  C     C_R   0.290878 0.734562 0.185121 -0.188820
C131  C     C_R   0.290896 0.265516 0.185402 -0.189183
C132  C     C_R   0.709004 0.734656 0.814675 -0.184219
H49   H     H_    0.245620 0.733997 0.782808 0.154926
H50   H     H_    0.753977 0.265295 0.217563 0.151836
H51   H     H_    0.755234 0.732578 0.216981 0.155392
H52   H     H_    0.244592 0.267724 0.783148 0.155721
H53   H     H_    0.745472 0.233732 0.782948 0.154570
H54   H     H_    0.254329 0.765914 0.217237 0.154496
H55   H     H_    0.255265 0.232521 0.216963 0.154731
H56   H     H_    0.744613 0.767692 0.783132 0.155854
C133  C     C_R   0.190486 0.786785 0.903917 0.068864
C134  C     C_R   0.809140 0.212601 0.096410 0.069930
C135  C     C_R   0.809258 0.786937 0.096466 0.068190
C136  C     C_R   0.190583 0.213342 0.903660 0.068627
C137  C     C_R   0.690307 0.286491 0.904067 0.069421
C138  C     C_R   0.309461 0.713126 0.096127 0.068950
C139  C     C_R   0.309275 0.286901 0.096456 0.068531
C140  C     C_R   0.690594 0.713327 0.903651 0.068038
O33   O     O_R   0.051640 0.926880 0.885090 -0.584790
O34   O     O_R   0.948360 0.073120 0.114910 -0.586959
O35   O     O_R   0.948360 0.926880 0.114910 -0.586170
O36   O     O_R   0.051640 0.073120 0.885090 -0.583953
O37   O     O_R   0.551640 0.426880 0.885090 -0.584671
O38   O     O_R   0.448360 0.573120 0.114910 -0.585777
O39   O     O_R   0.448360 0.426880 0.114910 -0.585293
O40   O     O_R   0.551640 0.573120 0.885090 -0.584822
Cu9   Cu    Cu3+1 0.495240 0.500000 0.924150 0.958396
Cu10  Cu    Cu3+1 0.504760 0.500000 0.075850 0.954986
Cu11  Cu    Cu3+1 0.995240 1.000000 0.924150 0.957113
Cu12  Cu    Cu3+1 0.004760 1.000000 0.075850 0.952633
C141  C     C_R   0.926449 0.903287 0.066670 0.802747
C142  C     C_R   0.073539 0.096731 0.933340 0.804602
C143  C     C_R   0.073455 0.903184 0.933413 0.805165
C144  C     C_R   0.926510 0.096769 0.066613 0.803440
C145  C     C_R   0.426452 0.403282 0.066668 0.803737
C146  C     C_R   0.573539 0.596731 0.933340 0.803366
C147  C     C_R   0.573444 0.403170 0.933421 0.804279
C148  C     C_R   0.426542 0.596812 0.066589 0.804099
O41   O     O_R   0.940620 0.926560 0.986760 -0.592957
O42   O     O_R   0.059380 0.073440 0.013240 -0.593080
O43   O     O_R   0.059380 0.926560 0.013240 -0.592773
O44   O     O_R   0.940620 0.073440 0.986760 -0.592543
O45   O     O_R   0.440620 0.426560 0.986760 -0.592222
O46   O     O_R   0.559380 0.573440 0.013240 -0.593119
O47   O     O_R   0.559380 0.426560 0.013240 -0.593179
O48   O     O_R   0.440620 0.573440 0.986760 -0.592607
N1    N     N_R   0.234567 0.499933 0.562038 0.152536
O49   O     O_R   0.282674 0.499966 0.494005 -0.335086
O50   O     O_R   0.229120 0.499437 0.642900 -0.363760
N2    N     N_R   0.765436 0.500066 0.437951 0.152594
O51   O     O_R   0.770885 0.500536 0.357087 -0.363286
O52   O     O_R   0.717328 0.500036 0.505981 -0.335431
N3    N     N_R   0.726877 0.001020 0.575773 0.149131
O53   O     O_R   0.778566 0.001987 0.522222 -0.332229
O54   O     O_R   0.709834 0.988652 0.660456 -0.365952
N4    N     N_R   0.260711 0.000072 0.452463 0.155069
O55   O     O_R   0.259458 0.000868 0.376328 -0.359793
O56   O     O_R   0.215735 0.999919 0.526939 -0.340621

loop_
_geom_bond_atom_site_label_1
_geom_bond_atom_site_label_2
_geom_bond_distance
_ccdc_geom_bond_type
O6    C9    1.309420 A    
C18   C22   1.412653 A    
C26   C28   1.414388 A    
C6    O22   1.286799 A    
O36   C142  1.303194 A    
H19   C92   1.082965 S    
C32   C60   1.412168 A    
C8    C119  1.464452 S    
C72   C136  1.483395 S    
O35   C141  1.303201 A    
Cu2   Cu5   2.674899 S    
O38   C148  1.301705 A    
C71   C92   1.404286 A    
C34   C54   1.412553 A    
C29   C37   1.430638 A    
H17   C90   1.082898 S    
C60   H8    1.076575 S    
C44   C47   1.413797 A    
C46   N2    1.435832 S    
C78   H26   1.082995 S    
Cu9   O45   1.968755 S    
C69   C90   1.406137 A    
C76   C84   1.406111 A    
C31   C39   1.431813 A    
Cu11  O44   1.966775 S    
O15   C4    1.299145 A    
C77   H25   1.082989 S    
C16   C41   1.495387 S    
C20   C26   1.412060 A    
C99   C139  1.402235 A    
C4    C123  1.464463 S    
C115  C123  1.392786 A    
C82   C90   1.396100 A    
C75   C83   1.406151 A    
O38   Cu10  1.963213 S    
C17   C49   1.429784 A    
C73   C86   1.406085 A    
C98   H38   1.083226 S    
H22   C85   1.082899 S    
O37   Cu9   1.963216 S    
C142  O42   1.293018 A    
O10   Cu2   1.960129 S    
C73   C81   1.403785 A    
C111  H43   1.083388 S    
O7    C12   1.309529 A    
C107  C115  1.393526 A    
Cu2   O26   1.974029 S    
C76   C87   1.404320 A    
C59   H7    1.076577 S    
C72   C80   1.406109 A    
O7    Cu7   1.965500 S    
C58   H6    1.076855 S    
C30   C38   1.430636 A    
C80   C88   1.396665 A    
C93   H33   1.083228 S    
N3    O53   1.302587 A    
O6    Cu6   1.968416 S    
C113  H45   1.083390 S    
O40   Cu9   1.965909 S    
C132  H56   1.083197 S    
N3    O54   1.300769 A    
N4    O55   1.301018 A    
C55   H3    1.074965 S    
C34   C52   1.414605 A    
C21   C23   1.418433 A    
C21   C68   1.402699 A    
C48   N4    1.435340 S    
H21   C86   1.082901 S    
C108  C116  1.393542 A    
C22   C24   1.418436 A    
C126  H50   1.083270 S    
C47   N3    1.437217 S    
O27   C11   1.293035 A    
C42   C48   1.413042 A    
C101  C109  1.393524 A    
C103  C141  1.465538 S    
O25   C9    1.291160 A    
C144  O44   1.293333 A    
C95   C103  1.406814 A    
C20   C27   1.413797 A    
C109  C117  1.392710 A    
O33   Cu11  1.963216 S    
C25   C27   1.428838 A    
C94   C102  1.404469 A    
O36   Cu11  1.965909 S    
C105  C113  1.393507 A    
C30   C58   1.411905 A    
C104  C112  1.393546 A    
O3    Cu3   1.965500 S    
O39   C145  1.303197 A    
O37   C147  1.301658 A    
C67   H15   1.080601 S    
C116  H48   1.083386 S    
H18   C89   1.082902 S    
C83   H31   1.082887 S    
N1    O49   1.302968 A    
C120  C128  1.405655 A    
O12   C7    1.299133 A    
C62   H10   1.078387 S    
C81   H29   1.082987 S    
O15   Cu7   1.959898 S    
C100  H40   1.083191 S    
O16   C3    1.299145 A    
C79   H27   1.082898 S    
C43   C48   1.412675 A    
C36   C56   1.411781 A    
C37   C45   1.413354 A    
C94   C134  1.400506 A    
O40   C146  1.303204 A    
Cu9   Cu10  2.692609 S    
C10   C39   1.498830 S    
O33   C143  1.301690 A    
C102  C144  1.463216 S    
C98   C106  1.404379 A    
C112  C120  1.392787 A    
C109  H41   1.083402 S    
C99   H39   1.083187 S    
C118  C126  1.406849 A    
C30   C50   1.412006 A    
Cu1   O17   1.961434 S    
C59   C67   1.387458 A    
C68   H16   1.080601 S    
C29   C49   1.412004 A    
C33   C41   1.427089 A    
C14   C43   1.498339 S    
Cu4   O28   1.971872 S    
Cu3   O27   1.971872 S    
C102  C110  1.393470 A    
Cu5   O29   1.974029 S    
C20   C52   1.431432 A    
O34   C144  1.301763 A    
C132  C140  1.401463 A    
C146  O46   1.293016 A    
C36   C44   1.431281 A    
C60   C68   1.387456 A    
H24   C87   1.082967 S    
C94   H34   1.083222 S    
C1    C122  1.465321 S    
C55   C63   1.385080 A    
C35   C55   1.414250 A    
C96   C136  1.402238 A    
C84   C92   1.396665 A    
C131  C139  1.401428 A    
C24   C65   1.402693 A    
C4    O20   1.288255 A    
Cu7   O31   1.971872 S    
C28   C61   1.405748 A    
C33   C51   1.415180 A    
Cu10  O46   1.968755 S    
C101  C143  1.463221 S    
C129  C137  1.402208 A    
C114  C122  1.392708 A    
N1    O50   1.300717 A    
C53   C61   1.389184 A    
C111  C119  1.392774 A    
C93   C133  1.400509 A    
C124  C132  1.405650 A    
C96   C104  1.406833 A    
C77   C85   1.396131 A    
C6    C117  1.465336 S    
C31   C59   1.412168 A    
C54   H2    1.076709 S    
H20   C91   1.082963 S    
C5    C118  1.464949 S    
C127  H51   1.083194 S    
O35   Cu12  1.965909 S    
C23   C66   1.402694 A    
O5    Cu5   1.968418 S    
C104  C142  1.465571 S    
O1    C14   1.308953 A    
C128  H52   1.083191 S    
C106  C148  1.463223 S    
C40   C45   1.413071 A    
C45   N1    1.435832 S    
C19   C28   1.410811 A    
C70   C78   1.403703 A    
Cu12  O43   1.966778 S    
C18   C50   1.429784 A    
O3    C16   1.312021 A    
Cu8   O32   1.971872 S    
C113  C121  1.392738 A    
C82   H30   1.082990 S    
Cu4   Cu7   2.678802 S    
O39   Cu10  1.965909 S    
O11   Cu3   1.959898 S    
C3    O19   1.288275 A    
O30   C14   1.290766 A    
C119  C127  1.405687 A    
Cu5   O21   1.961434 S    
C76   C140  1.483360 S    
C19   C51   1.428705 A    
C15   C42   1.502999 S    
C95   C135  1.402215 A    
Cu2   O18   1.961435 S    
O8    C11   1.309522 A    
C130  C138  1.402159 A    
C41   C47   1.403036 A    
C97   C137  1.400508 A    
O9    C6    1.298682 A    
O26   C10   1.291166 A    
Cu12  O42   1.968755 S    
C35   C52   1.415399 A    
O9    Cu1   1.960129 S    
Cu6   O30   1.974029 S    
N2    O52   1.302967 A    
O11   C8    1.299159 A    
C131  H55   1.083190 S    
C97   H37   1.083233 S    
O4    C15   1.311329 A    
C75   C139  1.483388 S    
C5    O21   1.286685 A    
C127  C135  1.401428 A    
O13   C2    1.298690 A    
C74   C138  1.481865 S    
C78   C86   1.395958 A    
C107  C145  1.465562 S    
Cu6   O22   1.961435 S    
C57   H5    1.076857 S    
C12   C37   1.498079 S    
C126  C134  1.402011 A    
C29   C57   1.411907 A    
C35   C43   1.432015 A    
C8    O24   1.288233 A    
C125  C133  1.402175 A    
C110  H42   1.083398 S    
C17   C24   1.412970 A    
O31   C15   1.293687 A    
C34   C42   1.434865 A    
C100  C140  1.402240 A    
C145  O45   1.293010 A    
C18   C23   1.412969 A    
C96   H36   1.083189 S    
C56   C64   1.391746 A    
Cu8   O24   1.961246 S    
C13   C44   1.485106 S    
Cu1   O25   1.974029 S    
C2    O18   1.286792 A    
O1    Cu1   1.968418 S    
C26   C63   1.398265 A    
C106  C114  1.393524 A    
C63   H11   1.081787 S    
C70   C134  1.481705 S    
C141  O41   1.292994 A    
O2    Cu2   1.968416 S    
O2    C13   1.300760 A    
C122  C130  1.406993 A    
C75   C88   1.404271 A    
Cu11  Cu12  2.692609 S    
C9    C40   1.498827 S    
C17   C21   1.412653 A    
C103  C111  1.393511 A    
O4    Cu4   1.965502 S    
O32   C16   1.290130 A    
C123  C131  1.405685 A    
C105  C147  1.463204 S    
C66   H14   1.080588 S    
C69   C77   1.403749 A    
Cu1   Cu6   2.674899 S    
C58   C66   1.387276 A    
C70   C89   1.406096 A    
C99   C107  1.406822 A    
C65   H13   1.080588 S    
C74   C82   1.403740 A    
C93   C101  1.404356 A    
C61   H9    1.081364 S    
O14   Cu6   1.960129 S    
C148  O48   1.293402 A    
C110  C118  1.392644 A    
C11   C38   1.498085 S    
C57   C65   1.387278 A    
C7    C120  1.464530 S    
C32   C40   1.431816 A    
C83   C91   1.396756 A    
Cu3   O19   1.961248 S    
O13   Cu5   1.960129 S    
C32   C49   1.412564 A    
C74   C85   1.406144 A    
O28   C12   1.293029 A    
C22   C67   1.402697 A    
C147  O47   1.293438 A    
C31   C50   1.412565 A    
C81   C89   1.396196 A    
C97   C105  1.404269 A    
C100  C108  1.406837 A    
Cu7   O23   1.961248 S    
C33   C53   1.407549 A    
C108  C146  1.465588 S    
C3    C124  1.464514 S    
O8    Cu8   1.965502 S    
O29   C13   1.291902 A    
Cu3   Cu8   2.678802 S    
C2    C121  1.465430 S    
N4    O56   1.302975 A    
C79   C87   1.396748 A    
C112  H44   1.083389 S    
O14   C1    1.298679 A    
C125  H49   1.083238 S    
H23   C88   1.082958 S    
O5    C10   1.309414 A    
C69   C133  1.481868 S    
C1    O17   1.286791 A    
Cu10  O47   1.966778 S    
C36   C51   1.410886 A    
C117  C125  1.407007 A    
Cu4   O20   1.961246 S    
O10   C5    1.298682 A    
C95   H35   1.083191 S    
C115  H47   1.083392 S    
N2    O51   1.300710 A    
C54   C62   1.394376 A    
C114  H46   1.083401 S    
O16   Cu8   1.959898 S    
C38   C46   1.413357 A    
C98   C138  1.400507 A    
C53   H1    1.079478 S    
C7    O23   1.288293 A    
C143  O43   1.293412 A    
C116  C124  1.392790 A    
C128  C136  1.401480 A    
C71   C135  1.483348 S    
C84   H32   1.082891 S    
C25   C64   1.405868 A    
C71   C79   1.406141 A    
Cu11  O41   1.968755 S    
Cu9   O48   1.966775 S    
C73   C137  1.481796 S    
O12   Cu4   1.959898 S    
C130  H54   1.083239 S    
C39   C46   1.413076 A    
C19   C25   1.418650 A    
C56   H4    1.078122 S    
C80   H28   1.082876 S    
C27   C62   1.407390 A    
C129  H53   1.083239 S    
C121  C129  1.407031 A    
C64   H12   1.078689 S    
C72   C91   1.404318 A    
O34   Cu12  1.963213 S    
