data_mof_unit_1820.cif
_audit_creation_date              2012-12-10T16:48:04-0500
_audit_creation_method            fapswitch 2.2
_symmetry_space_group_name_H-M    P1
_symmetry_Int_Tables_number       1
_space_group_crystal_system       triclinic
_cell_length_a                    15.826824
_cell_length_b                    8.827454
_cell_length_c                    7.484084
_cell_angle_alpha                 103.291408
_cell_angle_beta                  93.523871
_cell_angle_gamma                 93.078764
_cell_volume                      1013.19333389

loop_
_atom_site_label
_atom_site_type_symbol
_atom_type_description
_atom_site_fract_x
_atom_site_fract_y
_atom_site_fract_z
_atom_type_partial_charge
C1    C     C_R   0.502440 0.200526 0.452874 0.745057
C2    C     C_3   0.979147 0.651990 0.551687 0.353747
C3    C     C_1   0.250616 0.499103 0.510354 -0.087104
C4    C     C_1   0.749055 0.501499 0.489990 -0.152726
C5    C     C_3   0.033182 0.572428 0.679010 -0.409922
C6    C     C_3   0.967493 0.438700 0.329148 -0.416184
C7    C     C_3   0.083471 0.502199 0.512377 -0.092779
C8    C     C_3   0.916315 0.507472 0.495137 -0.155839
C9    C     C_1   0.175122 0.499679 0.513496 0.150010
C10   C     C_1   0.824569 0.503882 0.489041 0.046874
C11   C     C_3   0.977605 0.101812 0.341579 0.030614
C12   C     C_R   0.509980 0.800074 0.545814 0.757782
C13   C     C_3   0.010319 0.944726 0.266042 -0.557742
C14   C     C_3   0.914997 0.838167 0.758548 0.061282
C15   C     C_3   0.894274 0.007988 0.807376 -0.737679
C16   C     C_3   0.599173 0.017515 0.180719 0.105935
C17   C     C_3   0.662139 0.897999 0.110842 -0.690335
C18   C     C_3   0.651474 0.073945 0.725807 -0.010995
C19   C     C_3   0.689537 0.220738 0.863122 -0.696769
C20   C     C_R   0.340077 0.499200 0.503086 0.802682
C21   C     C_R   0.659796 0.500214 0.496828 0.741185
C22   C     C_2   0.515336 0.033670 0.423615 0.172573
C23   C     C_2   0.525965 0.968332 0.569015 0.208773
C24   C     C_3   0.969505 0.426716 0.620918 0.566694
C25   C     C_3   0.030935 0.583247 0.387679 0.607056
C26   C     C_3   0.020428 0.359252 0.456837 0.399449
Cu1   Cu    Cu3+1 0.509330 0.517380 0.684380 1.121542
Cu2   Cu    Cu3+1 0.490670 0.482620 0.315620 1.144955
F1    F     F_    0.936159 0.345010 0.740092 -0.685891
F2    F     F_    0.068024 0.651749 0.261159 -0.673645
F3    F     F_    0.402161 0.402557 0.946157 -0.523432
F4    F     F_    0.601048 0.577997 0.044843 -0.593487
H1    H     H_    0.940630 0.388148 0.185884 0.216104
H2    H     H_    0.854011 0.034576 0.693264 0.247058
H3    H     H_    0.858936 0.030950 0.933321 0.178985
H4    H     H_    0.953874 0.084443 0.833198 0.305292
H5    H     H_    0.636140 0.113939 0.283504 0.063037
H6    H     H_    0.574818 0.067290 0.066904 0.246629
H7    H     H_    0.636302 0.821225 0.977947 0.293805
H8    H     H_    0.722450 0.957779 0.086837 0.153959
H9    H     H_    0.676439 0.829581 0.214994 0.269904
H10   H     H_    0.669614 0.085906 0.587862 0.117857
H11   H     H_    0.681491 0.970532 0.755178 0.147863
H12   H     H_    0.061204 0.624955 0.820871 0.223559
H13   H     H_    0.692351 0.205434 0.005807 0.207975
H14   H     H_    0.755205 0.249001 0.830552 0.226810
H15   H     H_    0.651150 0.320252 0.855243 0.309071
H16   H     H_    0.939602 0.133603 0.227512 0.125119
H17   H     H_    0.936339 0.092980 0.454063 0.203450
H18   H     H_    0.054004 0.917968 0.374467 0.317167
H19   H     H_    0.956533 0.854501 0.226809 0.211871
H20   H     H_    0.046197 0.947961 0.143872 0.234581
H21   H     H_    0.955750 0.816101 0.874753 0.159735
H22   H     H_    0.854322 0.765588 0.743034 0.157363
N1    N     N_2   0.476600 0.456420 0.038510 0.258489
N2    N     N_2   0.523400 0.543580 0.961490 0.236609
O1    O     O_R   0.506070 0.286130 0.619780 -0.532841
O2    O     O_3   0.956760 0.808229 0.593856 -0.574534
O3    O     O_3   0.528612 0.947665 0.248262 -0.550712
O4    O     O_3   0.562095 0.056616 0.736987 -0.571564
O5    O     O_R   0.493930 0.713870 0.380220 -0.532864
O6    O     O_R   0.490300 0.256770 0.308360 -0.576888
O7    O     O_R   0.509700 0.743230 0.691640 -0.570134
O8    O     O_R   0.386960 0.514660 0.655680 -0.524782
O9    O     O_R   0.613040 0.485340 0.344320 -0.543365
O10   O     O_R   0.371190 0.485310 0.344260 -0.538210
O11   O     O_R   0.628810 0.514690 0.655740 -0.583448
O12   O     O_3   0.048029 0.207956 0.409436 -0.544631

loop_
_geom_bond_atom_site_label_1
_geom_bond_atom_site_label_2
_ccdc_geom_bond_type
C20   O8    A    
Cu2   O10   S    
N1    N2    D    
C2    O2    S    
C25   F2    S    
C11   H17   S    
C1    O1    A    
C13   H20   S    
C5    C7    S    
C20   O10   A    
C15   H2    S    
C7    C25   S    
C6    H1    S    
C16   H5    S    
C26   O12   S    
C1    O6    A    
F3    N1    S    
C19   H13   S    
Cu2   O9    S    
C19   H14   S    
C1    C22   S    
C14   H22   S    
C18   H11   S    
C21   O11   A    
C24   F1    S    
C4    C21   S    
C11   C13   S    
C12   C23   S    
C11   H16   S    
C6    C26   S    
C7    C26   S    
Cu1   O7    S    
C3    C9    T    
C15   H3    S    
C8    C24   S    
Cu2   N1    S    
C24   C26   S    
C2    C25   S    
C19   H15   S    
C18   H10   S    
C17   H7    S    
C23   O4    S    
C14   O2    S    
C17   H9    S    
C2    C5    S    
Cu1   O11   S    
Cu1   O8    S    
Cu2   O5    S    
C4    C10   T    
C13   H18   S    
C6    C25   S    
C15   H4    S    
C3    C20   S    
C14   H21   S    
C12   O5    A    
C11   O12   S    
C8    C10   S    
C18   C19   S    
Cu1   O1    S    
C18   O4    S    
C22   O3    S    
C7    C9    S    
C12   O7    A    
F4    N2    S    
Cu1   N2    S    
C5    C24   S    
C6    C8    S    
C21   O9    A    
C13   H19   S    
C17   H8    S    
C5    H12   S    
C22   C23   D    
C2    C8    S    
C14   C15   S    
C16   H6    S    
C16   C17   S    
Cu1   Cu2   S    
C16   O3    S    
Cu2   O6    S    
