data_mof_unit_164.cif
_audit_creation_date              2012-12-10T18:33:34-0500
_audit_creation_method            fapswitch 2.2
_symmetry_space_group_name_H-M    P1
_symmetry_Int_Tables_number       1
_space_group_crystal_system       triclinic
_cell_length_a                    8.82931
_cell_length_b                    15.16505
_cell_length_c                    13.864292
_cell_angle_alpha                 89.386264
_cell_angle_beta                  97.539907
_cell_angle_gamma                 89.382855
_cell_volume                      1840.09083204

loop_
_atom_site_label
_atom_site_type_symbol
_atom_type_description
_atom_site_fract_x
_atom_site_fract_y
_atom_site_fract_z
_atom_type_partial_charge
C1    C     C_R   0.499112 0.330171 0.500446 0.808812
C2    C     C_R   0.499430 0.670104 0.499549 0.799663
C3    C     C_R   0.547552 0.565564 0.104791 -0.238399
C4    C     C_R   0.559517 0.437453 0.904267 -0.250356
C5    C     C_R   0.571054 0.563414 0.207733 0.359138
C6    C     C_R   0.581267 0.440140 0.805045 0.350806
C7    C     C_R   0.414144 0.437221 0.207312 0.031106
C8    C     C_R   0.410152 0.561822 0.778171 0.046151
C9    C     C_R   0.397830 0.434743 0.104325 -0.101466
C10   C     C_R   0.391893 0.563187 0.878164 -0.106089
C11   C     C_R   0.464767 0.500514 0.051591 0.035164
C12   C     C_R   0.465422 0.498712 0.942619 0.038728
C13   C     C_R   0.204509 0.500259 0.475577 0.838218
C14   C     C_R   0.795356 0.501010 0.524155 0.827430
C15   C     C_2   0.041060 0.492336 0.462606 -0.263570
C16   C     C_2   0.958134 0.511854 0.535800 -0.244655
C17   C     C_R   0.391344 0.095325 0.553757 0.128834
C18   C     C_R   0.420061 0.907859 0.418684 0.137390
C19   C     C_R   0.390129 0.188344 0.550157 -0.072538
C20   C     C_R   0.415554 0.815028 0.420981 -0.075933
C21   C     C_R   0.498097 0.233544 0.501916 -0.161977
C22   C     C_R   0.499717 0.767174 0.498863 -0.166640
C23   C     C_R   0.608335 0.186361 0.457812 -0.088000
C24   C     C_R   0.586099 0.812412 0.575652 -0.089356
C25   C     C_R   0.606741 0.094233 0.457889 -0.076301
C26   C     C_R   0.582070 0.904640 0.576937 -0.084263
C27   C     C_R   0.495938 0.049021 0.502925 0.018710
C28   C     C_R   0.496282 0.951988 0.500167 0.018060
Cu1   Cu    Cu3+1 0.500000 0.499990 0.596430 0.968072
Cu2   Cu    Cu3+1 0.500000 0.500010 0.403570 0.965940
H1    H     H_    0.598615 0.616662 0.065040 0.161523
H2    H     H_    0.622066 0.389421 0.953047 0.158161
H3    H     H_    0.356580 0.388507 0.246478 0.146498
H4    H     H_    0.353087 0.611432 0.729512 0.157416
N1    N     N_R   0.500000 0.500020 0.258690 -0.195792
N2    N     N_R   0.500000 0.499980 0.741310 -0.195778
O1    O     O_R   0.500010 0.371450 0.581430 -0.601391
O2    O     O_R   0.499990 0.628550 0.418570 -0.602984
O3    O     O_R   0.500010 0.371460 0.418560 -0.581400
O4    O     O_R   0.499990 0.628540 0.581440 -0.584594
O5    O     O_R   0.274840 0.499990 0.562640 -0.570837
O6    O     O_R   0.725160 0.500010 0.437360 -0.590252
O7    O     O_R   0.274840 0.500000 0.399770 -0.583389
O8    O     O_R   0.725160 0.500000 0.600230 -0.586323
C29   C     C_1   0.976063 0.456795 0.369325 0.339337
N3    N     N_1   0.925884 0.428853 0.294684 -0.259477
C30   C     C_1   0.020321 0.553945 0.625702 0.313034
N4    N     N_1   0.065748 0.588089 0.697729 -0.293115
C31   C     C_3   0.291051 0.047104 0.618676 -0.391585
C32   C     C_3   0.126003 0.037671 0.571161 -0.778050
H5    H     H_    0.082388 0.099188 0.532546 0.257363
H6    H     H_    0.117663 0.982045 0.519641 0.256417
H7    H     H_    0.052057 0.022294 0.627884 0.257743
H8    H     H_    0.336647 0.980523 0.640751 0.210091
H9    H     H_    0.292188 0.083199 0.688116 0.212354
C33   C     C_3   0.354323 0.958394 0.326374 -0.404755
C34   C     C_3   0.187355 0.984739 0.326276 -0.758931
H10   H     H_    0.120376 0.928449 0.349169 0.259913
H11   H     H_    0.178824 0.041443 0.375085 0.260161
H12   H     H_    0.137741 0.005867 0.251768 0.253103
H13   H     H_    0.420798 0.018354 0.315279 0.209990
H14   H     H_    0.364761 0.918005 0.261133 0.211090
C35   C     C_1   0.276897 0.237682 0.595318 0.262825
N5    N     N_1   0.186600 0.277077 0.631186 -0.276641
C36   C     C_1   0.320098 0.769246 0.344551 0.247711
N6    N     N_1   0.243953 0.732781 0.283642 -0.275638
C37   C     C_1   0.728162 0.231857 0.416009 0.267831
N7    N     N_1   0.824799 0.267217 0.382768 -0.262576
C38   C     C_1   0.683125 0.764782 0.652148 0.279397
N8    N     N_1   0.760428 0.726902 0.713104 -0.246963
C39   C     C_1   0.720951 0.045321 0.412916 0.239802
N9    N     N_1   0.811660 0.006254 0.377125 -0.296760
C40   C     C_1   0.669214 0.951491 0.656267 0.239163
N10   N     N_1   0.738565 0.988928 0.719329 -0.271745
C41   C     C_3   0.671821 0.634635 0.257571 -0.384863
C42   C     C_3   0.821421 0.647747 0.214416 -0.845786
H15   H     H_    0.874894 0.583434 0.200430 0.275784
H16   H     H_    0.801373 0.686663 0.145602 0.255281
H17   H     H_    0.902848 0.685073 0.266181 0.261347
H18   H     H_    0.606994 0.698088 0.252630 0.201651
H19   H     H_    0.706689 0.619367 0.334459 0.256117
C43   C     C_3   0.701754 0.377727 0.775727 -0.397103
C44   C     C_3   0.861707 0.403183 0.822402 -0.792752
H20   H     H_    0.885364 0.472615 0.803626 0.275863
H21   H     H_    0.948260 0.359767 0.794906 0.261589
H22   H     H_    0.873329 0.395550 0.902769 0.251573
H23   H     H_    0.677205 0.309433 0.798586 0.190238
H24   H     H_    0.705190 0.375823 0.697415 0.258058
C45   C     C_1   0.308980 0.365779 0.054367 0.240353
N11   N     N_1   0.237617 0.310517 0.014165 -0.266831
C46   C     C_1   0.296591 0.630593 0.912677 0.261130
N12   N     N_1   0.220081 0.684641 0.940424 -0.246270

loop_
_geom_bond_atom_site_label_1
_geom_bond_atom_site_label_2
_ccdc_geom_bond_type
C1    C21   S    
C6    C43   S    
C40   N10   T    
C42   H17   S    
C13   O5    A    
C29   N3    T    
Cu1   N2    S    
Cu2   N1    S    
C22   C24   A    
C19   C21   A    
C42   H16   S    
C43   H23   S    
C34   H11   S    
C31   H8    S    
C26   C40   S    
C33   C34   S    
Cu2   O2    S    
C8    N2    A    
C23   C37   S    
C44   H20   S    
C19   C35   S    
C2    C22   S    
C32   H6    S    
C25   C39   S    
C14   C16   S    
C4    C12   A    
C41   H18   S    
C18   C33   S    
C14   O6    A    
C7    H3    S    
C16   C30   S    
C24   C38   S    
C32   H7    S    
C37   N7    T    
C17   C27   A    
C20   C36   S    
C18   C28   A    
C42   H15   S    
C4    C6    A    
C9    C45   S    
C46   N12   T    
C41   H19   S    
C34   H12   S    
C31   H9    S    
C5    C41   S    
C41   C42   S    
Cu1   Cu2   S    
C2    O2    A    
C30   N4    T    
C32   H5    S    
C8    H4    S    
C3    H1    S    
C9    C11   A    
C4    H2    S    
C10   C12   A    
C44   H21   S    
C20   C22   A    
C10   C46   S    
C43   C44   S    
C13   C15   S    
Cu1   O8    S    
C33   H14   S    
Cu2   O7    S    
C15   C29   S    
C17   C31   S    
C13   O7    A    
C14   O8    A    
C7    C9    A    
Cu1   O5    S    
C7    N1    A    
C24   C26   A    
C3    C5    A    
C11   C12   S    
C1    O1    A    
C25   C27   A    
C26   C28   A    
C21   C23   A    
C39   N9    T    
C36   N6    T    
C34   H10   S    
C43   H24   S    
C5    N1    A    
Cu1   O4    S    
C17   C19   A    
C6    N2    A    
Cu2   O3    S    
C18   C20   A    
C23   C25   A    
C38   N8    T    
C3    C11   A    
C1    O3    A    
C35   N5    T    
C2    O4    A    
C44   H22   S    
C8    C10   A    
C31   C32   S    
Cu1   O1    S    
C27   C28   S    
C33   H13   S    
Cu2   O6    S    
C45   N11   T    
C15   C16   D    
