data_mof_unit_2305.cif
_audit_creation_date              2012-12-11T15:44:58-0500
_audit_creation_method            fapswitch 2.2
_symmetry_space_group_name_H-M    P1
_symmetry_Int_Tables_number       1
_space_group_crystal_system       triclinic
_cell_length_a                    19.126445
_cell_length_b                    10.990758
_cell_length_c                    18.791357
_cell_angle_alpha                 89.941363
_cell_angle_beta                  90.491764
_cell_angle_gamma                 89.829285
_cell_volume                      3950.04352855

loop_
_atom_site_label
_atom_site_type_symbol
_atom_type_description
_atom_site_fract_x
_atom_site_fract_y
_atom_site_fract_z
_atom_type_partial_charge
C1    C     C_R   0.762257 0.526789 0.643993 0.535611
C2    C     C_R   0.218386 0.973425 0.527144 -0.145735
C3    C     C_R   0.477603 0.950614 0.969479 0.017043
C4    C     C_R   0.967546 0.233575 0.972060 -0.162356
C5    C     C_R   0.971859 0.235981 0.046762 -0.170044
C6    C     C_R   0.467551 0.733575 0.972059 -0.162484
C7    C     C_R   0.471862 0.735981 0.046760 -0.169958
C8    C     C_3   0.029065 0.563141 0.038622 -0.258285
C9    C     C_3   0.021699 0.560088 0.958637 -0.275542
C10   C     C_3   0.529065 0.063142 0.038622 -0.258236
C11   C     C_3   0.521701 0.060088 0.958636 -0.275650
C12   C     C_R   0.761576 0.529793 0.852968 0.548149
C13   C     C_R   0.323970 0.595814 0.447604 -0.169417
C14   C     C_R   0.239673 0.531925 0.147835 0.544385
C15   C     C_R   0.261577 0.029790 0.852969 0.549738
C16   C     C_R   0.739673 0.031923 0.147834 0.544282
C17   C     C_R   0.774333 0.130739 0.854803 0.537708
C18   C     C_R   0.226472 0.127990 0.146343 0.540997
C19   C     C_R   0.274335 0.630743 0.854805 0.543513
C20   C     C_R   0.726472 0.627991 0.146343 0.540689
C21   C     C_R   0.965085 0.347020 0.856563 0.551116
C22   C     C_R   0.027796 0.347539 0.147837 0.541455
C23   C     C_R   0.465089 0.847020 0.856561 0.552835
C24   C     C_R   0.725637 0.462440 0.525022 -0.143336
C25   C     C_R   0.527796 0.847539 0.147837 0.541759
C26   C     C_R   0.752701 0.097800 0.419646 0.007584
C27   C     C_R   0.253191 0.058278 0.570969 0.020270
C28   C     C_R   0.256167 0.602115 0.418261 0.007278
C29   C     C_R   0.756627 0.551053 0.569304 0.023887
C30   C     C_R   0.697844 0.141700 0.460907 -0.003052
C31   C     C_R   0.289824 0.152463 0.540308 0.026859
C32   C     C_R   0.203738 0.653346 0.459478 -0.002071
C33   C     C_R   0.791831 0.647204 0.538980 0.029566
C34   C     C_R   0.705715 0.152543 0.533539 -0.001151
C35   C     C_3   0.624223 0.099500 0.468307 -0.239577
C36   C     C_R   0.284476 0.169908 0.467865 0.025434
C37   C     C_R   0.215475 0.677496 0.530613 0.006899
C38   C     C_R   0.786274 0.665701 0.466801 0.024464
C39   C     C_3   0.283374 0.285322 0.555374 -0.283094
C40   C     C_3   0.131170 0.611006 0.472855 -0.250274
C41   C     C_3   0.785249 0.779498 0.555183 -0.286956
C42   C     C_3   0.633210 0.114248 0.548221 -0.284919
C43   C     C_3   0.277901 0.304316 0.475767 -0.242229
C44   C     C_3   0.144175 0.637901 0.551122 -0.270485
C45   C     C_R   0.239469 0.534207 0.353702 0.533674
C46   C     C_3   0.779316 0.799870 0.475669 -0.241388
C47   C     C_R   0.767683 0.118802 0.567137 0.023685
C48   C     C_R   0.247237 0.089345 0.424075 0.021202
C49   C     C_R   0.280162 0.654790 0.562908 0.018417
C50   C     C_R   0.749204 0.585470 0.422805 0.019627
C51   C     C_R   0.988456 0.328592 0.419960 -0.047182
C52   C     C_R   0.995418 0.346617 0.570069 -0.015521
C53   C     C_R   0.488379 0.826742 0.419545 -0.046100
C54   C     C_R   0.493351 0.848364 0.569360 -0.017394
C55   C     C_R   0.002895 0.101240 0.431874 0.134558
C56   C     C_R   0.261435 0.029233 0.644884 0.530811
C57   C     C_R   0.041003 0.135593 0.575299 0.113519
C58   C     C_R   0.508741 0.600691 0.433842 0.137519
C59   C     C_R   0.546607 0.643054 0.576541 0.110611
C60   C     C_R   0.026851 0.004102 0.473400 -0.111181
C61   C     C_R   0.047517 0.021569 0.543425 -0.144676
C62   C     C_R   0.535786 0.507122 0.476301 -0.107284
C63   C     C_R   0.556648 0.528865 0.545851 -0.142712
C64   C     C_R   0.011384 0.234400 0.536515 0.010422
C65   C     C_R   0.000096 0.221385 0.461706 0.001249
C66   C     C_R   0.513657 0.737610 0.536846 0.003423
C67   C     C_R   0.739127 0.034265 0.353475 0.535670
C68   C     C_R   0.502786 0.721572 0.462283 -0.001443
C69   C     C_R   0.981542 0.451746 0.526699 0.002978
C70   C     C_R   0.967961 0.436800 0.453567 0.003562
C71   C     C_R   0.475993 0.951376 0.525137 0.003013
C72   C     C_R   0.464508 0.933830 0.451801 0.001411
C73   C     C_R   0.776388 0.132845 0.643057 0.546303
C74   C     C_R   0.226531 0.126840 0.354027 0.544622
C75   C     C_R   0.291040 0.670898 0.639029 0.560645
C76   C     C_R   0.726959 0.625714 0.353602 0.544176
C77   C     C_R   0.982700 0.573260 0.553005 -0.072859
C78   C     C_R   0.826693 0.098236 0.524656 -0.153499
C79   C     C_R   0.941402 0.535742 0.413264 -0.068736
C80   C     C_R   0.473074 0.073833 0.550210 -0.073857
C81   C     C_R   0.437188 0.029958 0.409717 -0.070893
C82   C     C_R   0.962378 0.671708 0.510791 -0.141752
C83   C     C_R   0.940922 0.652708 0.441097 -0.118759
C84   C     C_R   0.454193 0.170194 0.505691 -0.143215
C85   C     C_R   0.435360 0.147991 0.435621 -0.116772
C86   C     C_R   0.754251 0.084442 0.078549 0.009116
C87   C     C_R   0.253227 0.077778 0.924101 0.032139
C88   C     C_R   0.254253 0.584449 0.078552 0.009233
C89   C     C_R   0.217004 0.986654 0.454069 -0.150166
C90   C     C_R   0.753226 0.577782 0.924100 0.032264
C91   C     C_R   0.814217 0.048104 0.041834 0.004593
C92   C     C_R   0.187307 0.089642 0.953942 0.000169
C93   C     C_R   0.314220 0.548116 0.041838 0.004792
C94   C     C_R   0.687306 0.589645 0.953941 -0.000099
C95   C     C_R   0.817642 0.059492 0.969546 0.057097
C96   C     C_R   0.180484 0.101364 0.026279 0.050014
C97   C     C_R   0.317646 0.559501 0.969550 0.056386
C98   C     C_R   0.680483 0.601365 0.026279 0.050083
C99   C     C_R   0.707268 0.163588 0.966942 -0.155906
C100  C     C_R   0.336097 0.622091 0.519340 -0.160658
C101  C     C_R   0.305354 0.105929 0.042228 -0.164072
C102  C     C_R   0.207271 0.663594 0.966945 -0.156107
C103  C     C_R   0.805353 0.605931 0.042227 -0.164080
C104  C     C_R   0.703411 0.151527 0.041201 -0.176648
C105  C     C_R   0.312539 0.090921 0.968719 -0.130239
C106  C     C_R   0.203412 0.651532 0.041203 -0.176474
C107  C     C_R   0.812538 0.590925 0.968718 -0.130106
C108  C     C_3   0.855665 0.931656 0.040651 -0.203128
C109  C     C_3   0.122832 0.013658 0.946750 -0.218997
C110  C     C_3   0.355671 0.431670 0.040657 -0.203100
C111  C     C_R   0.722374 0.478819 0.451879 -0.153212
C112  C     C_3   0.622832 0.513657 0.946750 -0.219077
C113  C     C_3   0.860171 0.946348 0.960358 -0.041986
C114  C     C_3   0.115404 0.025422 0.026700 -0.030266
C115  C     C_3   0.360177 0.446358 0.960364 -0.042179
C116  C     C_3   0.615405 0.525420 0.026700 -0.030126
C117  C     C_R   0.762615 0.108494 0.929831 0.025139
C118  C     C_R   0.238615 0.103038 0.071981 0.013599
C119  C     C_R   0.262618 0.608502 0.929833 0.023879
C120  C     C_R   0.738614 0.603040 0.071981 0.013690
C121  C     C_R   0.969778 0.347664 0.645176 0.584974
C122  C     C_R   0.819019 0.088773 0.451282 -0.175408
C123  C     C_R   0.026609 0.344101 0.351708 0.527005
C124  C     C_R   0.468892 0.848130 0.644746 0.580458
C125  C     C_R   0.526723 0.843761 0.351658 0.525789
C126  C     C_R   0.989171 0.345151 0.080929 0.019027
C127  C     C_R   0.977062 0.341342 0.932665 0.021594
C128  C     C_R   0.489172 0.845151 0.080928 0.018970
C129  C     C_R   0.477067 0.841342 0.932663 0.020995
C130  C     C_R   0.982818 0.453467 0.041974 0.013783
C131  C     C_R   0.977600 0.450614 0.969480 0.017107
C132  C     C_R   0.482819 0.953467 0.041973 0.013838
Cr1   Cr    Cr6+3 0.885860 0.491680 0.749630 1.005798
Cr2   Cr    Cr6+3 0.112430 0.179310 0.249850 0.990059
Cr3   Cr    Cr6+3 0.387570 0.679310 0.750150 1.001743
Cr4   Cr    Cr6+3 0.612430 0.679310 0.249850 0.988825
Cr5   Cr    Cr6+3 0.114140 0.491680 0.250370 1.003005
Cr6   Cr    Cr6+3 0.385860 0.991680 0.749630 1.000144
Cr7   Cr    Cr6+3 0.614140 0.991680 0.250370 1.001143
Cr8   Cr    Cr6+3 0.730490 0.332970 0.748720 0.996368
Cr9   Cr    Cr6+3 0.269510 0.332970 0.251280 1.002326
Cr10  Cr    Cr6+3 0.230490 0.832970 0.748720 0.992432
Cr11  Cr    Cr6+3 0.769510 0.832970 0.251280 1.003576
Cr12  Cr    Cr6+3 0.887570 0.179310 0.750150 1.006452
H1    H     H_    0.877902 0.082486 0.547974 0.152181
H2    H     H_    0.351467 0.115080 0.075636 0.120982
H3    H     H_    0.166134 0.711711 0.938747 0.137101
H4    H     H_    0.851466 0.615081 0.075635 0.120971
H5    H     H_    0.658326 0.185840 0.068707 0.147944
H6    H     H_    0.364439 0.084031 0.947143 0.140494
H7    H     H_    0.158326 0.685842 0.068708 0.147915
H8    H     H_    0.864437 0.584035 0.947142 0.140449
H9    H     H_    0.824548 0.851825 0.057648 0.192266
H10   H     H_    0.133207 0.919168 0.928865 0.175157
H11   H     H_    0.324557 0.351837 0.057656 0.192278
H12   H     H_    0.187014 0.923101 0.422126 0.135245
H13   H     H_    0.633209 0.419168 0.928864 0.175197
H14   H     H_    0.907196 0.941086 0.067848 0.099475
H15   H     H_    0.080866 0.061684 0.916526 0.108274
H16   H     H_    0.407203 0.441106 0.067853 0.099442
H17   H     H_    0.580866 0.561682 0.916526 0.108038
H18   H     H_    0.913920 0.962340 0.940525 0.122338
H19   H     H_    0.068864 0.076392 0.042976 0.151186
H20   H     H_    0.413925 0.462347 0.940531 0.122483
H21   H     H_    0.568864 0.576387 0.042977 0.151201
H22   H     H_    0.959579 0.148174 0.945223 0.122700
H23   H     H_    0.387613 0.606949 0.541870 0.143506
H24   H     H_    0.968217 0.152222 0.076774 0.113432
H25   H     H_    0.459586 0.648174 0.945221 0.122674
H26   H     H_    0.468220 0.652222 0.076773 0.113424
H27   H     H_    0.082619 0.540000 0.056518 0.172819
H28   H     H_    0.991437 0.638355 0.936807 0.135923
H29   H     H_    0.582619 0.040002 0.056520 0.172832
H30   H     H_    0.491440 0.138355 0.936806 0.136045
H31   H     H_    0.005026 0.644846 0.063385 0.138953
H32   H     H_    0.071358 0.539068 0.930802 0.144325
H33   H     H_    0.505025 0.144846 0.063385 0.138964
H34   H     H_    0.693832 0.414133 0.419372 0.132226
H35   H     H_    0.571361 0.039068 0.930803 0.143925
H36   H     H_    0.862412 0.055887 0.421320 0.174355
H37   H     H_    0.189832 0.898891 0.549722 0.145492
H38   H     H_    0.365299 0.554667 0.418021 0.172706
H39   H     H_    0.700839 0.383544 0.547408 0.147778
H40   H     H_    0.123902 0.512502 0.461604 0.156304
H41   H     H_    0.833995 0.817436 0.578796 0.145583
H42   H     H_    0.617094 0.003077 0.452096 0.164101
H43   H     H_    0.332004 0.323601 0.579042 0.149892
H44   H     H_    0.586834 0.165360 0.444151 0.151523
H45   H     H_    0.964157 0.763104 0.532095 0.098567
H46   H     H_    0.234527 0.308983 0.584039 0.138604
H47   H     H_    0.092270 0.672677 0.447415 0.151380
H48   H     H_    0.736507 0.802248 0.584261 0.131934
H49   H     H_    0.602402 0.190857 0.570563 0.126380
H50   H     H_    0.225981 0.339490 0.458196 0.142614
H51   H     H_    0.112346 0.714968 0.571384 0.122057
H52   H     H_    0.727232 0.835011 0.458559 0.144531
H53   H     H_    0.630603 0.027003 0.578136 0.139063
H54   H     H_    0.324072 0.351147 0.453583 0.156634
H55   H     H_    0.144717 0.554972 0.585113 0.148144
H56   H     H_    0.924781 0.728788 0.408188 0.118469
H57   H     H_    0.825246 0.847240 0.453402 0.157010
H58   H     H_    0.029477 0.913523 0.450899 0.114027
H59   H     H_    0.068193 0.945436 0.573617 0.104435
H60   H     H_    0.540730 0.415998 0.454941 0.114602
H61   H     H_    0.579985 0.455796 0.576677 0.115154
H62   H     H_    0.924520 0.523466 0.358554 0.123675
H63   H     H_    0.004715 0.596568 0.604202 0.140942
H64   H     H_    0.421838 0.015023 0.354776 0.123311
H65   H     H_    0.492268 0.101224 0.601739 0.144188
H66   H     H_    0.801610 0.884498 0.875086 0.252791
H67   H     H_    0.454520 0.262545 0.525683 0.101420
H68   H     H_    0.861119 0.788132 0.905702 0.222683
H69   H     H_    0.097111 0.913765 0.111866 0.243230
H70   H     H_    0.175339 0.890066 0.074458 0.248435
H71   H     H_    0.301615 0.384496 0.875096 0.254245
H72   H     H_    0.361125 0.288135 0.905716 0.222911
H73   H     H_    0.597119 0.413763 0.111868 0.243206
H74   H     H_    0.675343 0.390064 0.074452 0.248403
H75   H     H_    0.945129 0.142061 0.340846 0.235123
H76   H     H_    0.013435 0.042070 0.329483 0.259126
H77   H     H_    0.124488 0.139906 0.641631 0.235893
H78   H     H_    0.419560 0.222306 0.401172 0.122218
H79   H     H_    0.050532 0.086812 0.678909 0.237164
H80   H     H_    0.449827 0.633787 0.342532 0.235518
H81   H     H_    0.520094 0.537985 0.332333 0.260999
H82   H     H_    0.629805 0.656197 0.642894 0.231510
H83   H     H_    0.557170 0.598879 0.680735 0.239691
H84   H     H_    0.666133 0.211707 0.938746 0.137104
N1    N     N_3   0.823071 0.850071 0.922215 -0.623186
N2    N     N_3   0.122762 0.908219 0.063079 -0.659256
N3    N     N_3   0.323077 0.350076 0.922226 -0.622795
N4    N     N_3   0.622765 0.408218 0.063078 -0.659252
N5    N     N_3   0.973556 0.070288 0.363456 -0.652092
N6    N     N_3   0.070566 0.153278 0.644887 -0.614191
N7    N     N_3   0.479753 0.564809 0.366122 -0.653278
N8    N     N_3   0.575562 0.665588 0.645910 -0.614208
O1    O     O_R   0.957020 0.451640 0.669920 -0.537308
O2    O     O_R   0.168040 0.093290 0.169870 -0.524242
O3    O     O_R   0.331960 0.593290 0.830130 -0.526714
O4    O     O_R   0.668040 0.593290 0.169870 -0.524564
O5    O     O_R   0.945600 0.250580 0.824860 -0.509037
O6    O     O_R   0.054400 0.250580 0.175140 -0.509807
O7    O     O_R   0.445600 0.750580 0.824860 -0.508258
O8    O     O_R   0.554400 0.750580 0.175140 -0.509515
O9    O     O_3   0.834640 0.334650 0.749500 -0.254354
O10   O     O_3   0.165360 0.334650 0.250500 -0.242773
O11   O     O_3   0.334640 0.834650 0.749500 -0.271431
O12   O     O_R   0.042980 0.451640 0.330080 -0.521758
O13   O     O_3   0.665360 0.834650 0.250500 -0.242707
O14   O     O_R   0.821450 0.543440 0.674610 -0.491813
O15   O     O_R   0.178550 0.543440 0.325390 -0.497297
O16   O     O_R   0.321450 0.043440 0.674610 -0.493354
O17   O     O_R   0.678550 0.043440 0.325390 -0.500942
O18   O     O_R   0.715320 0.458650 0.668100 -0.542686
O19   O     O_R   0.284680 0.458650 0.331900 -0.529844
O20   O     O_R   0.215320 0.958650 0.668100 -0.548503
O21   O     O_R   0.784680 0.958650 0.331900 -0.526551
O22   O     O_R   0.737170 0.209590 0.674530 -0.500871
O23   O     O_R   0.457020 0.951640 0.669920 -0.538634
O24   O     O_R   0.262830 0.209590 0.325470 -0.506932
O25   O     O_R   0.237170 0.709590 0.674530 -0.501252
O26   O     O_R   0.762830 0.709590 0.325470 -0.506227
O27   O     O_R   0.832710 0.092740 0.669580 -0.531517
O28   O     O_R   0.167290 0.092740 0.330420 -0.524458
O29   O     O_R   0.332710 0.592740 0.669580 -0.523580
O30   O     O_R   0.667290 0.592740 0.330420 -0.524865
O31   O     O_R   0.946290 0.250060 0.676040 -0.475564
O32   O     O_R   0.053710 0.250060 0.323960 -0.502004
O33   O     O_R   0.446290 0.750060 0.676040 -0.491085
O34   O     O_R   0.542980 0.951640 0.330080 -0.524247
O35   O     O_R   0.553710 0.750060 0.323960 -0.502893
O36   O     O_R   0.956270 0.452200 0.830470 -0.522420
O37   O     O_R   0.043730 0.452200 0.169530 -0.527495
O38   O     O_R   0.456270 0.952200 0.830470 -0.520734
O39   O     O_R   0.543730 0.952200 0.169530 -0.527178
O40   O     O_R   0.820760 0.543950 0.823440 -0.513915
O41   O     O_R   0.179240 0.543950 0.176560 -0.510677
O42   O     O_R   0.320760 0.043950 0.823440 -0.511989
O43   O     O_R   0.679240 0.043950 0.176560 -0.510706
O44   O     O_R   0.714570 0.459210 0.828640 -0.528503
O45   O     O_R   0.736470 0.210100 0.823360 -0.507217
O46   O     O_R   0.285430 0.459210 0.171360 -0.524214
O47   O     O_R   0.214570 0.959210 0.828640 -0.527804
O48   O     O_R   0.785430 0.959210 0.171360 -0.523982
O49   O     O_R   0.263530 0.210100 0.176640 -0.509722
O50   O     O_R   0.236470 0.710100 0.823360 -0.503726
O51   O     O_R   0.763530 0.710100 0.176640 -0.509808
O52   O     O_R   0.831960 0.093290 0.830130 -0.529670

loop_
_geom_bond_atom_site_label_1
_geom_bond_atom_site_label_2
_ccdc_geom_bond_type
H77   N6    S    
C51   C123  S    
C34   C42   S    
C8    H31   S    
Cr8   O22   S    
C125  O35   A    
C43   H50   S    
Cr7   O43   S    
C90   C107  A    
C59   C66   A    
C92   C109  S    
C29   C33   A    
C9    H32   S    
Cr3   O7    S    
C53   C68   A    
C108  H9    S    
C5    C126  A    
C7    C128  A    
C97   C115  S    
C85   H78   S    
C18   C118  S    
C99   H84   S    
C93   C110  S    
Cr1   O40   S    
Cr2   O2    S    
C96   C114  S    
Cr7   O13   S    
C55   C65   A    
C9    C131  S    
C28   C45   S    
C27   C31   A    
C48   C74   S    
C28   C32   A    
C58   N7    S    
Cr5   O12   S    
Cr9   O19   S    
C108  C113  S    
C16   O48   A    
C124  O33   A    
H83   N8    S    
C50   C76   S    
C1    C29   S    
C98   C120  A    
C109  H10   S    
C45   O19   A    
C60   H58   S    
Cr6   O38   S    
Cr4   O4    S    
Cr12  O31   S    
C11   H35   S    
C23   O7    A    
C20   C120  S    
C1    O18   A    
C21   O5    A    
C75   O29   A    
C25   O8    A    
C76   O26   A    
Cr11  O13   S    
C4    C127  A    
C70   C79   A    
C3    C129  A    
C15   O42   A    
C4    C5    A    
C57   C61   A    
C6    C7    A    
C74   O24   A    
C59   C63   A    
C33   C38   A    
C37   C44   S    
C130  C131  A    
C14   C88   S    
C77   C82   A    
H66   N1    S    
C69   C70   A    
C127  C131  A    
Cr9   O46   S    
C3    C11   S    
C7    H26   S    
C94   C98   A    
C31   C36   A    
C103  C107  A    
Cr12  O27   S    
Cr2   O10   S    
C102  C119  A    
C21   O36   A    
C75   O25   A    
C76   O30   A    
Cr8   O44   S    
C69   C77   A    
C86   C104  A    
C121  O31   A    
C84   H67   S    
C95   C117  A    
Cr5   O41   S    
C101  C118  A    
C12   C90   S    
C25   C128  S    
Cr6   O16   S    
C77   H63   S    
C92   C96   A    
Cr10  O20   S    
Cr4   O30   S    
C35   C42   S    
C110  H11   S    
C123  O32   A    
Cr9   O24   S    
C46   H57   S    
C124  O23   A    
C35   H44   S    
C49   C75   S    
Cr6   O11   S    
Cr10  O25   S    
C43   H54   S    
C22   O37   A    
Cr12  O9    S    
Cr6   O42   S    
Cr7   O39   S    
Cr1   O1    S    
Cr9   O49   S    
C30   C34   A    
Cr3   O11   S    
H76   N5    S    
C20   O4    A    
C2    H37   S    
C97   C119  A    
C42   H49   S    
C19   O3    A    
C102  H3    S    
C99   C117  A    
C87   C105  A    
C62   H60   S    
Cr11  O26   S    
C32   C37   A    
H74   N4    S    
C53   C125  S    
C109  C114  S    
C26   C30   A    
C56   O20   A    
C82   H45   S    
C109  H15   S    
C93   C97   A    
C112  C116  S    
C110  H16   S    
C12   O44   A    
C11   H30   S    
C10   H33   S    
C36   C43   S    
C113  N1    S    
C54   C66   A    
C125  O34   A    
C71   C72   A    
Cr3   O3    S    
C45   O15   A    
H68   N1    S    
C35   H42   S    
C94   C112  S    
C50   C111  A    
C36   C48   A    
C10   C132  S    
C38   C46   S    
C10   C11   S    
C91   C95   A    
C40   C44   S    
Cr10  O11   S    
C46   H52   S    
C47   C78   A    
C83   H56   S    
C87   C92   A    
C81   C85   A    
C18   O2    A    
Cr1   O9    S    
C74   O28   A    
C58   C62   A    
Cr11  O51   S    
Cr12  O52   S    
H75   N5    S    
C103  C120  A    
Cr11  O21   S    
C80   C84   A    
C57   N6    S    
C122  H36   S    
C105  H6    S    
C100  H23   S    
C86   C91   A    
H73   N4    S    
C123  O12   A    
C126  C130  A    
H72   N3    S    
C23   C129  S    
C51   C65   A    
C5    H24   S    
C24   C29   A    
Cr2   O6    S    
C52   C69   A    
C54   C71   A    
C13   C28   A    
C2    C27   A    
C72   C81   A    
C17   C117  S    
C17   O45   A    
C10   H29   S    
C99   C104  A    
C19   C119  S    
C55   C60   A    
C24   H39   S    
C16   C86   S    
C90   C94   A    
Cr2   O32   S    
Cr7   O34   S    
C112  H13   S    
C3    C132  A    
C84   C85   A    
C47   C73   S    
C52   C64   A    
C17   O52   A    
C73   O22   A    
Cr1   O36   S    
C19   O50   A    
C60   C61   A    
C20   O51   A    
C104  H5    S    
C2    C89   A    
C62   C63   A    
H79   N6    S    
Cr10  O47   S    
C37   C49   A    
C52   C121  S    
Cr12  O5    S    
C67   O21   A    
C81   H64   S    
C14   O41   A    
C58   C68   A    
C8    C130  S    
C116  H21   S    
Cr8   O18   S    
H70   N2    S    
C22   O6    A    
C54   C124  S    
Cr6   O23   S    
C44   H51   S    
Cr2   O28   S    
C106  H7    S    
C27   C56   S    
C91   C108  S    
H80   N7    S    
C42   H53   S    
C89   H12   S    
C33   C41   S    
C64   C65   A    
C25   O39   A    
C79   C83   A    
C40   H47   S    
C56   O16   A    
Cr4   O35   S    
C82   C83   A    
C63   H61   S    
C9    H28   S    
C34   C47   A    
C26   C122  A    
C53   C72   A    
C110  C115  S    
H69   N2    S    
C80   H65   S    
C40   H40   S    
C66   C68   A    
C15   O47   A    
C59   N8    S    
Cr3   O33   S    
Cr8   O45   S    
C12   O40   A    
H82   N8    S    
C18   O49   A    
C14   O46   A    
Cr11  O48   S    
C30   C35   S    
H71   N3    S    
C26   C67   S    
C96   C118  A    
Cr7   O17   S    
C16   O43   A    
C23   O38   A    
C22   C126  S    
C108  H14   S    
C115  H20   S    
C78   H1    S    
C113  H18   S    
C4    H22   S    
C8    C9    S    
C111  H34   S    
C41   C46   S    
C51   C70   A    
C21   C127  S    
C115  N3    S    
C39   H43   S    
C24   C111  A    
C55   N5    S    
C6    C129  A    
C78   C122  A    
C128  C132  A    
C71   C80   A    
Cr5   O15   S    
C103  H4    S    
C67   O17   A    
C101  C105  A    
C101  H2    S    
Cr4   O8    S    
Cr8   O9    S    
H81   N7    S    
C39   H46   S    
C1    O14   A    
C39   C43   S    
C88   C106  A    
C98   C116  S    
Cr9   O10   S    
C41   H41   S    
Cr10  O50   S    
C107  H8    S    
C48   C89   A    
C57   C64   A    
C15   C87   S    
C88   C93   A    
C41   H48   S    
C114  N2    S    
C8    H27   S    
C38   C50   A    
C79   H62   S    
C13   C100  A    
C61   H59   S    
C49   C100  A    
Cr5   O10   S    
C114  H19   S    
C95   C113  S    
C121  O1    A    
Cr5   O37   S    
C31   C39   S    
C102  C106  A    
C32   C40   S    
Cr4   O13   S    
C112  H17   S    
C73   O27   A    
C44   H55   S    
C13   H38   S    
Cr3   O29   S    
Cr1   O14   S    
C116  N4    S    
C6    H25   S    
