data_mof_unit_4961.cif
_audit_creation_date              2013-03-05T16:48:19-0500
_audit_creation_method            fapswitch 2.2
_symmetry_space_group_name_H-M    P1
_symmetry_Int_Tables_number       1
_space_group_crystal_system       triclinic
_cell_length_a                    15.012773
_cell_length_b                    11.08481
_cell_length_c                    13.838703
_cell_angle_alpha                 89.072107
_cell_angle_beta                  91.109403
_cell_angle_gamma                 84.980192
_cell_volume                      2293.31731001

loop_
_atom_site_label
_atom_site_type_symbol
_atom_site_description
_atom_site_fract_x
_atom_site_fract_y
_atom_site_fract_z
_atom_type_partial_charge
O1    O     O_R   0.500000 0.319630 0.582270 -0.517491
O2    O     O_R   0.500000 0.680370 0.417730 -0.517486
O3    O     O_R   0.499990 0.319660 0.417730 -0.574322
O4    O     O_R   0.500010 0.680340 0.582270 -0.574330
C1    C     C_R   0.496054 0.262554 0.500790 0.860394
C2    C     C_R   0.503949 0.737445 0.499211 0.860396
O5    O     O_R   0.370260 0.499960 0.582280 -0.542647
O6    O     O_R   0.629740 0.500040 0.417720 -0.542657
O7    O     O_R   0.370250 0.499990 0.417740 -0.559479
O8    O     O_R   0.629750 0.500010 0.582260 -0.559468
C3    C     C_R   0.329084 0.504272 0.499351 0.852728
C4    C     C_R   0.670916 0.495726 0.500649 0.852738
Cu1   Cu    Cu3+1 0.500010 0.499980 0.597420 1.072423
Cu2   Cu    Cu3+1 0.499990 0.500020 0.402580 1.072425
C5    C     C_R   0.804208 0.600424 0.490664 -0.163761
C6    C     C_R   0.195792 0.399571 0.509334 -0.163895
C7    C     C_R   0.767441 0.491444 0.501165 -0.104890
C8    C     C_R   0.232559 0.508552 0.498834 -0.104886
C9    C     C_R   0.820885 0.381346 0.506958 0.296208
C10   C     C_R   0.179114 0.618651 0.493046 0.296234
C11   C     C_R   0.915874 0.382746 0.505980 -0.082265
C12   C     C_R   0.084126 0.617251 0.494030 -0.082251
C13   C     C_R   0.953110 0.496976 0.499401 -0.021692
C14   C     C_R   0.046890 0.503021 0.500607 -0.021684
C15   C     C_R   0.896415 0.605477 0.490443 0.053646
C16   C     C_R   0.103585 0.394521 0.509567 0.053628
C17   C     C_R   0.975181 0.275795 0.511899 0.280365
C18   C     C_R   0.024819 0.724204 0.488125 0.280344
C19   C     C_R   0.067738 0.282191 0.516388 0.236062
C20   C     C_R   0.932262 0.717808 0.483642 0.236023
H1    H     H_    0.758657 0.681366 0.483944 0.156662
H2    H     H_    0.241342 0.318629 0.516049 0.156640
H3    H     H_    0.338955 0.307576 0.096459 0.192826
H4    H     H_    0.660885 0.692574 0.903693 0.192860
C21   C     C_R   0.313182 0.251818 0.243412 0.386487
C22   C     C_R   0.686730 0.748213 0.756724 0.386393
C23   C     C_R   0.350073 0.188376 0.325900 -0.177941
C24   C     C_R   0.649872 0.811597 0.674191 -0.177806
H5    H     H_    0.310443 0.180700 0.389853 0.172714
H6    H     H_    0.689528 0.819230 0.610251 0.172740
C25   C     C_R   0.438538 0.134877 0.326400 0.111844
C26   C     C_R   0.561411 0.865119 0.673633 0.111828
C27   C     C_R   0.489699 0.144867 0.243262 -0.008003
C28   C     C_R   0.510213 0.855188 0.756750 -0.008013
H7    H     H_    0.557842 0.103978 0.242060 0.199174
H8    H     H_    0.442073 0.896093 0.757906 0.199170
C29   C     C_R   0.453233 0.206312 0.160981 -0.196819
C30   C     C_R   0.546641 0.793797 0.839071 -0.196745
H9    H     H_    0.493136 0.212850 0.097095 0.184037
H10   H     H_    0.506709 0.787307 0.902941 0.184065
C31   C     C_R   0.365759 0.260186 0.161085 -0.183006
C32   C     C_R   0.634115 0.739919 0.839032 -0.183089
C33   C     C_R   0.490395 0.940764 0.411299 0.281915
C34   C     C_R   0.509620 0.059236 0.588707 0.281893
C35   C     C_R   0.508026 0.871443 0.497955 -0.185524
C36   C     C_R   0.491982 0.128555 0.502051 -0.185524
C37   C     C_R   0.523127 0.932188 0.585701 -0.064456
C38   C     C_R   0.476871 0.067810 0.414309 -0.064435
C39   C     C_R   0.570468 0.442337 0.797165 0.405942
C40   C     C_R   0.429536 0.557674 0.202837 0.405977
N1    N     N_R   0.499960 0.499900 0.743810 -0.245010
N2    N     N_R   0.500040 0.500100 0.256190 -0.245012
C41   C     C_R   0.428612 0.556740 0.791884 0.384796
C42   C     C_R   0.571386 0.443257 0.208116 0.384784
C43   C     C_R   0.422330 0.545064 0.894482 -0.127277
C44   C     C_R   0.577670 0.454938 0.105519 -0.127311
C45   C     C_R   0.499192 0.499202 0.948353 -0.010731
C46   C     C_R   0.500809 0.500804 0.051648 -0.010743
C47   C     C_R   0.574463 0.450925 0.899176 -0.105308
C48   C     C_R   0.425539 0.549087 0.100826 -0.105305
C49   C     C_R   0.343576 0.579001 0.946299 0.300070
C50   C     C_R   0.656425 0.421008 0.053704 0.300107
C51   C     C_R   0.346966 0.584746 0.047056 -0.149983
C52   C     C_R   0.653038 0.415271 0.952947 -0.149895
H11   H     H_    0.285111 0.610733 0.082934 0.231397
H12   H     H_    0.714895 0.389291 0.917070 0.231378
Br1   Br    Br    0.489957 0.867812 0.284475 -0.415924
Br2   Br    Br    0.510090 0.132200 0.715527 -0.415915
Br3   Br    Br    0.663772 0.340803 0.737549 -0.337469
Br4   Br    Br    0.336243 0.659223 0.262456 -0.337416
Br5   Br    Br    0.349580 0.677576 0.724197 -0.377208
Br6   Br    Br    0.650411 0.322409 0.275801 -0.377185
Br7   Br    Br    0.224325 0.592004 0.890904 -0.288471
Br8   Br    Br    0.775674 0.408006 0.109105 -0.288403
Br9   Br    Br    0.757305 0.236347 0.516480 -0.283349
Br10  Br    Br    0.242694 0.763650 0.483523 -0.283365
N3    N     N_R   0.943646 0.158738 0.506185 0.189205
O9    O     O_R   0.931089 0.112699 0.421678 -0.197304
O10   O     O_R   0.939991 0.092083 0.584020 -0.202567
N4    N     N_R   0.056355 0.841259 0.493851 0.189199
O11   O     O_R   0.068912 0.887285 0.578364 -0.197327
O12   O     O_R   0.060005 0.907929 0.416023 -0.202540
Br11  Br    Br    0.144697 0.132974 0.528742 -0.260484
Br12  Br    Br    0.855301 0.867030 0.471342 -0.260464
N5    N     N_R   0.222662 0.306355 0.242669 0.143815
O13   O     O_R   0.193791 0.382559 0.174158 -0.297140
O14   O     O_R   0.167341 0.277069 0.308475 -0.312262
N6    N     N_R   0.777253 0.693665 0.757536 0.143919
O15   O     O_R   0.806170 0.617783 0.826265 -0.297035
O16   O     O_R   0.832525 0.722596 0.691539 -0.312488

loop_
_geom_bond_atom_site_label_1
_geom_bond_atom_site_label_2
_geom_bond_distance
_ccdc_geom_bond_type
C44   C46   1.413318 A    
N3    O9    1.300489 A    
C41   C43   1.429303 A    
C3    C8    1.445607 S    
C17   C19   1.397768 A    
C25   C27   1.403881 A    
C1    C36   1.491779 S    
N5    O13   1.301672 A    
C2    C35   1.491776 S    
C29   H9    1.082489 S    
O5    C3    1.291142 A    
C52   H12   1.080505 S    
C41   Br5   1.928085 S    
O1    C1    1.304719 A    
C9    C11   1.427809 A    
C14   C16   1.413601 A    
C25   C38   1.494184 S    
C24   C26   1.406167 A    
C30   C32   1.394286 A    
C5    C15   1.390362 A    
Cu2   N2    2.025848 S    
C40   N2    1.381678 A    
O4    Cu1   2.006841 S    
N1    C41   1.382020 A    
C6    H2    1.081092 S    
N2    C42   1.382011 A    
C44   C50   1.420307 A    
C43   C45   1.413320 A    
C10   Br10  1.943792 S    
C4    C7    1.445603 S    
C13   C14   1.415133 A    
C22   C32   1.404981 A    
C30   H10   1.082496 S    
C11   C17   1.419242 A    
C24   H6    1.082274 S    
C12   C18   1.419247 A    
Cu1   Cu2   2.696321 S    
C51   H11   1.080506 S    
O2    C2    1.304733 A    
C26   C28   1.403884 A    
C26   C37   1.494204 S    
C28   H8    1.082609 S    
C49   Br7   1.926581 S    
C33   C35   1.421580 A    
C6    C16   1.390360 A    
C34   C36   1.421577 A    
C39   N1    1.381687 A    
C45   C46   1.429622 A    
O4    C2    1.308043 A    
C39   Br3   1.925717 S    
C49   C51   1.396976 A    
C20   Br12  1.936171 S    
C29   C31   1.394288 A    
C9    Br9   1.943790 S    
C43   C49   1.420317 A    
C45   C47   1.400809 A    
C42   C44   1.429296 A    
C33   Br1   1.944407 S    
O7    Cu2   1.963085 S    
O7    C3    1.297440 A    
N4    O12   1.301055 A    
C40   C48   1.416909 A    
O6    C4    1.291138 A    
C48   C51   1.405811 A    
C47   C52   1.405819 A    
C6    C8    1.378132 A    
C17   N3    1.422461 S    
C27   H7    1.082600 S    
C42   Br6   1.928083 S    
C50   Br8   1.926578 S    
O3    Cu2   2.006841 S    
O8    C4    1.297442 A    
C39   C47   1.416910 A    
C50   C52   1.396973 A    
C10   C12   1.427808 A    
N6    O16   1.300762 A    
C35   C37   1.421911 A    
C21   C31   1.404949 A    
C12   C14   1.430454 A    
O1    Cu1   2.013495 S    
C22   C24   1.409202 A    
C15   C20   1.401560 A    
C5    C7    1.378130 A    
C40   Br4   1.925709 S    
O6    Cu2   1.955125 S    
C21   C23   1.409156 A    
O3    C1    1.308057 A    
O8    Cu1   1.963085 S    
C22   N6    1.438046 S    
C33   C38   1.406552 A    
N5    O14   1.300519 A    
C5    H1    1.081095 S    
C21   N5    1.437994 S    
H3    C31   1.082399 S    
H4    C32   1.082406 S    
C11   C13   1.430455 A    
C23   H5    1.082267 S    
C19   Br11  1.936165 S    
N4    O11   1.300504 A    
C18   C20   1.397769 A    
C7    C9    1.400921 A    
C36   C38   1.421889 A    
C8    C10   1.400923 A    
C13   C15   1.413600 A    
C23   C25   1.406151 A    
O2    Cu2   2.013495 S    
O5    Cu1   1.955125 S    
Cu1   N1    2.025847 S    
C16   C19   1.401556 A    
C46   C48   1.400808 A    
N6    O15   1.301845 A    
N3    O10   1.301056 A    
C18   N4    1.422464 S    
C27   C29   1.394858 A    
C28   C30   1.394854 A    
C34   Br2   1.944426 S    
C34   C37   1.406567 A    
