data_mof_unit_1148.cif
_audit_creation_date              2012-12-10T17:17:24-0500
_audit_creation_method            fapswitch 2.2
_symmetry_space_group_name_H-M    P1
_symmetry_Int_Tables_number       1
_space_group_crystal_system       triclinic
_cell_length_a                    10.191038
_cell_length_b                    10.63568
_cell_length_c                    12.272782
_cell_angle_alpha                 91.494156
_cell_angle_beta                  109.206395
_cell_angle_gamma                 95.485657
_cell_volume                      1248.09221989

loop_
_atom_site_label
_atom_site_type_symbol
_atom_type_description
_atom_site_fract_x
_atom_site_fract_y
_atom_site_fract_z
_atom_type_partial_charge
C1    C     C_R   0.048468 0.733353 0.488345 0.943675
C2    C     C_R   0.420260 0.498096 0.994142 0.115891
C3    C     C_R   0.323839 0.454803 0.885407 0.002388
C4    C     C_R   0.555384 0.457949 0.026151 0.112352
C5    C     C_R   0.585268 0.361442 0.958591 0.094872
C6    C     C_R   0.480993 0.306504 0.859829 -0.211124
C7    C     C_R   0.351546 0.352263 0.823671 -0.174613
C8    C     C_R   0.662260 0.512486 0.123159 -0.358690
C9    C     C_R   0.820384 0.367849 0.095893 0.529155
C10   C     C_R   0.203999 0.517909 0.839278 -0.252847
C11   C     C_2   0.061935 0.865015 0.462325 -0.398602
C12   C     C_R   0.133214 0.509698 0.714484 0.896976
C13   C     C_2   0.945397 0.923337 0.428103 -0.218516
C14   C     C_2   0.909284 0.128499 0.490061 0.238666
C15   C     C_2   0.953952 0.059494 0.417478 0.427766
C16   C     C_2   0.432915 0.511683 0.510368 -0.138532
C17   C     C_2   0.567181 0.487942 0.489942 -0.136387
C18   C     C_R   0.946176 0.265769 0.502379 0.829198
C19   C     C_R   0.865689 0.486538 0.285734 0.906899
C20   C     C_R   0.718249 0.319112 0.992485 -0.325418
C21   C     C_R   0.787820 0.460678 0.163691 -0.183116
C22   C     C_R   0.164373 0.602641 0.910424 0.530896
C23   C     C_R   0.251069 0.630512 0.024543 -0.262351
C24   C     C_R   0.378140 0.580579 0.065824 -0.289075
H1    H     H_    0.843521 0.874482 0.419856 0.194393
H2    H     H_    0.163686 0.913957 0.470629 0.176388
H3    H     H_    0.564203 0.413463 0.426757 0.172292
H4    H     H_    0.435963 0.585991 0.573723 0.169023
H5    H     H_    0.684864 0.623111 0.604560 0.171665
H6    H     H_    0.315039 0.376970 0.395315 0.183137
H7    H     H_    0.500201 0.229632 0.809324 0.148884
H8    H     H_    0.740702 0.243985 0.942103 0.150561
H9    H     H_    0.648162 0.591774 0.173250 0.170937
H10   H     H_    0.440345 0.607209 0.154522 0.163719
H11   H     H_    0.223360 0.696623 0.079779 0.159694
H12   H     H_    0.273118 0.306324 0.746894 0.157030
N1    N     N_2   0.313640 0.446500 0.454900 -0.179104
N2    N     N_2   0.686360 0.553430 0.545150 -0.186735
O1    O     O_R   0.936910 0.692950 0.509080 -0.584840
O2    O     O_R   0.138320 0.658600 0.480130 -0.616102
O3    O     O_R   0.002900 0.525670 0.675280 -0.565301
O4    O     O_R   0.204310 0.491320 0.646330 -0.614486
O5    O     O_R   0.861680 0.341400 0.519870 -0.607793
O6    O     O_R   0.063090 0.307050 0.490920 -0.565740
O7    O     O_R   0.795690 0.508680 0.353670 -0.621293
O8    O     O_R   0.997100 0.474330 0.324720 -0.562075
Zn1   Zn    Zn3+2 0.865520 0.522940 0.519330 0.959016
Zn2   Zn    Zn3+2 0.134480 0.477060 0.480670 0.976654
O9    O     O_3   0.942150 0.311398 0.138246 -0.593586
C25   C     C_3   0.038804 0.364103 0.087731 -0.320571
H13   H     H_    0.137695 0.320710 0.123688 0.191859
H14   H     H_    0.063673 0.467695 0.109575 0.167135
H15   H     H_    0.000609 0.343344 0.992462 0.141389
O10   O     O_3   0.827230 0.068692 0.548802 -0.623616
C26   C     C_3   0.881007 0.106887 0.667673 -0.309853
H16   H     H_    0.851592 0.201748 0.683863 0.175237
H17   H     H_    0.996574 0.105815 0.703749 0.142326
H18   H     H_    0.833782 0.039005 0.715056 0.199497
O11   O     O_3   0.052365 0.671507 0.864170 -0.591477
C27   C     C_3   0.941457 0.625168 0.902057 -0.302974
H19   H     H_    0.967896 0.644673 0.996714 0.141295
H20   H     H_    0.910426 0.522334 0.877979 0.156238
H21   H     H_    0.849250 0.675041 0.858380 0.189694
O12   O     O_3   0.029694 0.117643 0.352543 -0.590064
C28   C     C_3   0.001659 0.049298 0.245585 -0.216422
H22   H     H_    0.887414 0.034055 0.196966 0.156043
H23   H     H_    0.047407 0.957918 0.256797 0.143376
H24   H     H_    0.052725 0.104750 0.192545 0.215087

loop_
_geom_bond_atom_site_label_1
_geom_bond_atom_site_label_2
_ccdc_geom_bond_type
H5    N2    S    
C16   H4    S    
C25   H14   S    
C23   C24   A    
C19   O7    A    
C6    C7    A    
C18   O6    A    
C7    H12   S    
C14   C18   S    
C9    C20   A    
C2    C4    A    
C11   H2    S    
C16   N1    D    
C4    C8    A    
C28   H24   S    
C9    C21   A    
O12   C28   S    
C26   H16   S    
C13   C15   S    
C6    H7    S    
O3    Zn1   S    
C19   O8    A    
O11   C27   S    
C3    C10   A    
O4    Zn2   S    
C18   O5    A    
C10   C22   A    
N1    Zn2   S    
C11   C13   D    
C13   H1    S    
N2    Zn1   S    
C12   O3    A    
C10   C12   S    
C27   H21   S    
O1    Zn1   S    
C14   O10   S    
C15   O12   S    
C8    C21   A    
C3    C7    A    
C23   H11   S    
C8    H9    S    
C26   H17   S    
C2    C24   A    
C5    C6    A    
O9    C25   S    
O8    Zn2   S    
C26   H18   S    
C25   H15   S    
C16   C17   S    
C1    O1    A    
C12   O4    A    
C17   H3    S    
C9    O9    S    
C17   N2    D    
C27   H20   S    
C28   H22   S    
C20   H8    S    
O7    Zn1   S    
C22   O11   S    
C5    C20   A    
O2    Zn2   S    
C14   C15   D    
C27   H19   S    
C2    C3    A    
C28   H23   S    
C1    O2    A    
C25   H13   S    
O10   C26   S    
O5    Zn1   S    
C22   C23   A    
C24   H10   S    
O6    Zn2   S    
H6    N1    S    
C4    C5    A    
C19   C21   S    
C1    C11   S    
