data_mof_unit_2271.cif
_audit_creation_date              2013-03-05T15:50:31-0500
_audit_creation_method            fapswitch 2.2
_symmetry_space_group_name_H-M    P1
_symmetry_Int_Tables_number       1
_space_group_crystal_system       triclinic
_cell_length_a                    19.376894
_cell_length_b                    7.13645
_cell_length_c                    17.581707
_cell_angle_alpha                 90.001015
_cell_angle_beta                  109.006548
_cell_angle_gamma                 89.998781
_cell_volume                      2298.68997166

loop_
_atom_site_label
_atom_site_type_symbol
_atom_site_description
_atom_site_fract_x
_atom_site_fract_y
_atom_site_fract_z
_atom_type_partial_charge
O1    O     O_R   0.562310 0.505770 0.439670 -0.590035
O2    O     O_R   0.437690 0.005770 0.560330 -0.590068
O3    O     O_R   0.411650 0.169150 0.405330 -0.581140
O4    O     O_R   0.588350 0.669150 0.594670 -0.581113
C1    C     C_R   0.385573 0.346613 0.381692 0.880594
C2    C     C_R   0.614423 0.846610 0.618311 0.880652
O5    O     O_R   0.560140 0.175610 0.430010 -0.540100
O6    O     O_R   0.439860 0.675610 0.569990 -0.540127
O7    O     O_R   0.587240 0.012100 0.585200 -0.600558
O8    O     O_R   0.412760 0.512100 0.414800 -0.600561
C3    C     C_R   0.579720 0.344205 0.413464 0.977305
C4    C     C_R   0.420283 0.844209 0.586540 0.977306
O9    O     O_3   0.508720 0.341420 0.550890 -0.258478
O10   O     O_3   0.491280 0.841420 0.449110 -0.258468
V1    V     V_3+5 0.498380 0.063930 0.490560 1.257062
V2    V     V_3+5 0.501620 0.563930 0.509440 1.257066
C5    C     C_R   0.179484 0.769210 0.876049 -0.181425
C6    C     C_R   0.820515 0.269229 0.123953 -0.181460
C7    C     C_R   0.130338 0.919334 0.864790 -0.314796
C8    C     C_R   0.869649 0.419370 0.135199 -0.314765
C9    C     C_R   0.130022 0.058814 0.807111 0.335047
C10   C     C_R   0.869939 0.558902 0.192852 0.335155
C11   C     C_R   0.178255 0.044539 0.761537 -0.067999
C12   C     C_R   0.821698 0.544646 0.238418 -0.068040
C13   C     C_R   0.227619 0.892849 0.774207 0.038483
C14   C     C_R   0.772360 0.392913 0.225775 0.038569
C15   C     C_R   0.227787 0.755608 0.831714 0.166440
C16   C     C_R   0.772209 0.255639 0.168285 0.166471
C17   C     C_R   0.177856 0.179630 0.703363 -0.206800
C18   C     C_R   0.822059 0.679816 0.296550 -0.206852
C19   C     C_R   0.224111 0.165975 0.657026 0.310508
C20   C     C_R   0.775822 0.666161 0.342910 0.310387
C21   C     C_R   0.274255 0.015220 0.669984 -0.012547
C22   C     C_R   0.725725 0.515294 0.330004 -0.012455
C23   C     C_R   0.276598 0.878160 0.729311 0.007796
C24   C     C_R   0.723388 0.378220 0.270678 0.007775
C25   C     C_R   0.327219 0.726233 0.743469 -0.015713
C26   C     C_R   0.672778 0.226271 0.256528 -0.015742
C27   C     C_R   0.325385 0.588346 0.801799 -0.007324
C28   C     C_R   0.674624 0.088364 0.198209 -0.007326
C29   C     C_R   0.276067 0.605025 0.844423 -0.247295
C30   C     C_R   0.723944 0.105034 0.155588 -0.247371
C31   C     C_R   0.320399 0.995993 0.623379 -0.119453
C32   C     C_R   0.679617 0.495960 0.376647 -0.119274
C33   C     C_R   0.372169 0.852536 0.637541 -0.300549
C34   C     C_R   0.627839 0.352527 0.362469 -0.300625
C35   C     C_R   0.377099 0.719297 0.698842 0.364263
C36   C     C_R   0.622893 0.219335 0.301147 0.364305
H1    H     H_    0.180947 0.662994 0.920672 0.167445
H2    H     H_    0.819065 0.162985 0.079344 0.167476
H3    H     H_    0.141667 0.299215 0.693396 0.219014
H4    H     H_    0.858199 0.799484 0.306452 0.219112
H5    H     H_    0.316039 0.091664 0.574382 0.189678
H6    H     H_    0.684006 0.591514 0.425688 0.189693
H7    H     H_    0.275204 0.498337 0.888154 0.145745
H8    H     H_    0.724819 0.998320 0.111870 0.145721
C37   C     C_3   0.763842 0.747630 0.828036 -0.119848
C38   C     C_3   0.236228 0.247911 0.171884 -0.119887
H9    H     H_    0.792432 0.612045 0.829089 0.123718
H10   H     H_    0.207684 0.112212 0.170714 0.123568
C39   C     C_3   0.688443 0.735109 0.759841 -0.402292
C40   C     C_3   0.311611 0.235356 0.240107 -0.402201
H11   H     H_    0.642605 0.767995 0.782719 0.202934
H12   H     H_    0.357460 0.268434 0.217276 0.202923
H13   H     H_    0.679656 0.588370 0.737371 0.173299
H14   H     H_    0.320420 0.088563 0.262510 0.173287
H15   H     H_    0.748059 0.672623 0.643958 0.168795
H16   H     H_    0.252012 0.172275 0.355971 0.168728
C41   C     C_3   0.826819 0.865361 0.729427 0.243827
C42   C     C_3   0.173174 0.364916 0.270538 0.243895
C43   C     C_3   0.765163 0.092740 0.801629 -0.428280
C44   C     C_3   0.234745 0.592902 0.198499 -0.428319
C45   C     C_3   0.812290 0.912080 0.811740 -0.117091
C46   C     C_3   0.187703 0.412071 0.188264 -0.117130
H17   H     H_    0.797197 0.221275 0.800726 0.195191
H18   H     H_    0.202650 0.721269 0.199502 0.195238
H19   H     H_    0.749626 0.111935 0.856820 0.147983
H20   H     H_    0.250260 0.612471 0.143314 0.147971
C47   C     C_3   0.685686 0.870922 0.689906 -0.063520
C48   C     C_3   0.314306 0.370934 0.310101 -0.063548
C49   C     C_3   0.751952 0.822456 0.662119 -0.470015
C50   C     C_3   0.248050 0.322137 0.337850 -0.470045
C51   C     C_3   0.696215 0.079814 0.725102 0.071598
C52   C     C_3   0.303705 0.579917 0.275006 0.071708
H21   H     H_    0.747193 0.901109 0.606020 0.212292
H22   H     H_    0.252758 0.400666 0.393966 0.212300
O11   O     O_R   0.087220 0.271820 0.085230 -0.622244
O12   O     O_R   0.912780 0.771820 0.914770 -0.622161
O13   O     O_R   0.939860 0.595540 0.069990 -0.552070
O14   O     O_R   0.060140 0.095540 0.930010 -0.552103
C53   C     C_R   0.919427 0.427175 0.085808 0.967504
C54   C     C_R   0.080569 0.927168 0.914190 0.967337
O15   O     O_R   0.088340 0.601930 0.094680 -0.561829
O16   O     O_R   0.911660 0.101930 0.905320 -0.561713
O17   O     O_R   0.062310 0.765410 0.939660 -0.585937
O18   O     O_R   0.937690 0.265410 0.060340 -0.585928
C55   C     C_R   0.115950 0.431801 0.117591 0.920622
C56   C     C_R   0.884047 0.931805 0.882411 0.920439
O19   O     O_3   0.991270 0.429630 0.949130 -0.256489
O20   O     O_3   0.008730 0.929630 0.050870 -0.256553
V3    V     V_3+5 0.001620 0.707150 0.009440 1.252471
V4    V     V_3+5 0.998380 0.207150 0.990560 1.252503
C57   C     C_1   0.753356 0.762910 0.907479 0.079792
N1    N     N_1   0.745308 0.774731 0.969707 -0.086125
C58   C     C_1   0.246746 0.263642 0.092472 0.079812
N2    N     N_1   0.254818 0.275813 0.030267 -0.086171
C59   C     C_1   0.874348 0.698205 0.739696 0.097019
N3    N     N_1   0.911835 0.568435 0.747742 0.060093
C60   C     C_1   0.125746 0.197544 0.260170 0.096971
N4    N     N_1   0.088336 0.067605 0.252045 0.060031
C61   C     C_1   0.631801 0.140876 0.746417 0.063854
N5    N     N_1   0.581441 0.188478 0.763085 -0.005489
C62   C     C_1   0.368089 0.641262 0.253698 0.063824
N6    N     N_1   0.418425 0.689085 0.237034 -0.005412
C63   C     C_1   0.705251 0.215523 0.665143 0.140771
N7    N     N_1   0.712262 0.319967 0.617856 -0.066945
C64   C     C_1   0.294642 0.715384 0.335040 0.140575
N8    N     N_1   0.287611 0.819636 0.382385 -0.066905
N9    N     N_R   0.864051 0.018417 0.701609 0.240695
O21   O     O_R   0.876368 0.001791 0.633366 -0.286380
O22   O     O_R   0.892929 0.159931 0.747363 -0.380431
N10   N     N_R   0.135831 0.517649 0.298404 0.240653
O23   O     O_R   0.123484 0.500663 0.366617 -0.286194
O24   O     O_R   0.106862 0.659157 0.252695 -0.380413
N11   N     N_R   0.079288 0.211353 0.792493 0.238051
O25   O     O_R   0.096721 0.361955 0.836234 -0.403548
O26   O     O_R   0.025458 0.217692 0.725052 -0.292983
N12   N     N_R   0.920659 0.711466 0.207461 0.238095
O27   O     O_R   0.903235 0.861989 0.163668 -0.403613
O28   O     O_R   0.974436 0.717955 0.274944 -0.292867
N13   N     N_R   0.218410 0.306595 0.596684 0.231674
O29   O     O_R   0.275739 0.400156 0.595889 -0.407680
O30   O     O_R   0.154352 0.364237 0.551899 -0.299884
N14   N     N_R   0.781462 0.806977 0.403175 0.231712
O31   O     O_R   0.724035 0.899874 0.404125 -0.407735
O32   O     O_R   0.845483 0.865565 0.447647 -0.300151
N15   N     N_R   0.436070 0.587313 0.718945 0.221741
O33   O     O_R   0.428186 0.425759 0.682777 -0.354971
O34   O     O_R   0.500272 0.638108 0.765877 -0.452986
N16   N     N_R   0.563891 0.087441 0.281001 0.221718
O35   O     O_R   0.571714 0.925885 0.317159 -0.354831
O36   O     O_R   0.499724 0.138295 0.234001 -0.452977
C65   C     C_1   0.370764 0.422719 0.819204 0.191848
N17   N     N_1   0.406627 0.289200 0.833743 -0.043818
C66   C     C_1   0.629262 0.922708 0.180824 0.191849
N18   N     N_1   0.593415 0.789166 0.166301 -0.043807

loop_
_geom_bond_atom_site_label_1
_geom_bond_atom_site_label_2
_geom_bond_distance
_ccdc_geom_bond_type
C38   C40   1.561784 S    
C43   H17   1.110578 S    
C52   C62   1.480836 S    
O18   V4    2.000166 S    
C58   N2    1.157391 T    
C61   N5    1.157480 T    
O1    C3    1.325410 A    
C44   H18   1.110585 S    
O2    C4    1.325417 A    
N12   O27   1.300547 A    
C2    O7    1.345881 A    
O12   V3    2.020020 S    
C41   C59   1.481707 S    
C27   C29   1.398374 A    
O5    C3    1.322160 A    
N15   O34   1.300494 A    
C38   C46   1.586126 S    
C28   C66   1.445211 S    
C11   C17   1.403749 A    
C40   C48   1.552857 S    
C7    C9    1.419584 A    
N16   O36   1.300484 A    
C37   H9    1.112104 S    
O16   C56   1.334978 A    
C38   H10   1.112100 S    
C65   N17   1.157771 T    
C6    C8    1.403921 A    
C33   C35   1.416969 A    
C37   C45   1.586176 S    
C39   H11   1.112854 S    
C42   N10   1.477337 S    
C29   H7    1.086064 S    
C40   H12   1.112852 S    
C7    C54   1.494338 S    
C30   H8    1.086068 S    
C53   O18   1.327257 A    
C10   N12   1.432792 S    
C31   H5    1.080747 S    
O14   V4    2.007390 S    
C52   C64   1.483315 S    
C47   C51   1.601439 S    
C42   C46   1.596925 S    
O17   V3    2.000189 S    
C44   H20   1.114127 S    
C59   N3    1.156871 T    
C19   C21   1.417465 A    
C41   C45   1.596935 S    
C25   C35   1.430453 A    
C26   C36   1.430436 A    
C48   C52   1.601455 S    
C28   C30   1.398363 A    
O6    V2    2.007583 S    
C20   N14   1.438408 S    
C32   C34   1.397739 A    
C66   N18   1.157764 T    
C46   C55   1.539994 S    
C43   C51   1.559762 S    
N9    O22   1.298823 A    
C45   C56   1.540017 S    
C37   C57   1.479494 S    
C8    C53   1.494362 S    
C34   C36   1.416934 A    
C40   H14   1.112618 S    
C5    C15   1.402945 A    
C51   C63   1.483304 S    
C6    C16   1.402944 A    
N16   O35   1.301396 A    
C48   C50   1.554199 S    
O15   V3    1.998287 S    
C43   C45   1.556254 S    
C36   N16   1.433447 S    
C5    C7    1.403929 A    
N14   O32   1.301267 A    
O5    V1    2.007624 S    
N13   O30   1.301260 A    
C50   H22   1.112279 S    
C41   N9    1.477371 S    
C54   O17   1.327231 A    
C21   C31   1.402461 A    
O4    V2    1.998327 S    
C42   C60   1.481694 S    
C32   H6    1.080700 S    
O11   V4    2.020024 S    
C15   C29   1.394182 A    
O14   C54   1.322704 A    
O12   C56   1.315622 A    
O6    C4    1.322166 A    
C35   N15   1.433426 S    
C22   C32   1.402494 A    
O1    V2    1.999881 S    
C1    C48   1.545717 S    
O2    V1    1.999894 S    
C31   C33   1.397744 A    
C44   C52   1.559727 S    
C13   C23   1.422213 A    
C44   C46   1.556224 S    
C8    C10   1.419610 A    
H15   C49   1.111439 S    
C9    C11   1.419026 A    
N11   O25   1.300547 A    
C10   C12   1.419042 A    
O4    C2    1.376627 A    
O13   C53   1.322691 A    
C5    H1    1.084628 S    
N13   O29   1.300054 A    
O15   C55   1.334984 A    
C43   H19   1.114122 S    
N10   O24   1.298816 A    
O3    V1    1.998318 S    
C6    H2    1.084628 S    
C47   C49   1.554229 S    
C62   N6    1.157478 T    
C17   H3    1.081987 S    
C14   C24   1.422214 A    
C18   H4    1.081967 S    
C18   C20   1.397222 A    
O13   V3    2.007421 S    
C12   C14   1.413340 A    
C4    C33   1.490398 S    
O3    C1    1.376646 A    
N12   O28   1.300156 A    
N9    O21   1.302744 A    
C37   C39   1.561765 S    
N14   O31   1.300032 A    
C13   C15   1.406917 A    
N15   O33   1.301396 A    
C14   C16   1.406929 A    
C27   C65   1.445212 S    
C38   C58   1.479477 S    
H16   C50   1.111425 S    
C24   C26   1.428489 A    
O7    V1    2.001012 S    
C19   N13   1.438241 S    
C23   C25   1.428477 A    
C17   C19   1.397170 A    
O8    V2    2.001014 S    
C64   N8    1.157072 T    
C26   C28   1.430052 A    
C2    C47   1.545697 S    
C39   C47   1.552851 S    
C16   C30   1.394172 A    
O20   V3    1.733496 S    
C21   C23   1.419848 A    
C22   C24   1.419893 A    
C51   C61   1.480825 S    
C11   C13   1.413377 A    
C42   C50   1.574934 S    
C12   C18   1.403740 A    
C41   C49   1.574943 S    
C39   H13   1.112586 S    
C1    O8    1.345865 A    
O19   V4    1.733515 S    
O16   V4    1.998294 S    
C25   C27   1.430064 A    
O9    V2    1.733860 S    
C57   N1    1.157393 T    
N11   O26   1.300149 A    
O10   V1    1.733842 S    
C3    C34   1.490387 S    
N10   O23   1.302736 A    
C60   N4    1.156862 T    
C9    N11   1.432786 S    
C49   H21   1.112279 S    
C63   N7    1.157071 T    
C20   C22   1.417583 A    
O11   C55   1.315598 A    
