data_mof_unit_2826.cif
_audit_creation_date              2012-12-10T18:46:17-0500
_audit_creation_method            fapswitch 2.2
_symmetry_space_group_name_H-M    P1
_symmetry_Int_Tables_number       1
_space_group_crystal_system       triclinic
_cell_length_a                    9.912549
_cell_length_b                    10.612583
_cell_length_c                    13.089945
_cell_angle_alpha                 90.668616
_cell_angle_beta                  69.366972
_cell_angle_gamma                 89.981546
_cell_volume                      1288.60292189

loop_
_atom_site_label
_atom_site_type_symbol
_atom_type_description
_atom_site_fract_x
_atom_site_fract_y
_atom_site_fract_z
_atom_type_partial_charge
C1    C     C_R   0.498861 0.739666 0.503095 0.838179
C2    C     C_R   0.435661 0.473686 0.983785 0.036101
C3    C     C_R   0.462109 0.438045 0.875003 0.113091
C4    C     C_R   0.547779 0.458439 0.026015 0.068150
C5    C     C_R   0.675293 0.389085 0.966692 0.162466
C6    C     C_R   0.692044 0.340535 0.861856 -0.029665
C7    C     C_R   0.583257 0.362017 0.819527 -0.254252
C8    C     C_R   0.536168 0.512714 0.126112 -0.240040
C9    C     C_R   0.753692 0.408628 0.123011 -0.230652
C10   C     C_R   0.368161 0.482151 0.823259 -0.101337
C11   C     C_R   0.604386 0.933227 0.422004 -0.177659
C12   C     C_R   0.419726 0.493174 0.704391 0.850881
C13   C     C_R   0.605826 0.062385 0.419806 -0.188229
C14   C     C_R   0.499455 0.128436 0.501293 -0.053261
C15   C     C_R   0.394695 0.069134 0.587313 -0.153259
C16   C     C_R   0.395806 0.939190 0.593172 -0.024825
C17   C     C_R   0.498688 0.872538 0.507007 -0.102614
C18   C     C_R   0.964453 0.434155 0.422530 -0.145667
C19   C     C_R   0.108114 0.435661 0.421608 -0.079061
C20   C     C_R   0.033711 0.562851 0.580125 -0.077873
C21   C     C_R   0.891475 0.568822 0.576182 0.547735
C22   C     C_R   0.500387 0.260482 0.499115 0.850084
C23   C     C_R   0.580689 0.499088 0.295473 0.875231
C24   C     C_R   0.777606 0.365557 0.017071 -0.155554
C25   C     C_R   0.631040 0.480423 0.177942 -0.043846
C26   C     C_R   0.233661 0.533179 0.885676 -0.278550
C27   C     C_R   0.195226 0.548795 0.998208 0.051348
C28   C     C_R   0.297125 0.521722 0.046716 -0.184733
H1    H     H_    0.827020 0.380779 0.163604 0.168381
H2    H     H_    0.687222 0.110736 0.354091 0.140943
H3    H     H_    0.317236 0.124772 0.651508 0.188844
H4    H     H_    0.939564 0.381054 0.360406 0.158022
H5    H     H_    0.191059 0.383868 0.358571 0.153964
H6    H     H_    0.871705 0.307400 0.979116 0.197523
H7    H     H_    0.449349 0.576828 0.168436 0.152881
H8    H     H_    0.160387 0.564265 0.846464 0.196392
H9    H     H_    0.264474 0.535202 0.133926 0.170397
H10   H     H_    0.595010 0.319389 0.741245 0.150806
H11   H     H_    0.684325 0.880426 0.357212 0.158540
N1    N     N_R   0.142790 0.500030 0.500030 -0.132678
N2    N     N_R   0.857180 0.499940 0.500010 -0.132296
O1    O     O_R   0.385370 0.683250 0.500010 -0.641183
O2    O     O_R   0.614700 0.683220 0.500010 -0.596759
O3    O     O_R   0.328400 0.499990 0.653620 -0.629195
O4    O     O_R   0.557730 0.499960 0.653620 -0.558433
O5    O     O_R   0.385300 0.316780 0.499990 -0.595939
O6    O     O_R   0.614630 0.316750 0.499990 -0.632227
O7    O     O_R   0.442270 0.500040 0.346380 -0.619593
O8    O     O_R   0.671600 0.500010 0.346380 -0.593547
Zn1   Zn    Zn3+2 0.346870 0.500020 0.500000 0.953205
Zn2   Zn    Zn3+2 0.653130 0.499980 0.500000 0.984475
C29   C     C_2   0.298410 0.876016 0.692189 0.365270
H12   H     H_    0.321968 0.781082 0.710857 0.036338
O9    O     O_2   0.192534 0.930169 0.755295 -0.550407
C30   C     C_2   0.062280 0.623476 0.672013 0.455588
H13   H     H_    0.164934 0.665438 0.659467 0.093076
O10   O     O_2   0.969661 0.628424 0.763004 -0.550153
O11   O     O_3   0.784981 0.640084 0.651911 -0.552811
C31   C     C_3   0.807720 0.769162 0.625405 0.134943
H14   H     H_    0.812818 0.786811 0.540510 0.143090
H15   H     H_    0.909346 0.804129 0.633135 0.132699
C32   C     C_3   0.684203 0.845851 0.704037 -0.741901
H16   H     H_    0.686199 0.839284 0.788109 0.263357
H17   H     H_    0.694454 0.946231 0.679447 0.192661
H18   H     H_    0.579710 0.809104 0.703648 0.235800
C33   C     C_2   0.821825 0.271278 0.790300 0.408683
H19   H     H_    0.810498 0.199170 0.734372 0.058330
O12   O     O_2   0.942693 0.299345 0.786964 -0.554731
C34   C     C_2   0.050798 0.599360 0.062963 0.391071
H20   H     H_    0.975190 0.622557 0.022808 0.114306
O13   O     O_2   0.014089 0.615334 0.161593 -0.589921

loop_
_geom_bond_atom_site_label_1
_geom_bond_atom_site_label_2
_ccdc_geom_bond_type
C2    C4    A    
C30   H13   S    
C9    C24   A    
C15   H3    S    
C6    C7    A    
C9    H1    S    
C30   O10   D    
C2    C28   A    
O5    Zn1   S    
C33   O12   D    
C27   C34   S    
C32   H17   S    
C4    C8    A    
C10   C26   A    
O7    Zn1   S    
C2    C3    A    
C9    C25   A    
C31   H14   S    
C12   O3    A    
C3    C10   A    
C13   C14   A    
C29   H12   S    
C11   H11   S    
C8    C25   A    
C11   C13   A    
O2    Zn2   S    
C26   C27   A    
C32   H16   S    
C5    C24   A    
C10   C12   S    
C28   H9    S    
O1    Zn1   S    
C20   C30   S    
N1    Zn1   S    
C5    C6    A    
C26   H8    S    
C22   O5    A    
C7    H10   S    
C29   O9    D    
C33   H19   S    
C3    C7    A    
C34   H20   S    
C23   C25   S    
C19   H5    S    
C14   C22   S    
C20   N1    A    
C22   O6    A    
C31   H15   S    
C23   O8    A    
C19   N1    A    
O4    Zn2   S    
C15   C16   A    
N2    Zn2   S    
C13   H2    S    
C21   O11   S    
C1    O1    A    
C18   H4    S    
C20   C21   A    
C18   C19   A    
C21   N2    A    
C18   N2    A    
O3    Zn1   S    
C27   C28   A    
C34   O13   D    
C14   C15   A    
C16   C17   A    
C31   C32   S    
O6    Zn2   S    
C23   O7    A    
C32   H18   S    
O11   C31   S    
C4    C5    A    
C1    C17   S    
C1    O2    A    
C11   C17   A    
C16   C29   S    
C6    C33   S    
C12   O4    A    
O8    Zn2   S    
C8    H7    S    
C24   H6    S    
