data_mof_unit_4411.cif
_audit_creation_date              2012-12-10T19:00:47-0500
_audit_creation_method            fapswitch 2.2
_symmetry_space_group_name_H-M    P1
_symmetry_Int_Tables_number       1
_space_group_crystal_system       triclinic
_cell_length_a                    15.062616
_cell_length_b                    10.811158
_cell_length_c                    9.577101
_cell_angle_alpha                 89.899469
_cell_angle_beta                  90.000978
_cell_angle_gamma                 90.969827
_cell_volume                      1559.35069995

loop_
_atom_site_label
_atom_site_type_symbol
_atom_type_description
_atom_site_fract_x
_atom_site_fract_y
_atom_site_fract_z
_atom_type_partial_charge
C1    C     C_R   0.497391 0.262418 0.499997 0.907728
C2    C     C_R   0.907824 0.574220 0.601396 -0.186712
C3    C     C_R   0.951581 0.381069 0.286773 0.618388
C4    C     C_R   0.043928 0.380892 0.286511 -0.182731
C5    C     C_R   0.092060 0.443399 0.390842 -0.057815
C6    C     C_R   0.046869 0.508775 0.496373 -0.026395
C7    C     C_R   0.094904 0.572472 0.602060 -0.061481
C8    C     C_R   0.048571 0.640872 0.704243 0.312976
C9    C     C_R   0.955918 0.638924 0.704648 0.678310
C10   C     C_R   0.184672 0.441065 0.391662 0.606233
C11   C     C_R   0.232136 0.500292 0.498855 -0.168163
C12   C     C_R   0.328831 0.498901 0.499837 0.830743
C13   C     C_R   0.187595 0.563481 0.604276 -0.269590
C14   C     C_R   0.504028 0.063318 0.622418 0.061658
C15   C     C_R   0.486510 0.129188 0.500843 -0.375650
C16   C     C_R   0.451374 0.064797 0.384897 0.626791
C17   C     C_R   0.446066 0.935277 0.385911 0.308191
C18   C     C_R   0.481370 0.869872 0.501680 -0.289967
C19   C     C_R   0.502354 0.936180 0.622460 -0.035366
C20   C     C_3   0.579148 0.926810 0.720783 -0.503137
C21   C     C_3   0.581838 0.068060 0.719983 0.780805
C22   C     C_R   0.541773 0.593022 0.073496 0.241643
C23   C     C_R   0.495115 0.737277 0.499944 0.841564
C24   C     C_R   0.453585 0.413771 0.076180 0.027317
C25   C     C_R   0.452746 0.412880 0.928612 0.493512
C26   C     C_R   0.542207 0.592690 0.926169 0.138109
C27   C     C_3   0.639144 0.623009 0.922924 -0.334304
C28   C     C_3   0.637985 0.625957 0.080898 -0.459420
C29   C     C_R   0.671178 0.502098 0.499807 0.867322
C30   C     C_R   0.814810 0.573859 0.599826 0.632958
C31   C     C_R   0.767946 0.505913 0.498633 -0.206495
C32   C     C_R   0.813316 0.443084 0.393934 -0.244550
C33   C     C_R   0.905890 0.444360 0.391542 0.040680
C34   C     C_R   0.953547 0.509276 0.496472 -0.133623
Cu1   Cu    Cu3+1 0.500000 0.499980 0.640670 1.006979
Cu2   Cu    Cu3+1 0.500000 0.500020 0.359330 1.010187
H1    H     H_    0.558394 0.886452 0.822741 0.209086
H2    H     H_    0.637929 0.883337 0.672076 0.205278
H3    H     H_    0.416793 0.343312 0.133162 0.243487
H4    H     H_    0.678839 0.545492 0.881564 0.264094
H5    H     H_    0.653709 0.714873 0.875645 0.237413
H6    H     H_    0.678580 0.552063 0.128474 0.229902
H7    H     H_    0.776122 0.392033 0.315329 0.218534
H8    H     H_    0.649610 0.720038 0.124577 0.213595
H9    H     H_    0.077609 0.330880 0.204732 0.233111
H10   H     H_    0.226493 0.605629 0.686934 0.188388
N1    N     N_R   0.500570 0.500930 0.147930 -0.247773
N2    N     N_R   0.500570 0.500890 0.852020 -0.249926
O1    O     O_R   0.500000 0.319640 0.618810 -0.554051
O2    O     O_R   0.500010 0.319680 0.381230 -0.542207
O3    O     O_R   0.370250 0.499950 0.618800 -0.632815
O4    O     O_R   0.370260 0.499990 0.381220 -0.533621
O5    O     O_R   0.499990 0.680320 0.618770 -0.564791
O6    O     O_R   0.500000 0.680360 0.381190 -0.579651
O7    O     O_R   0.629740 0.500010 0.618780 -0.536192
O8    O     O_R   0.629750 0.500050 0.381200 -0.605114
F1    F     F_    0.769567 0.644294 0.691692 -0.650705
O9    O     O_3   0.408214 0.877359 0.271825 -0.641629
H11   H     H_    0.378392 0.800258 0.304461 0.333024
O10   O     O_3   0.559723 0.120382 0.848893 -0.635479
H12   H     H_    0.611289 0.106739 0.911191 0.346448
O11   O     O_3   0.659462 0.121808 0.662083 -0.710970
H13   H     H_    0.670327 0.082603 0.570070 0.304692
O12   O     O_3   0.405208 0.317729 0.867788 -0.663078
H14   H     H_    0.384105 0.345493 0.776549 0.367663
F2    F     F_    0.906994 0.318849 0.184744 -0.639966
F3    F     F_    0.228514 0.377648 0.291083 -0.641977
O13   O     O_3   0.090777 0.710613 0.805748 -0.643713
H15   H     H_    0.144641 0.749424 0.764432 0.329158
F4    F     F_    0.913459 0.702650 0.806218 -0.554063
F5    F     F_    0.422202 0.126507 0.270572 -0.592846

loop_
_geom_bond_atom_site_label_1
_geom_bond_atom_site_label_2
_ccdc_geom_bond_type
Cu1   O1    S    
O13   H15   S    
C11   C12   S    
C23   O5    A    
C6    C7    A    
Cu2   O8    S    
C29   O8    A    
Cu1   O5    S    
C20   H2    S    
C1    O2    A    
C27   H5    S    
C19   C20   S    
Cu2   O4    S    
C26   N2    A    
C17   O9    S    
C2    C30   A    
C32   C33   A    
C2    C34   A    
C17   C18   A    
C21   O11   S    
C5    C10   A    
C29   C31   S    
C22   C28   S    
C10   F3    S    
O12   H14   S    
C4    C5    A    
C20   H1    S    
C11   C13   A    
C25   N2    A    
C26   C27   S    
O11   H13   S    
C16   F5    S    
C23   O6    A    
C1    C15   S    
C5    C6    A    
C14   C21   S    
C28   H6    S    
C25   O12   S    
C12   O4    A    
C32   H7    S    
C33   C34   A    
C8    O13   S    
C4    H9    S    
C28   H8    S    
Cu1   O3    S    
C30   C31   A    
C2    C9    A    
C22   N1    A    
Cu2   N1    S    
C3    F2    S    
Cu2   O6    S    
C10   C11   A    
C3    C33   A    
Cu1   O7    S    
C18   C23   S    
C30   F1    S    
C6    C34   A    
C7    C13   A    
C24   H3    S    
Cu2   O2    S    
C24   C25   A    
C12   O3    A    
C21   O10   S    
C20   C21   S    
C18   C19   A    
C22   C26   A    
C27   C28   S    
C7    C8    A    
C13   H10   S    
C8    C9    A    
C29   O7    A    
C27   H4    S    
O9    H11   S    
C14   C15   A    
C24   N1    A    
C1    O1    A    
C14   C19   A    
C9    F4    S    
C31   C32   A    
C3    C4    A    
C15   C16   A    
C16   C17   A    
Cu1   N2    S    
O10   H12   S    
Cu1   Cu2   S    
