data_mof_unit_414.cif
_audit_creation_date              2012-12-10T17:04:28-0500
_audit_creation_method            fapswitch 2.2
_symmetry_space_group_name_H-M    P1
_symmetry_Int_Tables_number       1
_space_group_crystal_system       triclinic
_cell_length_a                    14.899679
_cell_length_b                    10.731032
_cell_length_c                    10.07358
_cell_angle_alpha                 90.254083
_cell_angle_beta                  90.279426
_cell_angle_gamma                 90.082543
_cell_volume                      1610.617236

loop_
_atom_site_label
_atom_site_type_symbol
_atom_type_description
_atom_site_fract_x
_atom_site_fract_y
_atom_site_fract_z
_atom_type_partial_charge
C1    C     C_R   0.501828 0.262859 0.499628 0.901946
C2    C     C_R   0.185522 0.400285 0.449940 -0.248999
C3    C     C_R   0.232087 0.502617 0.498909 -0.037779
C4    C     C_R   0.327276 0.499826 0.499697 0.852154
C5    C     C_R   0.188789 0.608192 0.546592 -0.259902
C6    C     C_2   0.499026 0.932621 0.387939 -0.146698
C7    C     C_2   0.488654 0.868749 0.500289 -0.284048
C8    C     C_2   0.493714 0.066592 0.388072 -0.141186
C9    C     C_2   0.509817 0.131238 0.499071 -0.310681
C10   C     C_2   0.542327 0.581499 0.927069 0.437173
C11   C     C_2   0.524605 0.593304 0.073155 -0.074251
C12   C     C_R   0.906837 0.615833 0.542757 -0.004692
C13   C     C_R   0.497727 0.737159 0.500131 0.968881
C14   C     C_R   0.672755 0.501469 0.500176 0.955554
C15   C     C_R   0.812874 0.614780 0.541622 0.349936
C16   C     C_R   0.768169 0.506437 0.500139 -0.133609
C17   C     C_R   0.813743 0.401943 0.454984 -0.294965
C18   C     C_R   0.906393 0.402247 0.453174 0.139728
C19   C     C_R   0.953486 0.509024 0.498177 -0.000844
C20   C     C_3   0.095717 0.839039 0.637333 -0.403572
C21   C     C_3   0.130544 0.916277 0.521358 -0.850438
C22   C     C_R   0.952353 0.297082 0.407492 -0.171375
C23   C     C_R   0.045345 0.296820 0.405889 -0.214152
C24   C     C_R   0.092795 0.401407 0.450835 0.137772
C25   C     C_R   0.047138 0.508509 0.497953 0.044859
C26   C     C_R   0.095306 0.614200 0.544831 0.096248
C27   C     C_R   0.048683 0.721630 0.588828 0.138991
C28   C     C_R   0.954921 0.720729 0.586851 -0.185082
Cl1   Cl    Cl    0.750077 0.749247 0.584564 -0.569530
Cl2   Cl    Cl    0.618151 0.687198 0.857139 -0.500478
Cl3   Cl    Cl    0.523216 0.350607 0.093099 -0.540297
H1    H     H_    0.470939 0.911833 0.594087 0.155730
H2    H     H_    0.229434 0.684879 0.582661 0.146908
H3    H     H_    0.919928 0.803211 0.620440 0.206855
H4    H     H_    0.510978 0.886620 0.293355 0.182129
H5    H     H_    0.179435 0.862623 0.461259 0.258370
H6    H     H_    0.073787 0.945056 0.456502 0.265301
H7    H     H_    0.164370 0.001392 0.559972 0.249810
H8    H     H_    0.048750 0.898498 0.695049 0.215659
H9    H     H_    0.151021 0.816031 0.707203 0.203925
H10   H     H_    0.477513 0.112037 0.294801 0.211631
H11   H     H_    0.531223 0.088736 0.591345 0.178111
H12   H     H_    0.447281 0.455897 0.893940 0.183219
H13   H     H_    0.534795 0.683861 0.119058 0.136727
H14   H     H_    0.776614 0.320277 0.421871 0.167415
H15   H     H_    0.916345 0.215181 0.373005 0.160284
H16   H     H_    0.080192 0.214702 0.370249 0.150705
H17   H     H_    0.221746 0.319374 0.413700 0.139495
N1    N     N_2   0.500970 0.501330 0.852150 -0.198642
N2    N     N_2   0.500990 0.501360 0.147810 0.030944
O1    O     O_R   0.499990 0.319060 0.613040 -0.612291
O2    O     O_R   0.500010 0.319100 0.386900 -0.563473
O3    O     O_R   0.367830 0.499950 0.613080 -0.632248
O4    O     O_R   0.367860 0.499990 0.386940 -0.609513
O5    O     O_R   0.499990 0.680900 0.613100 -0.570963
O6    O     O_R   0.500010 0.680940 0.386960 -0.644982
O7    O     O_R   0.632140 0.500010 0.613060 -0.549605
O8    O     O_R   0.632170 0.500050 0.386920 -0.591360
Zn1   Zn    Zn3+2 0.499980 0.499970 0.650990 1.035669
Zn2   Zn    Zn3+2 0.500020 0.500030 0.349010 1.043527

loop_
_geom_bond_atom_site_label_1
_geom_bond_atom_site_label_2
_ccdc_geom_bond_type
C23   C24   A    
C6    C7    D    
C20   C27   S    
O5    Zn1   S    
C4    O3    A    
C20   H8    S    
C6    H4    S    
C10   Cl2   S    
C2    C24   A    
N1    Zn1   S    
C12   C15   A    
C3    C5    A    
C13   O6    A    
N2    Zn2   S    
C2    C3    A    
O3    Zn1   S    
C28   H3    S    
C11   H13   S    
C21   H5    S    
O4    Zn2   S    
C20   C21   S    
C8    H10   S    
C1    O1    A    
C2    H17   S    
C9    H11   S    
C16   C17   A    
C12   C28   A    
C19   C25   A    
C12   C19   A    
C22   H15   S    
C17   H14   S    
C15   Cl1   S    
C5    C26   A    
C26   C27   A    
C14   O8    A    
C1    O2    A    
C14   C16   S    
O7    Zn1   S    
C23   H16   S    
C10   C11   S    
Cl3   N2    S    
O8    Zn2   S    
C15   C16   A    
C1    C9    S    
O6    Zn2   S    
C7    C13   S    
O1    Zn1   S    
C24   C25   A    
C21   H6    S    
C17   C18   A    
C18   C19   A    
C27   C28   A    
C11   N2    D    
C14   O7    A    
C22   C23   A    
H12   N1    S    
C6    C8    S    
C7    H1    S    
O2    Zn2   S    
C4    O4    A    
C25   C26   A    
C18   C22   A    
C10   N1    D    
C20   H9    S    
C21   H7    S    
C3    C4    S    
C8    C9    D    
C13   O5    A    
C5    H2    S    
