data_mof_unit_3864.cif
_audit_creation_date              2012-12-10T16:54:06-0500
_audit_creation_method            fapswitch 2.2
_symmetry_space_group_name_H-M    P1
_symmetry_Int_Tables_number       1
_space_group_crystal_system       triclinic
_cell_length_a                    9.664613
_cell_length_b                    10.878304
_cell_length_c                    13.554752
_cell_angle_alpha                 90.268975
_cell_angle_beta                  72.827219
_cell_angle_gamma                 89.464445
_cell_volume                      1361.44090792

loop_
_atom_site_label
_atom_site_type_symbol
_atom_type_description
_atom_site_fract_x
_atom_site_fract_y
_atom_site_fract_z
_atom_type_partial_charge
C1    C     C_R   0.502554 0.734813 0.492679 0.881682
C2    C     C_R   0.457241 0.557052 0.965755 0.102581
C3    C     C_R   0.476310 0.496452 0.869927 0.090360
C4    C     C_R   0.552610 0.527296 0.025373 -0.029089
C5    C     C_R   0.686192 0.466529 0.975414 0.074410
C6    C     C_R   0.703070 0.407787 0.880488 -0.226899
C7    C     C_R   0.594185 0.414365 0.833287 -0.185616
C8    C     C_R   0.515364 0.545890 0.133935 -0.065914
C9    C     C_R   0.760353 0.484424 0.130306 -0.204964
C10   C     C_R   0.380234 0.523102 0.811164 -0.103425
C11   C     C_2   0.614437 0.068341 0.427792 -0.038151
C12   C     C_R   0.423057 0.499457 0.699641 0.761889
C13   C     C_2   0.506954 0.131847 0.496247 -0.377207
C14   C     C_2   0.628384 0.934159 0.441998 -0.069301
C15   C     C_2   0.506528 0.866554 0.472748 -0.404193
C16   C     C_2   0.051386 0.567575 0.562719 -0.067801
C17   C     C_2   0.896792 0.571618 0.559500 -0.045577
C18   C     C_R   0.501465 0.264992 0.498505 0.910960
C19   C     C_R   0.576364 0.507948 0.300431 0.900969
C20   C     C_R   0.794982 0.456736 0.025373 0.248177
C21   C     C_R   0.618576 0.516577 0.186713 -0.162526
C22   C     C_R   0.260006 0.600576 0.852246 -0.181480
C23   C     C_R   0.246610 0.665685 0.942732 -0.113563
C24   C     C_R   0.349000 0.649944 0.995269 -0.137313
Cu1   Cu    Cu3+1 0.361370 0.499980 0.499980 0.991694
Cu2   Cu    Cu3+1 0.638630 0.500020 0.500020 0.986338
H1    H     H_    0.842421 0.471356 0.169267 0.191589
H2    H     H_    0.429047 0.086204 0.559522 0.135169
H3    H     H_    0.402155 0.909731 0.479775 0.177604
H4    H     H_    0.078841 0.624967 0.619711 0.149799
H5    H     H_    0.129744 0.450968 0.443867 0.219603
H6    H     H_    0.823448 0.636643 0.610434 0.163408
H7    H     H_    0.913066 0.435944 0.455850 0.208683
H8    H     H_    0.795904 0.349241 0.845402 0.155895
H9    H     H_    0.185228 0.621755 0.808690 0.145163
H10   H     H_    0.344470 0.714425 0.056843 0.150621
H11   H     H_    0.161341 0.734078 0.969007 0.152929
H12   H     H_    0.606038 0.356701 0.766043 0.164772
N1    N     N_2   0.152660 0.501340 0.501130 -0.279042
N2    N     N_2   0.846520 0.501370 0.501160 -0.281201
O1    O     O_R   0.382960 0.678040 0.499980 -0.567854
O2    O     O_R   0.617100 0.678080 0.500020 -0.560737
O3    O     O_R   0.325800 0.499940 0.650950 -0.587990
O4    O     O_R   0.559930 0.499980 0.650990 -0.586437
O5    O     O_R   0.382900 0.321920 0.499980 -0.560931
O6    O     O_R   0.617040 0.321960 0.500020 -0.572994
O7    O     O_R   0.440070 0.500020 0.349010 -0.555233
O8    O     O_R   0.674200 0.500060 0.349050 -0.559620
C25   C     C_2   0.775969 0.879275 0.418662 0.957888
O9    O     O_2   0.862020 0.921206 0.460059 -0.587416
O10   O     O_R   0.818249 0.783739 0.346218 -0.732082
H13   H     H_    0.921447 0.754823 0.336695 0.329526
N3    N     N_2   0.939992 0.420886 0.971305 -0.430022
H14   H     H_    0.973778 0.441776 0.893803 0.246751
C26   C     C_3   0.982251 0.298866 0.994001 -0.632006
H15   H     H_    0.097619 0.281609 0.950434 0.232757
H16   H     H_    0.914628 0.228830 0.970808 0.217623
H17   H     H_    0.970779 0.290047 0.077604 0.246637
C27   C     C_2   0.364206 0.578972 0.194066 0.853833
O11   O     O_2   0.264445 0.511890 0.191386 -0.583024
O12   O     O_R   0.337050 0.686176 0.254456 -0.752093
H18   H     H_    0.230441 0.698221 0.292546 0.334430
C28   C     C_2   0.712246 0.128209 0.334336 0.884242
O13   O     O_2   0.837288 0.092352 0.297623 -0.578303
O14   O     O_R   0.658735 0.222463 0.285650 -0.769259
H19   H     H_    0.733329 0.251692 0.220843 0.321285

loop_
_geom_bond_atom_site_label_1
_geom_bond_atom_site_label_2
_ccdc_geom_bond_type
C2    C4    A    
C26   H15   S    
C28   O14   S    
C13   H2    S    
C6    C7    A    
C1    C15   S    
Cu1   O7    S    
C9    C20   A    
C11   C28   S    
C9    H1    S    
Cu2   O8    S    
C4    C8    A    
Cu2   N2    S    
Cu1   O3    S    
C26   H16   S    
C2    C3    A    
Cu2   O4    S    
C27   O11   D    
C12   O4    A    
C3    C10   A    
N3    H14   S    
C10   C22   A    
C22   H9    S    
C11   C13   D    
C9    C21   A    
C24   H10   S    
C10   C12   S    
C13   C18   S    
C5    C6    A    
C18   O6    A    
C1    O1    A    
C19   C21   S    
C7    H12   S    
H5    N1    S    
C15   H3    S    
C12   O3    A    
C3    C7    A    
C5    C20   A    
N3    C26   S    
C8    C27   S    
C2    C24   A    
O12   H18   S    
C11   C14   S    
C19   O7    A    
C27   O12   S    
C14   C25   S    
C6    H8    S    
Cu2   O6    S    
C16   N1    D    
C16   H4    S    
C28   O13   D    
H7    N2    S    
C18   O5    A    
Cu1   O5    S    
C1    O2    A    
Cu2   O2    S    
O14   H19   S    
C26   H17   S    
Cu1   O1    S    
C25   O9    D    
C17   H6    S    
C14   C15   D    
C20   N3    S    
C23   C24   A    
Cu1   Cu2   S    
C23   H11   S    
C22   C23   A    
Cu1   N1    S    
O10   H13   S    
C16   C17   S    
C19   O8    A    
C4    C5    A    
C25   O10   S    
C17   N2    D    
C8    C21   A    
