data_mof_unit_3109.cif
_audit_creation_date              2012-12-11T15:49:09-0500
_audit_creation_method            fapswitch 2.2
_symmetry_space_group_name_H-M    P1
_symmetry_Int_Tables_number       1
_space_group_crystal_system       triclinic
_cell_length_a                    21.642198
_cell_length_b                    7.181904
_cell_length_c                    14.874418
_cell_angle_alpha                 89.625626
_cell_angle_beta                  105.59988
_cell_angle_gamma                 89.930258
_cell_volume                      2226.73969452

loop_
_atom_site_label
_atom_site_type_symbol
_atom_type_description
_atom_site_fract_x
_atom_site_fract_y
_atom_site_fract_z
_atom_type_partial_charge
O1    O     O_R   0.335860 0.638190 0.002110 -0.539230
O2    O     O_R   0.664140 0.361810 0.997890 -0.539230
O3    O     O_R   0.164140 0.138190 0.997890 -0.542218
O4    O     O_R   0.835860 0.861810 0.002110 -0.542218
O5    O     O_R   0.217530 0.305920 0.861960 -0.539860
O6    O     O_R   0.782470 0.694080 0.138040 -0.539860
O7    O     O_R   0.282470 0.805920 0.138040 -0.539189
O8    O     O_R   0.717530 0.194080 0.861960 -0.539189
C1    C     C_R   0.205716 0.477350 0.826216 0.691921
C2    C     C_R   0.794284 0.522650 0.173784 0.691921
C3    C     C_R   0.294124 0.975959 0.173868 0.693371
C4    C     C_R   0.705876 0.024041 0.826132 0.693372
O9    O     O_R   0.338690 0.308320 0.993240 -0.542242
O10   O     O_R   0.661310 0.691680 0.006760 -0.542241
O11   O     O_R   0.161310 0.808320 0.006760 -0.540107
O12   O     O_R   0.838690 0.191680 0.993240 -0.540107
O13   O     O_R   0.286170 0.140430 0.130100 -0.536979
O14   O     O_R   0.713830 0.859570 0.869900 -0.536980
O15   O     O_R   0.213830 0.640430 0.869900 -0.534800
O16   O     O_R   0.786170 0.359570 0.130100 -0.534800
C5    C     C_R   0.364978 0.477121 0.997769 0.679144
C6    C     C_R   0.635022 0.522879 0.002231 0.679143
C7    C     C_R   0.135001 0.977255 0.002150 0.681283
C8    C     C_R   0.864999 0.022745 0.997850 0.681285
O17   O     O_3   0.232630 0.472410 0.044750 -0.378053
O18   O     O_3   0.767370 0.527590 0.955250 -0.378053
O19   O     O_3   0.267370 0.972410 0.955250 -0.377218
O20   O     O_3   0.732630 0.027590 0.044750 -0.377219
V1    V     V_3+5 0.253220 0.196620 0.991700 1.443047
V2    V     V_3+5 0.746780 0.803380 0.008300 1.443046
V3    V     V_3+5 0.246780 0.696620 0.008300 1.449781
V4    V     V_3+5 0.753220 0.303380 0.991700 1.449781
C9    C     C_R   0.030823 0.826913 0.008573 -0.115256
C10   C     C_R   0.969177 0.173087 0.991427 -0.115254
C11   C     C_R   0.470803 0.326186 0.999624 -0.128440
C12   C     C_R   0.529197 0.673814 0.000376 -0.128440
H1    H     H_    0.053391 0.690998 0.015282 0.136526
H2    H     H_    0.946609 0.309002 0.984718 0.136526
H3    H     H_    0.449575 0.189733 0.999675 0.139209
H4    H     H_    0.550425 0.810267 0.000324 0.139209
C13   C     C_R   0.965902 0.838227 0.007057 -0.136024
C14   C     C_R   0.034098 0.161772 0.992943 -0.136022
C15   C     C_R   0.535757 0.337734 0.001368 -0.117423
C16   C     C_R   0.464242 0.662265 0.998632 -0.117422
H5    H     H_    0.940789 0.710300 0.012894 0.139232
H6    H     H_    0.059211 0.289700 0.987106 0.139232
H7    H     H_    0.562244 0.209346 0.002509 0.141753
H8    H     H_    0.437756 0.790654 0.997491 0.141753
C17   C     C_R   0.934049 0.011514 0.998455 -0.055424
C18   C     C_R   0.065950 0.988486 0.001545 -0.055425
C19   C     C_R   0.565983 0.511734 0.001735 -0.062495
C20   C     C_R   0.434017 0.488266 0.998265 -0.062495
C21   C     C_R   0.675875 0.020596 0.725507 -0.066335
C22   C     C_R   0.324125 0.979404 0.274493 -0.066335
C23   C     C_R   0.824253 0.512355 0.274298 -0.063892
C24   C     C_R   0.175747 0.487645 0.725702 -0.063892
C25   C     C_R   0.685987 0.086168 0.571043 -0.159702
C26   C     C_R   0.314012 0.913833 0.428957 -0.159701
C27   C     C_R   0.811858 0.472986 0.429434 -0.160041
C28   C     C_R   0.188141 0.527015 0.570566 -0.160040
C29   C     C_R   0.714111 0.055653 0.665360 -0.183507
C30   C     C_R   0.285889 0.944348 0.334640 -0.183507
C31   C     C_R   0.784986 0.502914 0.334687 -0.183851
C32   C     C_R   0.215014 0.497089 0.665313 -0.183852
C33   C     C_R   0.608629 0.005993 0.690517 -0.098665
C34   C     C_R   0.391371 0.994007 0.309483 -0.098665
C35   C     C_R   0.891584 0.501775 0.309236 -0.101058
C36   C     C_R   0.108416 0.498223 0.690764 -0.101057
C37   C     C_R   0.579926 0.012938 0.591968 0.036681
C38   C     C_R   0.420074 0.987062 0.408032 0.036681
C39   C     C_R   0.920032 0.499664 0.407805 0.038254
C40   C     C_R   0.079967 0.500334 0.592195 0.038253
C41   C     C_R   0.619442 0.071066 0.534613 0.132161
C42   C     C_R   0.380557 0.928934 0.465387 0.132161
C43   C     C_R   0.878633 0.466929 0.465969 0.133375
C44   C     C_R   0.121367 0.533071 0.534031 0.133376
C45   C     C_R   0.513519 0.975288 0.547970 0.053136
C46   C     C_R   0.486480 0.024712 0.452030 0.053136
C47   C     C_R   0.987434 0.520684 0.451370 0.053784
C48   C     C_R   0.012566 0.479313 0.548630 0.053784
C49   C     C_R   0.526121 0.116686 0.404760 -0.166825
C50   C     C_R   0.473879 0.883314 0.595240 -0.166825
C51   C     C_R   0.969893 0.410573 0.597686 -0.166766
C52   C     C_R   0.030106 0.589424 0.402314 -0.166766
C53   C     C_R   0.591871 0.126574 0.442722 -0.190072
C54   C     C_R   0.408129 0.873426 0.557278 -0.190072
C55   C     C_R   0.904099 0.417429 0.559237 -0.190556
C56   C     C_R   0.095901 0.582569 0.440763 -0.190556
H9    H     H_    0.621060 0.187173 0.401233 0.125663
H10   H     H_    0.378939 0.812827 0.598767 0.125663
H11   H     H_    0.872895 0.375504 0.601826 0.124314
H12   H     H_    0.127104 0.624495 0.398174 0.124313
H13   H     H_    0.234436 0.928841 0.307438 0.110754
H14   H     H_    0.765564 0.071160 0.692562 0.110754
H15   H     H_    0.266752 0.491911 0.692382 0.111170
H16   H     H_    0.733248 0.508093 0.307618 0.111169
H17   H     H_    0.716237 0.126222 0.526739 0.115783
H18   H     H_    0.283762 0.873779 0.473261 0.115783
H19   H     H_    0.780319 0.452829 0.474273 0.115767
H20   H     H_    0.219681 0.547174 0.525727 0.115767
H21   H     H_    0.507349 0.185899 0.338582 0.145681
H22   H     H_    0.492651 0.814100 0.661418 0.145681
H23   H     H_    0.986135 0.347178 0.665780 0.144497
H24   H     H_    0.013865 0.652818 0.334219 0.144496
C57   C     C_1   0.429127 0.980061 0.242515 0.271463
N1    N     N_1   0.458811 0.968074 0.188620 -0.383364
C58   C     C_1   0.570873 0.019937 0.757486 0.271463
N2    N     N_1   0.541189 0.031923 0.811380 -0.383365
C59   C     C_1   0.071762 0.537532 0.757134 0.271740
N3    N     N_1   0.042976 0.569659 0.810537 -0.379899
C60   C     C_1   0.928238 0.462461 0.242866 0.271740
N4    N     N_1   0.957023 0.430331 0.189463 -0.379898

loop_
_geom_bond_atom_site_label_1
_geom_bond_atom_site_label_2
_ccdc_geom_bond_type
O17   V3    S    
C51   C55   A    
C26   C30   A    
C55   H11   S    
O19   V1    S    
C27   H19   S    
C37   C45   A    
C60   N4    T    
C26   H18   S    
C40   C44   A    
O15   V3    S    
C39   C47   A    
C49   H21   S    
C45   C46   A    
O1    C5    A    
C51   H23   S    
O9    V1    S    
C47   C52   A    
O4    C8    A    
C38   C46   A    
O1    V3    S    
O13   V1    S    
O2    V4    S    
C14   H6    S    
C25   C41   A    
O3    V1    S    
O3    C7    A    
C38   C42   A    
C21   C29   A    
C1    O15   A    
C56   H12   S    
C2    O16   A    
C10   C14   A    
C23   C31   A    
O2    C6    A    
C58   N2    T    
C24   C32   A    
C37   C41   A    
O14   V2    S    
C21   C33   A    
C44   C56   A    
C4    C21   S    
C36   C40   A    
C16   C20   A    
O11   C7    A    
O12   C8    A    
O10   V2    S    
C48   C51   A    
C13   C17   A    
O5    V1    S    
O7    V3    S    
O8    V4    S    
C12   H4    S    
C54   H10   S    
C53   H9    S    
C29   H14   S    
C7    C18   S    
C22   C30   A    
C9    C18   A    
C50   C54   A    
C31   H16   S    
C28   C44   A    
C9    H1    S    
O7    C3    A    
O5    C1    A    
O8    C4    A    
C25   H17   S    
C50   H22   S    
O9    C5    A    
C1    C24   S    
C42   C54   A    
C25   C29   A    
C2    C23   S    
C3    C22   S    
C41   C53   A    
C12   C19   A    
C14   C18   A    
C22   C34   A    
C35   C60   S    
O6    V2    S    
C52   H24   S    
C12   C16   A    
C34   C57   S    
C27   C43   A    
C11   C15   A    
C26   C42   A    
O16   V4    S    
C43   C55   A    
C8    C17   S    
C3    O13   A    
C10   C17   A    
C10   H2    S    
C52   C56   A    
C32   H15   S    
C28   H20   S    
O6    C2    A    
C23   C35   A    
O11   V3    S    
O18   V4    S    
O12   V4    S    
C57   N1    T    
C27   C31   A    
C28   C32   A    
C9    C13   A    
O10   C6    A    
O20   V2    S    
C40   C48   A    
C24   C36   A    
C59   N3    T    
C39   C43   A    
C46   C49   A    
C15   C19   A    
C34   C38   A    
C45   C50   A    
C33   C37   A    
C11   H3    S    
C35   C39   A    
C36   C59   S    
O4    V2    S    
C47   C48   A    
C30   H13   S    
C4    O14   A    
C11   C20   A    
C13   H5    S    
C15   H7    S    
C33   C58   S    
C5    C20   S    
C49   C53   A    
C16   H8    S    
C6    C19   S    
