data_mof_unit_1322.cif
_audit_creation_date              2012-12-10T20:36:39-0500
_audit_creation_method            fapswitch 2.2
_symmetry_space_group_name_H-M    P1
_symmetry_Int_Tables_number       1
_space_group_crystal_system       triclinic
_cell_length_a                    10.506415
_cell_length_b                    10.680583
_cell_length_c                    9.886704
_cell_angle_alpha                 89.532346
_cell_angle_beta                  90.315754
_cell_angle_gamma                 90.232189
_cell_volume                      1109.37019433

loop_
_atom_site_label
_atom_site_type_symbol
_atom_type_description
_atom_site_fract_x
_atom_site_fract_y
_atom_site_fract_z
_atom_type_partial_charge
C1    C     C_R   0.504510 0.259891 0.500347 0.873267
C2    C     C_3   0.958193 0.471986 0.375702 -0.184236
C3    C     C_3   0.042098 0.384681 0.463902 -0.206192
C4    C     C_3   0.122408 0.499141 0.501175 -0.008205
C5    C     C_R   0.535925 0.062438 0.621897 0.137750
C6    C     C_R   0.526875 0.128513 0.500269 -0.106225
C7    C     C_R   0.544490 0.065854 0.377426 -0.230321
C8    C     C_R   0.544976 0.936342 0.376819 -0.232196
C9    C     C_R   0.527924 0.871142 0.499053 -0.107150
C10   C     C_R   0.536464 0.934585 0.621166 0.130698
C11   C     C_3   0.455289 0.924607 0.744351 -0.467123
C12   C     C_R   0.257379 0.499991 0.500022 0.869566
C13   C     C_3   0.454252 0.066292 0.745034 -0.505984
C14   C     C_R   0.391634 0.470624 0.070542 0.221505
C15   C     C_R   0.603561 0.539087 0.072103 -0.154128
C16   C     C_R   0.603649 0.538860 0.928381 -0.141426
C17   C     C_R   0.391542 0.472422 0.927896 0.170664
C18   C     C_3   0.318376 0.353876 0.917910 -0.516323
C19   C     C_3   0.321581 0.347757 0.071485 -0.063947
C20   C     C_R   0.505050 0.739940 0.499511 0.874225
C21   C     C_R   0.742515 0.498850 0.500292 0.870507
C22   C     C_3   0.042168 0.524803 0.626911 -0.155333
C23   C     C_3   0.959487 0.411698 0.587858 0.245723
C24   C     C_3   0.877381 0.497719 0.500812 0.021399
C25   C     C_3   0.958064 0.611783 0.538610 -0.233004
C26   C     C_3   0.041185 0.586350 0.413368 -0.161012
H1    H     H_    0.507552 0.883024 0.831770 0.204092
H2    H     H_    0.358419 0.106065 0.723992 0.201064
H3    H     H_    0.505970 0.106052 0.833270 0.201186
H4    H     H_    0.687984 0.568988 0.126118 0.152371
H5    H     H_    0.688203 0.568354 0.874787 0.150625
H6    H     H_    0.222570 0.369156 0.872324 0.208283
H7    H     H_    0.374337 0.279142 0.870155 0.194182
H8    H     H_    0.380131 0.269101 0.111826 0.173532
H9    H     H_    0.079935 0.545642 0.729454 0.138731
H10   H     H_    0.919218 0.703907 0.568738 0.137405
H11   H     H_    0.079413 0.657666 0.341896 0.140125
H12   H     H_    0.920473 0.450511 0.273313 0.149157
H13   H     H_    0.079198 0.291060 0.436885 0.128595
H14   H     H_    0.548102 0.115556 0.281551 0.168440
H15   H     H_    0.548717 0.888502 0.280728 0.172656
H16   H     H_    0.360213 0.882593 0.723426 0.203906
N1    N     N_R   0.499140 0.499140 0.142800 -0.121529
N2    N     N_R   0.499140 0.499180 0.857150 -0.103814
O1    O     O_R   0.500020 0.316790 0.614690 -0.613797
O2    O     O_R   0.500000 0.316760 0.385350 -0.626811
O3    O     O_R   0.313960 0.499990 0.614650 -0.623598
O4    O     O_R   0.313940 0.499950 0.385310 -0.616887
O5    O     O_R   0.500000 0.683240 0.614650 -0.616616
O6    O     O_R   0.499980 0.683210 0.385310 -0.620658
O7    O     O_R   0.686060 0.500050 0.614690 -0.624885
O8    O     O_R   0.686040 0.500010 0.385350 -0.634612
Zn1   Zn    Zn3+2 0.500010 0.500020 0.653130 0.936394
Zn2   Zn    Zn3+2 0.499990 0.499980 0.346870 0.935857
C27   C     C_3   0.910996 0.312682 0.686574 -0.940705
H17   H     H_    0.992918 0.262217 0.732355 0.236158
H18   H     H_    0.855674 0.357854 0.767953 0.252857
H19   H     H_    0.849053 0.244996 0.632346 0.241092
C28   C     C_3   0.189249 0.354214 0.133953 -0.861431
H20   H     H_    0.198206 0.342861 0.244582 0.259160
H21   H     H_    0.141589 0.444506 0.109903 0.240367
H22   H     H_    0.129403 0.276037 0.095798 0.236608

loop_
_geom_bond_atom_site_label_1
_geom_bond_atom_site_label_2
_ccdc_geom_bond_type
C8    C9    A    
C4    C26   S    
C23   C24   S    
C13   H2    S    
C23   C27   S    
C6    C7    A    
C4    C12   S    
C4    C22   S    
C9    C10   A    
C2    H12   S    
N1    Zn2   S    
C5    C13   S    
C11   H1    S    
C12   O4    A    
C19   C28   S    
O2    Zn2   S    
C27   H17   S    
C17   C18   S    
C17   N2    A    
C15   N1    A    
C28   H20   S    
C2    C26   S    
C26   H11   S    
O6    Zn2   S    
C8    H15   S    
C16   H5    S    
O4    Zn2   S    
C22   H9    S    
C11   C13   S    
C14   C17   A    
C1    O1    A    
C20   O5    A    
C11   H16   S    
C12   O3    A    
O5    Zn1   S    
O3    Zn1   S    
N2    Zn1   S    
C13   H3    S    
O8    Zn2   S    
C2    C3    S    
C27   H18   S    
C2    C24   S    
C5    C6    A    
C18   H7    S    
C1    O2    A    
C28   H21   S    
C18   H6    S    
C10   C11   S    
C25   H10   S    
O1    Zn1   S    
C15   C16   A    
C21   O7    A    
C24   C25   S    
C15   H4    S    
C27   H19   S    
C7    C8    A    
C21   C24   S    
C1    C6    S    
C3    H13   S    
C16   N2    A    
C22   C23   S    
C18   C19   S    
C28   H22   S    
C20   O6    A    
C9    C20   S    
C5    C10   A    
C25   C26   S    
C7    H14   S    
C3    C23   S    
C14   C19   S    
C22   C25   S    
C21   O8    A    
C3    C4    S    
C14   N1    A    
O7    Zn1   S    
C19   H8    S    
