data_mof_unit_2423.cif
_audit_creation_date              2012-10-26T21:13:39-0400
_audit_creation_method            fapswitch 2.2
_symmetry_space_group_name_H-M    P1
_symmetry_Int_Tables_number       1
_space_group_crystal_system       triclinic
_cell_length_a                    9.069871
_cell_length_b                    10.817832
_cell_length_c                    9.574082
_cell_angle_alpha                 90.222997
_cell_angle_beta                  90.030087
_cell_angle_gamma                 89.889095
_cell_volume                      939.364891392

loop_
_atom_site_label
_atom_site_type_symbol
_atom_type_description
_atom_site_fract_x
_atom_site_fract_y
_atom_site_fract_z
_atom_type_partial_charge
C1    C     C_R   0.497630 0.262434 0.499764 0.558587
C2    C     C_R   0.624120 0.531296 0.926368 0.165043
C3    C     C_3   0.770189 0.468802 0.916636 -0.250322
C4    C     C_R   0.220766 0.499913 0.499954 0.555208
C5    C     C_3   0.769946 0.461277 0.074854 -0.056048
C6    C     C_R   0.497272 0.737640 0.500215 0.547747
C7    C     C_R   0.779213 0.499889 0.500047 0.560872
C8    C     C_1   0.065559 0.499823 0.499947 -0.049733
C9    C     C_1   0.934390 0.499813 0.500041 -0.049541
C10   C     C_R   0.482775 0.064436 0.624990 0.001580
C11   C     C_R   0.483385 0.129371 0.499418 0.003710
C12   C     C_R   0.462489 0.935146 0.374320 -0.142360
C13   C     C_R   0.462695 0.063991 0.373820 -0.130887
C14   C     C_R   0.482585 0.870870 0.500406 -0.008302
C15   C     C_R   0.481373 0.937252 0.625854 0.054973
C16   C     C_3   0.583153 0.931426 0.748658 -0.024531
C17   C     C_3   0.585419 0.071975 0.746655 -0.228398
C18   C     C_R   0.624955 0.528350 0.073287 0.188553
C19   C     C_R   0.373839 0.480808 0.073944 0.012672
C20   C     C_R   0.373975 0.480225 0.925740 0.016002
Cu1   Cu    Cu3+1 0.499990 0.499980 0.640670 0.972199
Cu2   Cu    Cu3+1 0.500010 0.500020 0.359330 0.995914
H1    H     H_    0.453746 0.111597 0.274854 0.175447
H2    H     H_    0.763763 0.377866 0.862444 0.172564
H3    H     H_    0.856660 0.531656 0.875615 0.121555
H4    H     H_    0.859000 0.517274 0.123535 0.133104
H5    H     H_    0.453587 0.886531 0.275640 0.180118
H6    H     H_    0.691396 0.888597 0.722868 0.137233
H7    H     H_    0.532628 0.116207 0.838947 0.185969
H8    H     H_    0.694745 0.110776 0.718066 0.131013
H9    H     H_    0.272084 0.461376 0.127992 0.128188
H10   H     H_    0.272404 0.460075 0.871445 0.126696
I1    I     I_    0.759892 0.272538 0.143864 -0.378828
I2    I     I_    0.475440 0.858470 0.929519 -0.400271
N1    N     N_R   0.500920 0.500930 0.147930 -0.217433
N2    N     N_R   0.500930 0.500890 0.852020 -0.225425
O1    O     O_R   0.500000 0.319640 0.618810 -0.505525
O2    O     O_R   0.500020 0.319680 0.381230 -0.478100
O3    O     O_R   0.288380 0.499980 0.618770 -0.506887
O4    O     O_R   0.288400 0.500020 0.381190 -0.509004
O5    O     O_R   0.499980 0.680320 0.618770 -0.471851
O6    O     O_R   0.500000 0.680360 0.381190 -0.500330
O7    O     O_R   0.711600 0.499980 0.618810 -0.512443
O8    O     O_R   0.711620 0.500020 0.381230 -0.478726

loop_
_geom_bond_atom_site_label_1
_geom_bond_atom_site_label_2
_ccdc_geom_bond_type
C16   H6    S    
Cu2   N1    S    
C7    O7    A    
C2    C18   A    
C17   H7    S    
C18   N1    A    
C19   C20   A    
Cu1   O3    S    
C4    O3    A    
C1    O1    A    
C4    C8    S    
Cu2   O4    S    
C2    C3    S    
C19   H9    S    
Cu1   N2    S    
C19   N1    A    
C7    O8    A    
C17   H8    S    
C11   C13   A    
C3    H2    S    
Cu2   O6    S    
C1    O2    A    
Cu1   O5    S    
Cu1   Cu2   S    
C12   C14   A    
C10   C15   A    
C6    O6    A    
C6    C14   S    
C10   C11   A    
C10   C17   S    
C15   C16   S    
Cu2   O2    S    
C4    O4    A    
C3    H3    S    
Cu1   O1    S    
C12   C13   A    
C13   H1    S    
C20   H10   S    
C2    N2    A    
C7    C9    S    
C14   C15   A    
C8    C9    T    
C20   N2    A    
C5    C18   S    
C12   H5    S    
C16   I2    S    
Cu1   O7    S    
Cu2   O8    S    
C5    H4    S    
C5    I1    S    
C16   C17   S    
C3    C5    S    
C6    O5    A    
C1    C11   S    
