data_mof_unit_2860.cif
_audit_creation_date              2013-03-05T15:46:14-0500
_audit_creation_method            fapswitch 2.2
_symmetry_space_group_name_H-M    P1
_symmetry_Int_Tables_number       1
_space_group_crystal_system       triclinic
_cell_length_a                    10.79952
_cell_length_b                    11.028268
_cell_length_c                    9.801577
_cell_angle_alpha                 110.898026
_cell_angle_beta                  98.540835
_cell_angle_gamma                 90.487829
_cell_volume                      1076.08894977

loop_
_atom_site_label
_atom_site_type_symbol
_atom_site_description
_atom_site_fract_x
_atom_site_fract_y
_atom_site_fract_z
_atom_type_partial_charge
O1    O     O_R   0.511820 0.332340 0.577400 -0.553974
O2    O     O_R   0.474400 0.295500 0.332650 -0.546950
C1    C     C_R   0.493686 0.254153 0.441306 0.914978
O3    O     O_R   0.336400 0.518400 0.622370 -0.581935
O4    O     O_R   0.298980 0.481560 0.377620 -0.499933
C2    C     C_R   0.259736 0.496929 0.499600 0.868793
Cu1   Cu    Cu3+1 0.522160 0.521810 0.644910 1.000128
Cu2   Cu    Cu3+1 0.477840 0.478190 0.355090 1.091867
O5    O     O_R   0.525600 0.704500 0.667350 -0.584966
O6    O     O_R   0.488180 0.667660 0.422600 -0.563179
O7    O     O_R   0.701020 0.518440 0.622380 -0.601270
O8    O     O_R   0.663600 0.481600 0.377630 -0.537923
C3    C     C_R   0.510979 0.745683 0.558964 0.870502
C4    C     C_R   0.739316 0.492749 0.496976 0.843604
C5    C     C_3   0.087713 0.468960 0.636127 0.117728
H1    H     H_    0.119130 0.559317 0.734154 0.151443
C6    C     C_3   0.944165 0.451761 0.624044 -0.483209
H2    H     H_    0.915031 0.351127 0.611559 0.216450
H3    H     H_    0.918036 0.516026 0.730874 0.216126
H4    H     H_    0.116787 0.701535 0.619133 0.097342
H5    H     H_    0.914353 0.692501 0.627813 0.151595
C7    C     C_3   0.071167 0.630389 0.509763 0.155275
C8    C     C_3   0.051634 0.380808 0.350720 0.061274
C9    C     C_3   0.121275 0.493302 0.495711 -0.277182
H6    H     H_    0.085073 0.291650 0.364277 0.200815
C10   C     C_3   0.876069 0.486877 0.491737 -0.155253
C11   C     C_3   0.928312 0.626485 0.515555 -0.446622
C12   C     C_3   0.904346 0.378916 0.342442 0.486755
H7    H     H_    0.872272 0.669287 0.442453 0.245158
H8    H     H_    0.505113 0.864112 0.367163 0.166418
C13   C     C_2   0.495789 0.115131 0.410022 -0.329970
C14   C     C_2   0.541428 0.068377 0.515170 0.474053
H9    H     H_    0.540341 0.949358 0.706909 0.197912
C15   C     C_2   0.524864 0.884216 0.591757 -0.285802
C16   C     C_2   0.522998 0.929464 0.482353 -0.208122
H10   H     H_    0.457050 0.049188 0.299018 0.137959
H11   H     H_    0.429160 0.406724 0.842634 0.218425
H12   H     H_    0.579684 0.585529 0.156084 0.171494
N1    N     N_2   0.444530 0.445420 0.137360 -0.255294
C17   C     C_2   0.510284 0.510358 0.081683 0.010264
H13   H     H_    0.617210 0.628774 0.936319 0.216224
N2    N     N_2   0.555520 0.554510 0.862630 -0.298007
C18   C     C_2   0.494313 0.485522 0.917707 0.010654
H14   H     H_    0.379780 0.374047 0.064172 0.257376
N3    N     N_R   0.845431 0.400574 0.206876 0.177171
O9    O     O_R   0.826999 0.516006 0.204125 -0.345868
O10   O     O_R   0.824355 0.302469 0.081537 -0.309010
N4    N     N_R   0.105002 0.682739 0.400227 0.195429
O11   O     O_R   0.220376 0.725640 0.413501 -0.345064
O12   O     O_R   0.019748 0.714969 0.312912 -0.260760
O13   O     O_3   0.593164 0.149471 0.657785 -0.577653
C19   C     C_3   0.723079 0.175739 0.665039 0.097781
H15   H     H_    0.748813 0.275656 0.747176 0.200892
H16   H     H_    0.748277 0.175522 0.558599 0.157474
C20   C     C_3   0.800092 0.079962 0.717547 -0.422677
H17   H     H_    0.773330 0.080094 0.822777 0.275642
H18   H     H_    0.780268 0.980187 0.633347 0.212667
C21   C     C_3   0.940464 0.115819 0.741982 -0.653439
H19   H     H_    0.969568 0.110179 0.636070 0.291602
H20   H     H_    0.993489 0.046520 0.783095 0.258005
H21   H     H_    0.963710 0.215760 0.824962 0.302473
N5    N     N_R   0.150238 0.362857 0.670756 0.137656
O14   O     O_R   0.192825 0.381047 0.808371 -0.350641
O15   O     O_R   0.144741 0.245538 0.573466 -0.355799
N6    N     N_R   0.090995 0.373893 0.210042 0.166996
O16   O     O_R   0.075659 0.467432 0.159035 -0.219544
O17   O     O_R   0.139103 0.269041 0.131272 -0.334666
N7    N     N_R   0.851234 0.250221 0.332241 0.073648
O18   O     O_R   0.730835 0.222233 0.294312 -0.367341
O19   O     O_R   0.920817 0.159813 0.350992 -0.345997

loop_
_geom_bond_atom_site_label_1
_geom_bond_atom_site_label_2
_geom_bond_distance
_ccdc_geom_bond_type
H11   C18   1.082272 S    
O4    Cu2   1.975676 S    
C7    N4    1.474663 S    
C8    C9    1.591614 S    
C14   O13   1.390549 S    
C5    C6    1.541981 S    
N5    O14   1.300878 A    
Cu2   N1    2.008462 S    
C11   H7    1.104461 S    
H13   N2    1.030562 S    
C10   C12   1.596288 S    
C13   C14   1.342949 D    
C19   C20   1.532294 S    
O8    C4    1.289845 A    
Cu2   O8    1.983905 S    
C2    C9    1.489948 S    
C8    N6    1.478986 S    
C21   H21   1.111055 S    
N4    O12   1.301928 A    
C6    H2    1.109678 S    
H5    C11   1.114936 S    
C3    C15   1.446162 S    
N6    O16   1.299143 A    
O1    Cu1   1.950416 S    
C8    C12   1.580202 S    
C4    C10   1.486520 S    
C1    C13   1.453422 S    
H12   C17   1.084695 S    
C10   C11   1.559788 S    
N1    H14   1.030509 S    
H8    C16   1.088038 S    
O3    Cu1   1.983905 S    
C6    C10   1.566023 S    
O3    C2    1.298856 A    
N4    O11   1.300444 A    
C6    H3    1.113590 S    
C5    N5    1.472784 S    
C19   H16   1.115815 S    
H9    C15   1.086917 S    
O2    C1    1.291397 A    
C7    C11   1.553011 S    
C20   H18   1.110566 S    
O4    C2    1.282567 A    
O7    C4    1.291001 A    
C7    C9    1.576380 S    
C12   N3    1.485050 S    
C20   C21   1.525191 S    
N6    O17   1.302153 A    
N2    C18   1.302935 D    
C20   H17   1.111231 S    
C21   H20   1.110400 S    
O13   C19   1.416405 S    
C14   C16   1.454050 S    
Cu1   Cu2   2.673455 S    
C8    H6    1.095388 S    
N3    O10   1.302360 A    
C19   H15   1.111317 S    
Cu2   O6    1.950416 S    
C15   C16   1.332216 D    
Cu1   N2    2.008533 S    
N1    C17   1.303919 D    
Cu1   O5    1.946573 S    
N7    O19   1.301930 A    
O5    C3    1.286628 A    
C13   H10   1.087568 S    
C5    C9    1.583580 S    
Cu1   O7    1.975676 S    
N5    O15   1.299436 A    
C12   N7    1.490374 S    
C21   H19   1.109734 S    
N3    O9    1.299279 A    
C17   C18   1.513519 S    
O2    Cu2   1.946573 S    
C5    H1    1.116078 S    
H4    C7    1.115353 S    
N7    O18   1.300713 A    
O1    C1    1.288485 A    
O6    C3    1.290593 A    
