data_mof_unit_2560.cif
_audit_creation_date              2013-03-05T16:47:36-0500
_audit_creation_method            fapswitch 2.2
_symmetry_space_group_name_H-M    P1
_symmetry_Int_Tables_number       1
_space_group_crystal_system       triclinic
_cell_length_a                    18.14721
_cell_length_b                    18.18536
_cell_length_c                    18.303844
_cell_angle_alpha                 120.063269
_cell_angle_beta                  89.771729
_cell_angle_gamma                 119.958435
_cell_volume                      4278.32573939

loop_
_atom_site_label
_atom_site_type_symbol
_atom_site_description
_atom_site_fract_x
_atom_site_fract_y
_atom_site_fract_z
_atom_type_partial_charge
Zn1   Zn    Zn3+2 0.207400 0.586780 0.791530 0.987633
Zn2   Zn    Zn3+2 0.792600 0.413220 0.208470 0.987128
Zn3   Zn    Zn3+2 0.208510 0.413230 0.792630 0.989165
Zn4   Zn    Zn3+2 0.791490 0.586770 0.207370 0.988354
Zn5   Zn    Zn3+2 0.383150 0.586740 0.791530 0.970063
Zn6   Zn    Zn3+2 0.616850 0.413260 0.208470 0.965103
Zn7   Zn    Zn3+2 0.207400 0.413250 0.618010 0.999062
Zn8   Zn    Zn3+2 0.792600 0.586750 0.381990 0.999876
O1    O     O_3   0.251620 0.500000 0.748430 -0.491160
O2    O     O_3   0.748380 0.500000 0.251570 -0.489886
O3    O     O_R   0.134680 0.268390 0.572240 -0.657492
O4    O     O_R   0.865320 0.731610 0.427760 -0.657033
O5    O     O_R   0.306670 0.731630 0.863510 -0.633192
O6    O     O_R   0.693330 0.268370 0.136490 -0.631680
O7    O     O_R   0.135450 0.439270 0.865360 -0.647832
O8    O     O_R   0.864550 0.560730 0.134640 -0.647745
O9    O     O_R   0.429670 0.560710 0.692610 -0.645702
O10   O     O_R   0.570330 0.439290 0.307390 -0.647335
O11   O     O_R   0.308540 0.439240 0.865360 -0.633694
O12   O     O_R   0.691460 0.560760 0.134640 -0.632525
O13   O     O_R   0.133580 0.439310 0.571150 -0.628211
O14   O     O_R   0.866420 0.560690 0.428850 -0.627957
O15   O     O_R   0.430770 0.560690 0.864590 -0.645590
O16   O     O_R   0.569230 0.439310 0.135410 -0.654365
O17   O     O_R   0.133580 0.560760 0.692610 -0.643114
O18   O     O_R   0.866420 0.439240 0.307390 -0.644051
O19   O     O_R   0.134680 0.560740 0.864590 -0.632543
O20   O     O_R   0.865320 0.439260 0.135410 -0.633334
O21   O     O_R   0.306670 0.439270 0.571150 -0.627386
O22   O     O_R   0.693330 0.560730 0.428850 -0.626968
O23   O     O_R   0.135450 0.268370 0.694460 -0.636962
O24   O     O_R   0.864550 0.731630 0.305540 -0.637869
O25   O     O_R   0.429670 0.731610 0.863510 -0.648559
O26   O     O_R   0.570330 0.268390 0.136490 -0.654400
C1    C     C_R   0.110672 0.220031 0.609907 0.811258
C2    C     C_R   0.889044 0.779990 0.390139 0.809979
C3    C     C_R   0.392718 0.781189 0.888361 0.765577
C4    C     C_R   0.607274 0.218850 0.111589 0.764885
C5    C     C_R   0.112217 0.501897 0.890952 0.790428
C6    C     C_R   0.887762 0.498064 0.109031 0.792302
C7    C     C_R   0.392177 0.500311 0.607737 0.811860
C8    C     C_R   0.607783 0.499587 0.392209 0.813804
C9    C     C_R   0.393809 0.498890 0.887644 0.824879
C10   C     C_R   0.605983 0.499480 0.110883 0.827781
C11   C     C_R   0.109039 0.500126 0.607888 0.892706
C12   C     C_R   0.891010 0.499928 0.392114 0.892455
C13   C     C_3   0.079910 0.535888 0.489612 0.347032
C14   C     C_3   0.920235 0.464286 0.510413 0.346785
C15   C     C_3   0.038012 0.597177 0.524086 0.055601
C16   C     C_3   0.962132 0.403003 0.475937 0.055790
C17   C     C_3   0.948352 0.499778 0.448648 -0.176967
C18   C     C_3   0.051783 0.500382 0.551371 -0.176789
C19   C     C_3   0.991150 0.438387 0.413020 -0.285126
C20   C     C_3   0.008994 0.561785 0.587000 -0.284357
H1    H     H_    0.984837 0.389065 0.342161 0.181638
H2    H     H_    0.015300 0.611098 0.657854 0.184109
C21   C     C_3   0.414913 0.965005 0.966030 -0.131793
C22   C     C_3   0.584936 0.035124 0.033805 -0.132511
C23   C     C_3   0.498042 0.036471 0.952225 -0.189127
C24   C     C_3   0.501798 0.963709 0.047611 -0.192651
H3    H     H_    0.496939 0.067472 0.913500 0.129027
H4    H     H_    0.502516 0.932896 0.086590 0.132960
H5    H     H_    0.344598 0.935430 0.937162 0.141927
H6    H     H_    0.655195 0.064761 0.062912 0.142312
C25   C     C_3   0.550131 0.102552 0.052285 0.060433
C26   C     C_3   0.449755 0.897565 0.947538 0.061244
C27   C     C_3   0.467821 0.032604 0.066838 -0.177104
C28   C     C_3   0.532071 0.967578 0.932980 -0.173920
H7    H     H_    0.442493 0.061399 0.122726 0.127547
H8    H     H_    0.557547 0.938919 0.877193 0.127639
C29   C     C_3   0.414632 0.448990 0.449638 -0.174429
C30   C     C_3   0.585025 0.550502 0.549994 -0.178430
C31   C     C_3   0.468844 0.402136 0.435807 0.218557
C32   C     C_3   0.530859 0.597420 0.563805 0.216172
H9    H     H_    0.344189 0.407118 0.409186 0.161686
H10   H     H_    0.655470 0.592279 0.590364 0.160239
C33   C     C_3   0.550916 0.499311 0.449082 -0.040603
C34   C     C_3   0.448812 0.500285 0.550605 -0.039484
C35   C     C_3   0.497858 0.547230 0.462797 -0.218879
C36   C     C_3   0.501753 0.452242 0.536761 -0.223108
H11   H     H_    0.497545 0.586343 0.431909 0.154370
H12   H     H_    0.501092 0.411962 0.566716 0.146632
H13   H     H_    0.072029 0.227804 0.944899 0.138669
H14   H     H_    0.919663 0.768421 0.054365 0.135619
C37   C     C_R   0.131147 0.189383 0.841423 -0.195829
C38   C     C_R   0.863557 0.810548 0.159750 -0.190449
H15   H     H_    0.194016 0.224419 0.887941 0.149421
H16   H     H_    0.800395 0.776181 0.114153 0.146122
C39   C     C_R   0.119030 0.141558 0.749512 0.386070
C40   C     C_R   0.877437 0.859698 0.252028 0.385724
C41   C     C_R   0.036137 0.097877 0.690597 0.016812
C42   C     C_R   0.960657 0.902176 0.309584 0.015529
C43   C     C_R   0.967071 0.099760 0.724583 -0.204432
C44   C     C_R   0.028338 0.898196 0.274033 -0.200251
H17   H     H_    0.903304 0.066103 0.680292 0.156058
H18   H     H_    0.092310 0.930949 0.317306 0.154081
C45   C     C_R   0.979902 0.145856 0.815719 -0.141936
C46   C     C_R   0.013765 0.850922 0.182610 -0.140896
H19   H     H_    0.926261 0.146994 0.841131 0.151522
H20   H     H_    0.066415 0.848253 0.156125 0.150007
C47   C     C_R   0.061995 0.191267 0.874121 -0.169066
C48   C     C_R   0.931240 0.806261 0.125439 -0.175564
C49   C     C_R   0.964851 0.943616 0.536917 -0.203824
C50   C     C_R   0.033800 0.056430 0.463258 -0.204402
H21   H     H_    0.938330 0.900364 0.566119 0.168269
H22   H     H_    0.060224 0.099609 0.433983 0.168206
C51   C     C_R   0.944647 0.892318 0.444459 -0.033174
C52   C     C_R   0.054298 0.107745 0.555723 -0.032333
C53   C     C_R   0.978698 0.949474 0.406797 0.065381
C54   C     C_R   0.019577 0.050640 0.593427 0.066404
H23   H     H_    0.703354 0.704299 0.774178 0.134570
H24   H     H_    0.294062 0.246858 0.190155 0.133653
C55   C     C_R   0.625451 0.567641 0.773164 -0.116141
C56   C     C_R   0.344480 0.382259 0.190810 -0.125217
H25   H     H_    0.621690 0.516404 0.706152 0.144619
H26   H     H_    0.329670 0.420909 0.250312 0.149555
C57   C     C_R   0.584168 0.527692 0.821071 -0.164912
C58   C     C_R   0.385082 0.431419 0.149046 -0.181975
H27   H     H_    0.547770 0.445029 0.789927 0.146613
H28   H     H_    0.402091 0.508602 0.177377 0.149469
C59   C     C_R   0.589374 0.593591 0.908519 0.100166
C60   C     C_R   0.405813 0.382725 0.072537 0.092007
C61   C     C_R   0.637295 0.701725 0.948365 0.214500
C62   C     C_R   0.383104 0.281408 0.036227 0.249878
C63   C     C_R   0.677858 0.740150 0.898592 -0.149809
C64   C     C_R   0.343925 0.234295 0.080527 -0.123367
H29   H     H_    0.714478 0.822124 0.927385 0.132442
H30   H     H_    0.329572 0.159176 0.056485 0.129476
C65   C     C_R   0.671759 0.673574 0.811639 -0.150614
C66   C     C_R   0.324391 0.284158 0.156896 -0.166035
C67   C     C_R   0.591680 0.545527 0.011306 -0.234695
C68   C     C_R   0.406838 0.445569 0.981330 -0.195712
H31   H     H_    0.663287 0.583130 0.021665 0.171021
H32   H     H_    0.335141 0.407308 0.970522 0.171019
C69   C     C_R   0.549746 0.495570 0.052300 -0.039808
C70   C     C_R   0.449114 0.497415 0.941836 -0.023131
C71   C     C_R   0.455647 0.442010 0.035131 -0.030870
C72   C     C_R   0.542225 0.546276 0.955270 -0.029889
H33   H     H_    0.267671 0.960938 0.056335 0.130262
H34   H     H_    0.735803 0.042191 0.949748 0.131706
C73   C     C_R   0.260312 0.848973 0.071592 -0.187890
C74   C     C_R   0.742850 0.147577 0.924622 -0.192329
H35   H     H_    0.331716 0.896840 0.106632 0.138623
H36   H     H_    0.672490 0.095780 0.884548 0.139424
C75   C     C_R   0.205571 0.751973 0.056705 -0.132089
C76   C     C_R   0.796708 0.243750 0.937796 -0.145795
H37   H     H_    0.235161 0.725779 0.080627 0.116995
H38   H     H_    0.767570 0.265518 0.907560 0.123554
C77   C     C_R   0.112764 0.690040 0.012787 0.129537
C78   C     C_R   0.888186 0.310618 0.988332 0.127010
C79   C     C_R   0.075365 0.725646 0.983158 -0.232732
C80   C     C_R   0.925127 0.281072 0.026521 -0.219821
H39   H     H_    0.003389 0.677721 0.949667 0.135312
H40   H     H_    0.996061 0.333094 0.065462 0.134269
C81   C     C_R   0.129862 0.822953 0.997236 0.221453
C82   C     C_R   0.871392 0.184866 0.014558 0.221493
C83   C     C_R   0.223090 0.884846 0.042572 -0.109422
C84   C     C_R   0.779635 0.117689 0.962190 -0.107972
C85   C     C_R   0.996052 0.585124 0.052538 -0.251818
C86   C     C_R   0.004003 0.414856 0.947549 -0.251055
H41   H     H_    0.994852 0.652400 0.095050 0.173294
H42   H     H_    0.005248 0.347587 0.905171 0.174592
C87   C     C_R   0.943001 0.496183 0.051311 -0.047593
C88   C     C_R   0.057117 0.503851 0.948816 -0.048568
C89   C     C_R   0.946449 0.409618 0.997713 0.008768
C90   C     C_R   0.053813 0.590533 0.002558 0.011151
C91   C     C_3   0.080165 0.707448 0.550492 -0.355692
C92   C     C_3   0.165398 0.787004 0.631888 -0.793624
H43   H     H_    0.149872 0.786060 0.690290 0.245943
H44   H     H_    0.216802 0.770314 0.617667 0.285314
H45   H     H_    0.193715 0.865854 0.649037 0.260040
H46   H     H_    0.096459 0.710830 0.493240 0.224779
H47   H     H_    0.030631 0.727047 0.566305 0.220346
C93   C     C_3   0.919956 0.292741 0.449527 -0.358802
C94   C     C_3   0.834754 0.213264 0.368125 -0.786475
H48   H     H_    0.783412 0.230068 0.382305 0.284604
H49   H     H_    0.850350 0.214153 0.309716 0.245321
H50   H     H_    0.806334 0.134426 0.351042 0.262907
H51   H     H_    0.969471 0.273110 0.433716 0.220422
H52   H     H_    0.903624 0.289344 0.506764 0.225567
N1    N     N_R   0.191600 0.140754 0.717909 0.183671
O27   O     O_R   0.175367 0.063857 0.639148 -0.416550
O28   O     O_R   0.274726 0.214111 0.770199 -0.423846
N2    N     N_R   0.806381 0.863329 0.285291 0.188184
O29   O     O_R   0.824521 0.939482 0.365486 -0.412912
O30   O     O_R   0.722979 0.794239 0.232944 -0.429879
C95   C     C_3   0.647049 0.777762 0.042771 -0.430966
C96   C     C_3   0.593927 0.821860 0.043723 -0.823354
H53   H     H_    0.616888 0.862307 0.010246 0.251744
H54   H     H_    0.520941 0.758782 0.009648 0.272140
H55   H     H_    0.604240 0.878688 0.113934 0.245564
H56   H     H_    0.623823 0.741420 0.079433 0.252213
H57   H     H_    0.719406 0.842583 0.080276 0.209104
C97   C     C_3   0.404662 0.224810 0.954619 -0.440211
C98   C     C_3   0.319658 0.122965 0.878313 -0.813257
H58   H     H_    0.288976 0.065897 0.895304 0.231710
H59   H     H_    0.269789 0.136352 0.864210 0.284676
H60   H     H_    0.337010 0.089417 0.817026 0.268295
H61   H     H_    0.440682 0.272489 0.929257 0.225978
H62   H     H_    0.449888 0.208094 0.973144 0.206209
N3    N     N_R   0.167518 0.575698 0.476726 0.203019
O31   O     O_R   0.181040 0.599884 0.419759 -0.403579
O32   O     O_R   0.232624 0.588111 0.522112 -0.421489
N4    N     N_R   0.832634 0.424481 0.523320 0.203264
O33   O     O_R   0.819133 0.400310 0.580296 -0.401961
O34   O     O_R   0.767519 0.412076 0.477956 -0.421645
C99   C     C_3   0.084614 0.856209 0.963378 -0.417772
C100  C     C_3   0.147338 0.962479 0.980284 -0.901391
H63   H     H_    0.180024 0.024303 0.053192 0.255059
H64   H     H_    0.199119 0.963688 0.947513 0.248365
H65   H     H_    0.107875 0.978356 0.951606 0.263864
H66   H     H_    0.049703 0.797339 0.890142 0.215940
H67   H     H_    0.032665 0.857136 0.995413 0.203819
C101  C     C_3   0.915659 0.158902 0.059019 -0.412429
C102  C     C_3   0.855140 0.051020 0.039648 -0.909784
H68   H     H_    0.797200 0.042421 0.064198 0.256307
H69   H     H_    0.830814 0.990626 0.966796 0.253456
H70   H     H_    0.894267 0.039804 0.074576 0.261622
H71   H     H_    0.974421 0.165218 0.036849 0.202754
H72   H     H_    0.941383 0.217574 0.132526 0.215254
C103  C     C_3   0.434886 0.290714 0.361234 -0.409956
C104  C     C_3   0.350515 0.212060 0.365710 -0.866285
H73   H     H_    0.364833 0.222814 0.430550 0.268197
H74   H     H_    0.295391 0.220994 0.357966 0.258497
H75   H     H_    0.327910 0.132195 0.310832 0.250445
H76   H     H_    0.419241 0.277631 0.295512 0.218133
H77   H     H_    0.488685 0.279345 0.367306 0.215992
C105  C     C_3   0.565168 0.708900 0.638564 -0.409096
C106  C     C_3   0.648860 0.787368 0.633236 -0.863802
H78   H     H_    0.704093 0.778294 0.639984 0.258431
H79   H     H_    0.633547 0.776533 0.568516 0.268468
H80   H     H_    0.671841 0.867305 0.688333 0.250097
H81   H     H_    0.511226 0.720307 0.633353 0.215806
H82   H     H_    0.581813 0.722113 0.704207 0.220182

loop_
_geom_bond_atom_site_label_1
_geom_bond_atom_site_label_2
_geom_bond_distance
_ccdc_geom_bond_type
C26   C28   1.536470 S    
Zn7   O21   1.935937 S    
C100  H64   1.109675 S    
C43   C45   1.395256 A    
C81   C83   1.411137 A    
N3    O32   1.300216 A    
N3    O31   1.300209 A    
C74   C76   1.394389 A    
C50   C52   1.396265 A    
C21   C26   1.541199 S    
C30   H10   1.110181 S    
C57   H27   1.083403 S    
C50   H22   1.084947 S    
Zn3   O7    1.932789 S    
C94   H49   1.110718 S    
C44   C46   1.394411 A    
N1    O27   1.301043 A    
Zn2   O20   1.936583 S    
C14   C20   1.542292 S    
C106  H78   1.110732 S    
C55   C65   1.393509 A    
C96   H55   1.110263 S    
O24   C2    1.272577 A    
C41   C54   1.485672 S    
C96   H54   1.109717 S    
C87   C89   1.412479 A    
C74   C84   1.397979 A    
O4    C2    1.288391 A    
C15   C91   1.529662 S    
C106  H80   1.110507 S    
C81   C99   1.516447 S    
C101  H71   1.111721 S    
O10   C8    1.277909 A    
C50   C53   1.379460 A    
N2    O30   1.301360 A    
C34   C36   1.537903 S    
C42   C53   1.484307 S    
C21   C23   1.548077 S    
Zn5   O9    1.934766 S    
O20   C6    1.274100 A    
C22   C24   1.547769 S    
C15   C20   1.554634 S    
C86   C88   1.397646 A    
C99   H67   1.111027 S    
C30   C36   1.551649 S    
O15   C9    1.269267 A    
N2    O29   1.301046 A    
C13   N3    1.458064 S    
C24   H4    1.109546 S    
C14   N4    1.458108 S    
C58   C60   1.404592 A    
C57   C59   1.404772 A    
C93   C94   1.525933 S    
C32   C105  1.528663 S    
C1    C52   1.446547 S    
C30   C33   1.540215 S    
H34   C84   1.080290 S    
C76   C78   1.399754 A    
C40   C42   1.421074 A    
O3    C1    1.288790 A    
H23   C65   1.082516 S    
C14   C17   1.533823 S    
C97   H62   1.111581 S    
C80   C82   1.404880 A    
C24   C27   1.549777 S    
O19   C5    1.274436 A    
C100  H63   1.110748 S    
C25   C27   1.535846 S    
Zn5   O25   1.923310 S    
Zn8   O14   1.950731 S    
C85   H41   1.084158 S    
Zn3   O11   1.954978 S    
C85   C87   1.397138 A    
C79   C81   1.404684 A    
C39   C41   1.420550 A    
C105  H82   1.110747 S    
C73   C75   1.393962 A    
H14   C48   1.082108 S    
C91   H47   1.110577 S    
C98   H60   1.110461 S    
C67   C72   1.375205 A    
C10   C69   1.433960 S    
C92   H44   1.109840 S    
C97   C98   1.527275 S    
C24   C26   1.538096 S    
C43   H17   1.083447 S    
C95   H57   1.111535 S    
C2    C51   1.447046 S    
Zn1   O17   1.955680 S    
C56   C66   1.394127 A    
C77   C79   1.402732 A    
C9    C70   1.432963 S    
C21   C27   1.549313 S    
O13   C11   1.272030 A    
C29   C35   1.551670 S    
C105  C106  1.525166 S    
C45   H19   1.082227 S    
C18   C20   1.551602 S    
C21   H5    1.109928 S    
C94   H50   1.110362 S    
C76   H38   1.083259 S    
C19   H1    1.110321 S    
C22   H6    1.109681 S    
Zn6   O10   1.934763 S    
C20   H2    1.110266 S    
C23   H3    1.110120 S    
C16   C19   1.554598 S    
C75   H37   1.083197 S    
C37   H15   1.082025 S    
C99   C100  1.527353 S    
Zn1   O1    1.941441 S    
C6    C87   1.453211 S    
C30   C32   1.541960 S    
C38   C40   1.407544 A    
C102  H70   1.110582 S    
C91   C92   1.526115 S    
C29   C31   1.541753 S    
C64   C66   1.396083 A    
C37   C39   1.407471 A    
C101  C102  1.528092 S    
O11   C9    1.273887 A    
C104  H75   1.110510 S    
C15   C17   1.542876 S    
C68   C71   1.373524 A    
Zn7   O13   1.950732 S    
C78   C89   1.476234 S    
C12   C17   1.472372 S    
O25   C3    1.288412 A    
Zn6   O26   1.923311 S    
C96   H53   1.110659 S    
C27   H7    1.109892 S    
C73   H35   1.081139 S    
C86   H42   1.084180 S    
C59   C72   1.483671 S    
Zn4   O8    1.932787 S    
C13   C18   1.533887 S    
Zn7   O3    1.925783 S    
C102  H68   1.110993 S    
Zn5   O1    1.953383 S    
C103  C104  1.525129 S    
Zn3   O1    1.948735 S    
C63   H29   1.080689 S    
C46   C48   1.394145 A    
C23   C28   1.550450 S    
C41   C43   1.405134 A    
C40   N2    1.440943 S    
C22   C25   1.540512 S    
C16   C18   1.542709 S    
C97   H61   1.108768 S    
Zn5   O15   1.952517 S    
C4    C25   1.498323 S    
C45   C47   1.394119 A    
Zn8   O4    1.925782 S    
Zn6   O16   1.952517 S    
C3    C26   1.499295 S    
C42   C44   1.404432 A    
C95   H56   1.108433 S    
C33   C35   1.538291 S    
Zn2   O18   1.955678 S    
C56   C58   1.396012 A    
C86   C89   1.386953 A    
C44   H18   1.083479 S    
C14   C16   1.534978 S    
O7    C5    1.279742 A    
C105  H81   1.110740 S    
Zn4   O24   1.927273 S    
O8    C6    1.280049 A    
C55   C57   1.395497 A    
C58   H28   1.083329 S    
C36   H12   1.109473 S    
C92   H43   1.110656 S    
O14   C12   1.271967 A    
N4    O34   1.300217 A    
O12   C10   1.276910 A    
C46   H20   1.081343 S    
C32   C35   1.543404 S    
C49   C54   1.380179 A    
C63   C65   1.395757 A    
C82   C101  1.516448 S    
C99   H66   1.111741 S    
O16   C10   1.266726 A    
C49   H21   1.084927 S    
C78   C80   1.402314 A    
Zn1   O5    1.929315 S    
H24   C66   1.082512 S    
C60   C62   1.422415 A    
O6    C4    1.283513 A    
Zn2   O2    1.941444 S    
O17   C11   1.273112 A    
C7    C34   1.463315 S    
C74   H36   1.081505 S    
C37   C47   1.396657 A    
C70   C72   1.410680 A    
C35   H11   1.110205 S    
C73   C83   1.397923 A    
C69   C71   1.414188 A    
C68   C70   1.398606 A    
C104  H74   1.110701 S    
C64   H30   1.082079 S    
H13   C47   1.082396 S    
O21   C7    1.277370 A    
O26   C4    1.287723 A    
O5    C3    1.283316 A    
Zn8   O2    1.951690 S    
C77   C90   1.477414 S    
C60   C71   1.486543 S    
C80   H40   1.084207 S    
C67   H31   1.084775 S    
Zn6   O2    1.953381 S    
C56   H26   1.082498 S    
C91   H46   1.110553 S    
C13   C15   1.535066 S    
C103  H77   1.110746 S    
C93   H52   1.110558 S    
C67   C69   1.398353 A    
C11   C18   1.472423 S    
C85   C90   1.387394 A    
C31   C103  1.528771 S    
C16   C93   1.529429 S    
Zn8   O22   1.935938 S    
C62   C64   1.407165 A    
C88   C90   1.412949 A    
C95   C96   1.526660 S    
C106  H79   1.110612 S    
C94   H48   1.109848 S    
C101  H72   1.111695 S    
C23   C25   1.538237 S    
Zn3   O23   1.927273 S    
C29   H9    1.110269 S    
C22   C28   1.549498 S    
C51   C53   1.417896 A    
C100  H65   1.110471 S    
C13   C19   1.542345 S    
C103  H76   1.110339 S    
C38   H16   1.081904 S    
C82   C84   1.411278 A    
C98   H59   1.108950 S    
C31   C36   1.542659 S    
C52   C54   1.418738 A    
O23   C1    1.271941 A    
C79   H39   1.084243 S    
C61   C95   1.514374 S    
C104  H73   1.110618 S    
Zn2   O6    1.929315 S    
O9    C7    1.278738 A    
C59   C61   1.419627 A    
C102  H69   1.110132 S    
C61   C63   1.406709 A    
O18   C12   1.273157 A    
C98   H58   1.108441 S    
Zn4   O12   1.954980 S    
Zn7   O1    1.951690 S    
N1    O28   1.301409 A    
N4    O33   1.300210 A    
H33   C83   1.080294 S    
C8    C33   1.462953 S    
C68   H32   1.084491 S    
C32   C34   1.531022 S    
C62   C97   1.516842 S    
Zn1   O19   1.936581 S    
C28   H8    1.109825 S    
C31   C33   1.531058 S    
O22   C8    1.278025 A    
C49   C51   1.396522 A    
C92   H45   1.110454 S    
C17   C19   1.551580 S    
C5    C88   1.453339 S    
Zn4   O2    1.948732 S    
C93   H51   1.110579 S    
C29   C34   1.540872 S    
C75   C77   1.400136 A    
C39   N1    1.440092 S    
C55   H25   1.081399 S    
C38   C48   1.396247 A    
