data_mof_unit_721.cif
_audit_creation_date              2012-12-11T15:54:04-0500
_audit_creation_method            fapswitch 2.2
_symmetry_space_group_name_H-M    P1
_symmetry_Int_Tables_number       1
_space_group_crystal_system       triclinic
_cell_length_a                    10.584464
_cell_length_b                    10.68859
_cell_length_c                    16.939322
_cell_angle_alpha                 80.959403
_cell_angle_beta                  98.893362
_cell_angle_gamma                 118.206066
_cell_volume                      1660.73150763

loop_
_atom_site_label
_atom_site_type_symbol
_atom_type_description
_atom_site_fract_x
_atom_site_fract_y
_atom_site_fract_z
_atom_type_partial_charge
C1    C     C_R   0.384560 0.285549 0.632056 0.552369
C2    C     C_1   0.334523 0.187859 0.781902 -0.056136
C3    C     C_1   0.335714 0.663744 0.277815 -0.061364
C4    C     C_R   0.368811 0.655166 0.585755 0.536977
C5    C     C_1   0.323423 0.672897 0.206871 -0.063901
C6    C     C_R   0.792867 0.646697 0.148541 -0.004135
C7    C     C_R   0.766077 0.517348 0.195306 -0.016400
C8    C     C_R   0.726723 0.493070 0.271845 0.063226
C9    C     C_R   0.707841 0.712280 0.252413 -0.150911
C10   C     C_R   0.748781 0.737352 0.174138 -0.129765
C11   C     C_3   0.859506 0.444153 0.218059 -0.202791
C12   C     C_R   0.391152 0.831500 0.673481 -0.135967
C13   C     C_3   0.818142 0.420024 0.302375 0.252763
C14   C     C_R   0.711891 0.596764 0.304374 -0.037649
C15   C     C_R   0.258769 0.051375 0.180077 -0.031401
C16   C     C_R   0.778020 0.619456 0.626523 0.552346
C17   C     C_R   0.155293 0.070733 0.211054 0.095246
C18   C     C_R   0.178917 0.110754 0.287162 0.000604
C19   C     C_R   0.397185 0.086466 0.311015 -0.125188
C20   C     C_R   0.372824 0.044771 0.233158 -0.152411
C21   C     C_3   0.086571 0.165411 0.178825 0.101671
C22   C     C_3   0.109855 0.207291 0.262925 -0.215921
C23   C     C_R   0.374512 0.853602 0.749655 -0.153108
C24   C     C_R   0.307289 0.133941 0.335001 -0.009119
C25   C     C_R   0.891033 0.701756 0.856056 0.546642
C26   C     C_R   0.281233 0.751418 0.883038 0.569723
C27   C     C_R   0.287182 0.119286 0.858621 0.549290
C28   C     C_R   0.349270 0.222080 0.400972 0.552890
C29   C     C_R   0.882159 0.688843 0.082384 0.546953
C30   C     C_R   0.313309 0.700570 0.123622 0.548302
C31   C     C_R   0.244948 0.036863 0.094914 0.570244
C32   C     C_R   0.365051 0.654175 0.360965 0.537662
C33   C     C_R   0.699792 0.582497 0.389943 0.565877
C34   C     C_3   0.123672 0.462154 0.791753 -0.247555
C35   C     C_R   0.278045 0.739543 0.798082 0.003723
C36   C     C_R   0.177887 0.616332 0.761890 0.018673
C37   C     C_R   0.195111 0.593844 0.686999 0.014912
C38   C     C_3   0.142997 0.437737 0.709551 -0.253348
C39   C     C_R   0.312478 0.694519 0.646002 0.013750
C40   C     C_1   0.823804 0.657259 0.705776 -0.035019
C41   C     C_1   0.850854 0.684793 0.773770 -0.035700
C42   C     C_1   0.365258 0.235013 0.714529 -0.057359
Cr1   Cr    Cr6+3 0.608440 0.389080 0.519680 1.048544
Cr2   Cr    Cr6+3 0.288640 0.400090 0.490760 1.021151
Cr3   Cr    Cr6+3 0.602940 0.710800 0.489510 1.037515
Cr4   Cr    Cr6+3 0.052530 0.947560 0.964210 1.040550
Cr5   Cr    Cr6+3 0.059970 0.626800 0.992920 1.001379
Cr6   Cr    Cr6+3 0.373320 0.938440 0.995370 1.019510
F1    F     F_    0.736905 0.277175 0.326299 -0.650341
H1    H     H_    0.476814 0.916585 0.640797 0.152313
H2    H     H_    0.009012 0.411299 0.804534 0.155587
H3    H     H_    0.197576 0.442427 0.840396 0.158818
H4    H     H_    0.228378 0.404915 0.711062 0.146932
H5    H     H_    0.039618 0.372389 0.675014 0.156451
H6    H     H_    0.685427 0.789233 0.273998 0.171999
H7    H     H_    0.757436 0.832361 0.136848 0.200773
H8    H     H_    0.976133 0.517215 0.213762 0.107772
H9    H     H_    0.904161 0.157088 0.135241 0.319897
H10   H     H_    0.817012 0.344225 0.188565 0.171059
H11   H     H_    0.910273 0.477798 0.346312 0.138173
H12   H     H_    0.491127 0.092412 0.349335 0.215251
H13   H     H_    0.449172 0.019159 0.212765 0.170969
H14   H     H_    0.148133 0.254917 0.134406 0.139811
H15   H     H_    0.186570 0.322071 0.267139 0.117941
H16   H     H_    0.008716 0.168722 0.291850 0.189308
H17   H     H_    0.445614 0.955179 0.773099 0.142639
O1    O     O_R   0.754020 0.497590 0.609930 -0.513317
O2    O     O_R   0.406180 0.826930 0.920660 -0.507088
O3    O     O_R   0.358620 0.062870 0.901950 -0.512081
O4    O     O_R   0.481420 0.271390 0.600630 -0.492017
O5    O     O_R   0.163910 0.085460 0.050210 -0.493781
O6    O     O_R   0.935200 0.815170 0.045770 -0.493009
O7    O     O_R   0.916120 0.596690 0.069430 -0.522159
O8    O     O_R   0.192310 0.631200 0.086170 -0.504098
O9    O     O_R   0.406770 0.819480 0.096420 -0.514819
O10   O     O_R   0.359170 0.055960 0.064880 -0.500384
O11   O     O_3   0.161940 0.837600 0.984160 -0.301665
O12   O     O_R   0.295080 0.533620 0.397890 -0.505182
O13   O     O_R   0.263810 0.254550 0.589590 -0.500466
O14   O     O_R   0.300820 0.531200 0.560890 -0.511223
O15   O     O_R   0.491480 0.744020 0.564270 -0.514197
O16   O     O_R   0.726290 0.693800 0.583010 -0.488140
O17   O     O_R   0.747830 0.500190 0.434090 -0.492076
O18   O     O_R   0.475680 0.273800 0.437630 -0.488177
O19   O     O_R   0.257620 0.257160 0.413750 -0.513489
O20   O     O_3   0.940672 0.086306 0.153740 -0.703879
O21   O     O_R   0.485280 0.746620 0.388440 -0.513205
O22   O     O_R   0.720550 0.696220 0.420010 -0.495390
O23   O     O_3   0.500010 0.499990 0.499980 -0.299207
O24   O     O_R   0.163320 0.092900 0.874450 -0.503335
O25   O     O_R   0.934650 0.822080 0.882840 -0.491547
O26   O     O_R   0.915520 0.604140 0.893670 -0.519791
O27   O     O_R   0.191760 0.638110 0.923230 -0.498974

loop_
_geom_bond_atom_site_label_1
_geom_bond_atom_site_label_2
_ccdc_geom_bond_type
C8    C13   S    
C28   O18   A    
Cr1   O17   S    
Cr5   O26   S    
Cr6   O10   S    
C19   C20   A    
Cr6   O3    S    
C14   C33   S    
C7    C8    A    
C13   H11   S    
C7    C11   S    
C12   C23   A    
C34   H2    S    
Cr1   O23   S    
C18   C24   A    
C23   H17   S    
C36   C37   A    
Cr3   O21   S    
C33   O22   A    
C19   H12   S    
C4    O14   A    
C30   O8    A    
C29   O7    A    
C27   O24   A    
C4    O15   A    
Cr3   O16   S    
C2    C27   S    
C9    H6    S    
Cr3   O23   S    
C9    C10   A    
Cr4   O6    S    
C27   O3    A    
C29   O6    A    
C26   O27   A    
C31   O5    A    
C34   C38   S    
C21   C22   S    
Cr1   O18   S    
Cr6   O9    S    
C11   H10   S    
H9    O20   S    
C15   C20   A    
C25   O25   A    
Cr2   O14   S    
Cr3   O22   S    
Cr5   O7    S    
C25   C41   S    
Cr4   O25   S    
C32   O21   A    
C22   H15   S    
C17   C21   S    
C35   C36   A    
Cr6   O11   S    
C9    C14   A    
C22   H16   S    
C37   C38   S    
C1    C42   S    
C38   H5    S    
C4    C39   S    
C16   O16   A    
C17   C18   A    
Cr5   O27   S    
C16   O1    A    
Cr6   O2    S    
C33   O17   A    
Cr4   O5    S    
C16   C40   S    
C13   F1    S    
C40   C41   T    
Cr1   O4    S    
C23   C35   A    
C1    O13   A    
Cr5   O11   S    
Cr2   O19   S    
C10   H7    S    
C5    C30   S    
C15   C17   A    
C21   O20   S    
C25   O26   A    
C8    C14   A    
C18   C22   S    
Cr2   O13   S    
Cr3   O15   S    
C24   C28   S    
Cr5   O8    S    
C3    C5    T    
C6    C10   A    
Cr4   O11   S    
C12   H1    S    
C15   C31   S    
C6    C7    A    
Cr4   O24   S    
C34   H3    S    
C1    O4    A    
C26   O2    A    
C12   C39   A    
Cr2   O12   S    
C19   C24   A    
C37   C39   A    
C30   O9    A    
C11   C13   S    
C31   O10   A    
C38   H4    S    
C2    C42   T    
C34   C36   S    
C20   H13   S    
C3    C32   S    
C21   H14   S    
C32   O12   A    
C26   C35   S    
C6    C29   S    
Cr1   O1    S    
C28   O19   A    
C11   H8    S    
Cr2   O23   S    
