data_mof_unit_3695.cif
_audit_creation_date              2012-12-11T14:10:45-0500
_audit_creation_method            fapswitch 2.2
_symmetry_space_group_name_H-M    P1
_symmetry_Int_Tables_number       1
_space_group_crystal_system       triclinic
_cell_length_a                    19.641164
_cell_length_b                    17.275889
_cell_length_c                    15.457985
_cell_angle_alpha                 90.032612
_cell_angle_beta                  52.628331
_cell_angle_gamma                 90.029917
_cell_volume                      4168.42274345

loop_
_atom_site_label
_atom_site_type_symbol
_atom_type_description
_atom_site_fract_x
_atom_site_fract_y
_atom_site_fract_z
_atom_type_partial_charge
C1    C     C_R   0.374821 0.197209 0.994604 -0.156486
C2    C     C_R   0.625086 0.802633 0.004764 -0.154353
C3    C     C_R   0.661559 0.174801 0.949630 -0.150509
C4    C     C_R   0.338482 0.824926 0.049364 -0.141759
C5    C     C_R   0.838233 0.674536 0.050035 -0.151130
C6    C     C_R   0.161333 0.324954 0.949797 -0.151630
C7    C     C_R   0.124810 0.697524 0.005302 -0.154424
C8    C     C_R   0.874948 0.302640 0.994605 -0.146060
C9    C     C_3   0.208096 0.191600 0.586935 -0.168738
C10   C     C_3   0.789892 0.807775 0.413944 -0.170063
C11   C     C_3   0.705920 0.238924 0.432950 -0.170631
C12   C     C_3   0.294118 0.760847 0.566861 -0.170438
C13   C     C_3   0.794426 0.739458 0.566767 -0.170557
C14   C     C_3   0.205757 0.260905 0.432927 -0.170230
C15   C     C_3   0.289782 0.692260 0.413935 -0.169984
C16   C     C_3   0.707913 0.308513 0.587161 -0.170170
C17   C     C_2   0.182954 0.747228 0.102943 -0.193720
C18   C     C_2   0.815366 0.253814 0.898317 -0.223709
C19   C     C_2   0.711412 0.686535 0.046583 -0.200712
C20   C     C_2   0.289563 0.313052 0.950237 -0.197934
C21   C     C_2   0.789651 0.186436 0.950553 -0.186699
C22   C     C_2   0.209119 0.814571 0.050263 -0.211117
C23   C     C_2   0.314841 0.245366 0.898557 -0.209095
C24   C     C_2   0.684145 0.753145 0.101009 -0.208428
C25   C     C_R   0.388777 0.803470 0.214005 -0.137033
C26   C     C_R   0.610072 0.196844 0.786456 -0.137706
C27   C     C_R   0.649716 0.826308 0.779034 -0.126109
C28   C     C_R   0.350382 0.173821 0.220888 -0.124971
C29   C     C_R   0.850482 0.326039 0.220909 -0.125999
C30   C     C_R   0.149644 0.673802 0.779080 -0.126281
C31   C     C_R   0.110180 0.303204 0.786319 -0.135028
C32   C     C_R   0.888902 0.696563 0.214002 -0.137037
C33   C     C_R   0.329090 0.911773 0.952435 0.035319
C34   C     C_R   0.671437 0.088775 0.046812 0.021973
C35   C     C_R   0.626126 0.885352 0.111948 0.012676
C36   C     C_R   0.371791 0.113232 0.890009 0.038182
C37   C     C_R   0.871943 0.386461 0.890092 0.027991
C38   C     C_R   0.125731 0.614785 0.112410 0.012063
C39   C     C_R   0.171422 0.410963 0.046848 0.022573
C40   C     C_R   0.829477 0.588511 0.951201 0.023129
C41   C     C_R   0.357723 0.081345 0.317157 -0.147505
C42   C     C_R   0.642401 0.918911 0.682915 -0.146450
C43   C     C_R   0.602086 0.105475 0.690427 -0.151669
C44   C     C_R   0.396343 0.894951 0.310364 -0.149755
C45   C     C_R   0.896425 0.605120 0.310333 -0.149281
C46   C     C_R   0.102399 0.394625 0.690248 -0.155778
C47   C     C_R   0.142316 0.581184 0.682879 -0.143555
C48   C     C_R   0.857847 0.418569 0.317210 -0.147896
C49   C     C_R   0.351179 0.187736 0.927867 0.132096
C50   C     C_R   0.647818 0.811310 0.072302 0.144626
C51   C     C_R   0.714400 0.148391 0.973987 0.135426
C52   C     C_R   0.285511 0.851770 0.025073 0.110166
C53   C     C_R   0.786073 0.648121 0.024325 0.135166
C54   C     C_R   0.214230 0.351196 0.974095 0.137399
C55   C     C_R   0.147098 0.688992 0.073352 0.140340
C56   C     C_R   0.851310 0.311798 0.927879 0.116227
C57   C     C_R   0.372243 0.820293 0.311751 0.046466
C58   C     C_R   0.625622 0.180326 0.689201 0.045164
C59   C     C_R   0.690712 0.858207 0.676882 0.032014
C60   C     C_R   0.309464 0.142085 0.323110 0.032405
C61   C     C_R   0.809639 0.357734 0.323174 0.033407
C62   C     C_R   0.190585 0.641964 0.676875 0.029947
C63   C     C_R   0.125919 0.319785 0.688983 0.036883
C64   C     C_R   0.872422 0.679792 0.311707 0.046299
C65   C     C_3   0.170655 0.155618 0.532310 -0.150758
C66   C     C_3   0.828250 0.844394 0.467082 -0.154429
C67   C     C_3   0.743372 0.203717 0.487408 -0.151745
C68   C     C_3   0.255567 0.796671 0.514073 -0.153325
C69   C     C_3   0.755857 0.703442 0.514054 -0.153139
C70   C     C_3   0.243412 0.296276 0.487104 -0.150002
C71   C     C_3   0.328126 0.655836 0.467144 -0.154412
C72   C     C_3   0.670677 0.344333 0.532248 -0.152783
C73   C     C_3   0.711275 0.779810 0.525601 -0.137917
C74   C     C_3   0.287449 0.219647 0.475944 -0.139591
C75   C     C_3   0.373670 0.733445 0.454025 -0.141807
C76   C     C_3   0.625579 0.266498 0.545022 -0.143023
C77   C     C_3   0.125525 0.233408 0.545137 -0.147519
C78   C     C_3   0.873908 0.766883 0.453902 -0.141745
C79   C     C_3   0.787381 0.280397 0.476293 -0.139857
C80   C     C_3   0.211092 0.720200 0.525570 -0.138049
C81   C     C_3   0.750033 0.815675 0.577667 0.185565
C82   C     C_3   0.249621 0.184419 0.422394 0.185313
C83   C     C_3   0.333842 0.768583 0.403216 0.185473
C84   C     C_3   0.664304 0.231958 0.597538 0.185860
C85   C     C_3   0.164461 0.268105 0.597358 0.186744
C86   C     C_3   0.834062 0.731550 0.403168 0.185258
C87   C     C_3   0.749750 0.315456 0.422468 0.185627
C88   C     C_3   0.249839 0.684530 0.577702 0.186204
H1    H     H_    0.381200 0.251240 0.024197 0.091361
H2    H     H_    0.618652 0.748862 0.974730 0.089830
H3    H     H_    0.671332 0.224019 0.900526 0.097363
H4    H     H_    0.328388 0.775650 0.098563 0.096626
H5    H     H_    0.828011 0.723837 0.099324 0.097546
H6    H     H_    0.170940 0.275728 0.900744 0.097258
H7    H     H_    0.118597 0.751294 0.975119 0.088489
H8    H     H_    0.881539 0.248692 0.024083 0.089623
H9    H     H_    0.387013 0.747074 0.185103 0.084314
H10   H     H_    0.611747 0.253215 0.815490 0.084381
H11   H     H_    0.667896 0.774985 0.800280 0.092894
H12   H     H_    0.332183 0.225013 0.199412 0.092619
H13   H     H_    0.832301 0.274807 0.199405 0.092485
H14   H     H_    0.167791 0.725137 0.800431 0.091172
H15   H     H_    0.111759 0.246806 0.815293 0.083985
H16   H     H_    0.887190 0.752950 0.185105 0.084234
H17   H     H_    0.346270 0.047772 0.383780 0.098511
H18   H     H_    0.653843 0.952611 0.616379 0.098908
H19   H     H_    0.597735 0.077814 0.631153 0.092362
H20   H     H_    0.400008 0.922586 0.370216 0.090698
H21   H     H_    0.900095 0.577521 0.370164 0.090929
H22   H     H_    0.098146 0.422290 0.630930 0.092992
H23   H     H_    0.153711 0.547516 0.616308 0.099315
H24   H     H_    0.846445 0.452173 0.383820 0.098518
H25   H     H_    0.643552 0.785610 0.556721 0.111815
H26   H     H_    0.354877 0.213537 0.445885 0.111719
H27   H     H_    0.441647 0.740455 0.421215 0.115974
H28   H     H_    0.557907 0.259272 0.576647 0.115571
H29   H     H_    0.057802 0.240610 0.576978 0.109090
H30   H     H_    0.941909 0.760000 0.421027 0.116303
H31   H     H_    0.854763 0.286569 0.446412 0.110813
H32   H     H_    0.143389 0.714266 0.556636 0.112028
H33   H     H_    0.142290 0.096987 0.547634 0.110413
H34   H     H_    0.856491 0.903141 0.451042 0.111007
H35   H     H_    0.772560 0.145349 0.470973 0.109715
H36   H     H_    0.226452 0.855133 0.531292 0.109523
H37   H     H_    0.726805 0.644933 0.531301 0.109890
H38   H     H_    0.272625 0.354661 0.470525 0.109887
H39   H     H_    0.356434 0.597138 0.451124 0.111276
H40   H     H_    0.642345 0.402948 0.547419 0.111149
H41   H     H_    0.208796 0.163969 0.651198 0.102428
H42   H     H_    0.788278 0.834934 0.350153 0.103090
H43   H     H_    0.705508 0.211386 0.368377 0.107065
H44   H     H_    0.295500 0.787913 0.630921 0.104647
H45   H     H_    0.795894 0.712504 0.630782 0.107775
H46   H     H_    0.205197 0.288317 0.368437 0.106536
H47   H     H_    0.288254 0.664994 0.350096 0.103264
H48   H     H_    0.708458 0.336265 0.651516 0.102416
H49   H     H_    0.203733 0.727979 0.150292 0.128391
H50   H     H_    0.794743 0.272718 0.850723 0.126331
H51   H     H_    0.689652 0.666829 0.000544 0.134836
H52   H     H_    0.313059 0.333681 0.993925 0.135706
H53   H     H_    0.812551 0.166167 0.995049 0.134437
H54   H     H_    0.185759 0.834945 0.006371 0.122968
H55   H     H_    0.293667 0.225793 0.851750 0.129446
H56   H     H_    0.703670 0.771722 0.150010 0.130320
N1    N     N_R   0.408680 0.130810 0.995780 -0.047407
N2    N     N_R   0.591320 0.869190 0.004220 -0.046034
N3    N     N_R   0.591320 0.130810 0.004220 -0.050607
N4    N     N_R   0.408680 0.869190 0.995780 -0.052417
N5    N     N_R   0.908680 0.630810 0.995780 -0.051360
N6    N     N_R   0.091320 0.369190 0.004220 -0.050746
N7    N     N_R   0.091320 0.630810 0.004220 -0.045705
N8    N     N_R   0.908680 0.369190 0.995780 -0.048201
N9    N     N_R   0.421410 0.867210 0.153620 -0.033673
N10   N     N_R   0.578590 0.132790 0.846380 -0.033992
N11   N     N_R   0.578590 0.867210 0.846380 -0.039678
N12   N     N_R   0.421410 0.132790 0.153620 -0.038837
N13   N     N_R   0.921410 0.367210 0.153620 -0.039136
N14   N     N_R   0.078590 0.632790 0.846380 -0.039569
N15   N     N_R   0.078590 0.367210 0.846380 -0.034313
N16   N     N_R   0.921410 0.632790 0.153620 -0.033483
N17   N     N_R   0.403840 0.921910 0.935760 -0.054108
N18   N     N_R   0.596160 0.078090 0.064240 -0.060150
N19   N     N_R   0.596160 0.921910 0.064240 -0.055364
N20   N     N_R   0.403840 0.078090 0.935760 -0.053495
N21   N     N_R   0.903840 0.421910 0.935760 -0.048325
N22   N     N_R   0.096160 0.578090 0.064240 -0.055183
N23   N     N_R   0.096160 0.421910 0.064240 -0.060354
N24   N     N_R   0.903840 0.578090 0.935760 -0.057284
N25   N     N_R   0.426250 0.076100 0.213650 -0.041777
N26   N     N_R   0.573750 0.923900 0.786350 -0.041666
N27   N     N_R   0.573750 0.076100 0.786350 -0.035694
N28   N     N_R   0.426250 0.923900 0.213650 -0.035103
N29   N     N_R   0.926250 0.576100 0.213650 -0.035139
N30   N     N_R   0.073750 0.423900 0.786350 -0.032145
N31   N     N_R   0.073750 0.576100 0.786350 -0.040219
N32   N     N_R   0.926250 0.423900 0.213650 -0.041776
Ni1   Ni    Ni4+2 0.500000 0.131570 0.000000 0.203438
Ni2   Ni    Ni4+2 0.500000 0.868430 0.000000 0.203457
Ni3   Ni    Ni4+2 1.000000 0.631570 0.000000 0.203549
Ni4   Ni    Ni4+2 1.000000 0.368430 0.000000 0.202569
Ni5   Ni    Ni4+2 0.488900 0.000000 0.862310 0.204320
Ni6   Ni    Ni4+2 0.511100 0.000000 0.137690 0.195673
Ni7   Ni    Ni4+2 0.988900 0.500000 0.862310 0.206980
Ni8   Ni    Ni4+2 0.011100 0.500000 0.137690 0.195400
N33   N     N_3   0.303230 0.951917 0.896307 -0.230613
H57   H     H_    0.297196 0.911505 0.850994 0.083166
H58   H     H_    0.242745 0.975706 0.954588 0.096581
N34   N     N_3   0.694201 0.058600 0.111796 -0.234219
H59   H     H_    0.639622 0.056260 0.192702 0.092040
H60   H     H_    0.721533 0.004253 0.081491 0.104601
N35   N     N_3   0.598639 0.903486 0.219186 -0.222390
H61   H     H_    0.652349 0.916114 0.215452 0.076328
H62   H     H_    0.558308 0.951634 0.248747 0.099963
N36   N     N_3   0.393330 0.091389 0.786727 -0.224693
H63   H     H_    0.429266 0.040368 0.760223 0.113461
H64   H     H_    0.336407 0.080864 0.797103 0.088778
N37   N     N_3   0.891599 0.410274 0.788609 -0.230828
H65   H     H_    0.938179 0.372758 0.728098 0.101427
H66   H     H_    0.836664 0.403033 0.793195 0.074419
N38   N     N_3   0.098313 0.596299 0.219502 -0.222337
H67   H     H_    0.058420 0.547839 0.248504 0.100076
H68   H     H_    0.152108 0.583970 0.215682 0.076153
N39   N     N_3   0.194761 0.441695 0.111004 -0.234073
H69   H     H_    0.221375 0.496260 0.080767 0.105116
H70   H     H_    0.140573 0.443658 0.192194 0.091406
N40   N     N_3   0.812193 0.562830 0.878648 -0.233450
H71   H     H_    0.870279 0.552573 0.802385 0.115016
H72   H     H_    0.776027 0.512206 0.910780 0.106129

loop_
_geom_bond_atom_site_label_1
_geom_bond_atom_site_label_2
_ccdc_geom_bond_type
C68   C80   S    
C78   C86   S    
N36   H64   S    
N39   H69   S    
C80   H32   S    
C3    N3    A    
C39   N39   S    
C18   C21   D    
N16   N29   A    
C1    N1    A    
C8    H8    S    
C16   C84   S    
N15   Ni4   S    
C72   C76   S    
C71   H39   S    
C16   C72   S    
C68   H36   S    
C47   C62   A    
C44   N28   A    
N8    N21   A    
C65   C82   S    
C73   H25   S    
C36   N20   A    
C33   C52   A    
C33   N33   S    
C12   C68   S    
C27   H11   S    
C34   C51   A    
C41   H17   S    
C4    C52   A    
N4    N17   A    
N31   Ni7   S    
C78   H30   S    
C6    C54   A    
N18   Ni6   S    
C77   H29   S    
C11   C76   S    
C10   C73   S    
C45   H21   S    
N33   H58   S    
C39   C54   A    
C15   H47   S    
C74   H26   S    
C13   C81   S    
N12   N25   A    
N5    Ni3   S    
C5    N5    A    
N2    Ni2   S    
C3    H3    S    
C14   C77   S    
C64   C86   S    
N37   H66   S    
C13   C69   S    
N4    Ni2   S    
N20   Ni5   S    
C42   N26   A    
C43   C58   A    
C9    C85   S    
N9    Ni2   S    
C37   C56   A    
C60   C82   S    
C26   C58   A    
C38   C55   A    
N23   Ni8   S    
N29   Ni8   S    
C11   C87   S    
N38   H67   S    
C6    H6    S    
N15   N30   A    
C79   H31   S    
C70   C74   S    
C1    H1    S    
C46   N30   A    
C69   C73   S    
C65   H33   S    
C61   C87   S    
C17   C55   S    
N11   Ni2   S    
C18   C56   S    
C4    H4    S    
C19   C53   S    
C10   C66   S    
C32   H16   S    
C77   C85   S    
C67   C84   S    
C79   C87   S    
C63   C85   S    
N19   Ni6   S    
C27   N11   A    
C8    C56   A    
C14   C70   S    
C23   H55   S    
N37   H65   S    
N5    N24   A    
C25   C57   A    
C74   C82   S    
C73   C81   S    
C11   C67   S    
C40   N40   S    
C44   H20   S    
C24   C50   S    
C66   C78   S    
C29   C61   A    
C76   C84   S    
C65   C77   S    
C12   C88   S    
C25   N9    A    
N35   H61   S    
N21   Ni7   S    
C75   C83   S    
C31   C63   A    
C67   C79   S    
C32   C64   A    
C20   C54   S    
C57   C83   S    
C43   N27   A    
N40   H71   S    
C37   N21   A    
C14   H46   S    
C70   H38   S    
C62   C88   S    
C35   N19   A    
C67   H35   S    
N34   H59   S    
N13   Ni4   S    
C31   H15   S    
N8    Ni4   S    
C33   N17   A    
N14   Ni3   S    
N35   H62   S    
N16   Ni3   S    
C45   N29   A    
N39   H70   S    
N12   Ni1   S    
N3    Ni1   S    
N7    Ni3   S    
C15   C80   S    
C20   C23   D    
C44   C57   A    
N24   Ni7   S    
N32   Ni8   S    
C22   H54   S    
C35   C50   A    
C66   H34   S    
C29   H13   S    
C43   H19   S    
C34   N34   S    
C42   H18   S    
C28   C60   A    
C30   H14   S    
C26   H10   S    
C7    N7    A    
C7    C55   A    
C25   H9    S    
C48   H24   S    
C18   H50   S    
C40   C53   A    
C37   N37   S    
C46   H22   S    
N26   Ni5   S    
C40   N24   A    
C38   N38   S    
C9    H41   S    
C26   N10   A    
C75   H27   S    
C9    C74   S    
C14   C82   S    
C16   H48   S    
C21   C51   S    
C72   C87   S    
C15   C71   S    
N6    Ni4   S    
C5    C53   A    
C2    C50   A    
C30   N14   A    
C47   N31   A    
C13   C78   S    
C10   C86   S    
C35   N35   S    
C2    H2    S    
C12   H44   S    
C8    N8    A    
C68   C83   S    
C13   H45   S    
N27   Ni5   S    
N22   Ni8   S    
C29   N13   A    
C59   C81   S    
C41   C60   A    
C34   N18   A    
N3    N18   A    
C11   H43   S    
C42   C59   A    
C5    H5    S    
N1    N20   A    
C38   N22   A    
C2    N2    A    
N7    N22   A    
C7    H7    S    
N2    N19   A    
C45   C64   A    
C17   C22   D    
C47   H23   S    
C46   C63   A    
N10   Ni1   S    
C16   C79   S    
C20   H52   S    
C36   N36   S    
C30   C62   A    
C19   C24   D    
C21   H53   S    
C80   C88   S    
C27   C59   A    
C66   C81   S    
C71   C75   S    
C70   C85   S    
N11   N26   A    
C28   H12   S    
N33   H57   S    
C41   N25   A    
C24   H56   S    
C15   C83   S    
N6    N23   A    
N9    N28   A    
C76   H28   S    
C3    C51   A    
N10   N27   A    
N36   H63   S    
C22   C52   S    
N40   H72   S    
N17   Ni5   S    
C58   C84   S    
C9    C65   S    
N25   Ni6   S    
N34   H60   S    
C23   C49   S    
C36   C49   A    
N13   N32   A    
C69   H37   S    
C71   C88   S    
C6    N6    A    
C39   N23   A    
N28   Ni6   S    
N14   N31   A    
N38   H68   S    
C10   H42   S    
C12   C75   S    
N1    Ni1   S    
C28   N12   A    
C48   C61   A    
C72   H40   S    
C17   H49   S    
C48   N32   A    
N30   Ni7   S    
C1    C49   A    
C19   H51   S    
C31   N15   A    
C69   C86   S    
C32   N16   A    
C4    N4    A    
