data_mof_unit_1156.cif
_audit_creation_date              2012-12-10T17:21:15-0500
_audit_creation_method            fapswitch 2.2
_symmetry_space_group_name_H-M    P1
_symmetry_Int_Tables_number       1
_space_group_crystal_system       triclinic
_cell_length_a                    9.669308
_cell_length_b                    10.847373
_cell_length_c                    13.867094
_cell_angle_alpha                 93.574305
_cell_angle_beta                  84.632875
_cell_angle_gamma                 87.716483
_cell_volume                      1443.75098615

loop_
_atom_site_label
_atom_site_type_symbol
_atom_type_description
_atom_site_fract_x
_atom_site_fract_y
_atom_site_fract_z
_atom_type_partial_charge
C1    C     C_R   0.497072 0.737789 0.495517 0.816410
C2    C     C_R   0.614133 0.930442 0.463854 -0.178646
C3    C     C_R   0.619494 0.058106 0.471891 -0.172325
C4    C     C_R   0.477129 0.500602 0.682716 0.894219
C5    C     C_R   0.504249 0.130174 0.514622 -0.030630
C6    C     C_R   0.880796 0.339536 0.366948 -0.196238
C7    C     C_R   0.963706 0.259829 0.300098 -0.037733
C8    C     C_R   0.107218 0.261882 0.299502 -0.214609
C9    C     C_R   0.167115 0.340938 0.364644 -0.146667
C10   C     C_R   0.086564 0.424017 0.432189 0.210999
C11   C     C_R   0.937682 0.423537 0.432755 0.183418
C12   C     C_1   0.463104 0.500410 0.786003 -0.088584
C13   C     C_R   0.913811 0.564683 0.570339 0.057326
C14   C     C_R   0.061585 0.563449 0.570922 0.020531
C15   C     C_R   0.501726 0.263411 0.505725 0.840848
C16   C     C_R   0.522872 0.499321 0.317266 0.773188
C17   C     C_1   0.536758 0.498746 0.213913 -0.096616
C18   C     C_2   0.556288 0.498272 0.023035 -0.285668
C19   C     C_2   0.441195 0.499904 0.976774 0.653872
C20   C     C_1   0.452146 0.500192 0.872974 -0.043828
C21   C     C_1   0.546957 0.498403 0.126901 0.138445
C22   C     C_2   0.900445 0.172197 0.232097 0.872033
C23   C     C_R   0.230371 0.907456 0.520935 -0.226991
C24   C     C_2   0.119364 0.621860 0.656501 0.900540
C25   C     C_2   0.972885 0.937640 0.565629 0.940333
C26   C     C_2   0.827651 0.630116 0.653026 0.909422
C27   C     C_R   0.116554 0.979642 0.568152 -0.198066
C28   C     C_R   0.141674 0.091195 0.618681 0.560593
C29   C     C_R   0.273882 0.137394 0.610074 0.535382
C30   C     C_R   0.382837 0.073011 0.549909 -0.133699
C31   C     C_R   0.367426 0.948340 0.520715 0.009429
C32   C     C_R   0.489876 0.873186 0.489929 -0.049926
Cu1   Cu    Cu3+1 0.359340 0.500010 0.500010 1.019790
Cu2   Cu    Cu3+1 0.640660 0.499990 0.499990 1.009559
F1    F     F_    0.312942 0.501421 0.026575 -0.615432
F2    F     F_    0.037778 0.159322 0.672448 -0.558164
F3    F     F_    0.295938 0.243136 0.663051 -0.603409
H1    H     H_    0.772045 0.330057 0.367487 0.218690
H2    H     H_    0.770966 0.960297 0.619529 0.361526
H3    H     H_    0.756676 0.632147 0.794697 0.326051
H4    H     H_    0.174421 0.200027 0.249648 0.207777
H5    H     H_    0.277162 0.329830 0.360830 0.199244
H6    H     H_    0.658519 0.497110 0.982971 0.149063
H7    H     H_    0.707003 0.876291 0.435196 0.207975
H8    H     H_    0.209046 0.822775 0.481316 0.235241
H9    H     H_    0.713740 0.100308 0.444541 0.175545
H10   H     H_    0.930331 0.036080 0.125159 0.356324
H11   H     H_    0.147964 0.613553 0.798268 0.346934
N1    N     N_R   0.852210 0.498790 0.499090 -0.234531
N2    N     N_R   0.148080 0.498710 0.499060 -0.234681
O1    O     O_R   0.381190 0.680360 0.500010 -0.577192
O2    O     O_R   0.985534 0.091139 0.167584 -0.730994
O3    O     O_2   0.177026 0.719372 0.651338 -0.607992
O4    O     O_R   0.105463 0.565057 0.744460 -0.664883
O5    O     O_2   0.948928 0.851826 0.509101 -0.625967
O6    O     O_R   0.864218 0.996813 0.627307 -0.659285
O7    O     O_2   0.769239 0.729713 0.643624 -0.585979
O8    O     O_R   0.816959 0.578699 0.743278 -0.708629
O9    O     O_R   0.618760 0.680340 0.500000 -0.544408
O10   O     O_R   0.364420 0.499990 0.637850 -0.519544
O11   O     O_R   0.601990 0.499960 0.637840 -0.572214
O12   O     O_R   0.381240 0.319660 0.500000 -0.578167
O13   O     O_R   0.618810 0.319640 0.499990 -0.605491
O14   O     O_R   0.398010 0.500040 0.362160 -0.593026
O15   O     O_R   0.635580 0.500010 0.362150 -0.595434
O16   O     O_2   0.773994 0.170416 0.232103 -0.615059

loop_
_geom_bond_atom_site_label_1
_geom_bond_atom_site_label_2
_ccdc_geom_bond_type
H10   O2    S    
C6    H1    S    
C6    C7    A    
C11   N1    A    
C23   C27   A    
Cu1   O1    S    
C7    C22   S    
C26   O8    S    
C9    C10   A    
C3    H9    S    
C31   C32   A    
C25   O6    S    
C5    C15   S    
C4    O10   A    
C19   C20   S    
Cu1   Cu2   S    
C24   O3    D    
C7    C8    A    
C19   F1    S    
C13   C14   A    
H11   O4    S    
C1    O1    A    
C12   C20   T    
C9    H5    S    
C29   C30   A    
C14   C24   S    
Cu1   O14   S    
C23   H8    S    
Cu2   O15   S    
C22   O2    S    
C28   C29   A    
C15   O12   A    
C2    C3    A    
Cu1   O10   S    
C1    O9    A    
C30   C31   A    
C26   O7    D    
C13   N1    A    
C13   C26   S    
Cu2   O13   S    
C25   C27   S    
C10   C11   A    
C14   N2    A    
C24   O4    S    
C23   C31   A    
C18   C21   S    
C25   O5    D    
C27   C28   A    
H3    O8    S    
C8    H4    S    
C28   F2    S    
C2    C32   A    
C18   C19   D    
C5    C30   A    
C29   F3    S    
C6    C11   A    
C15   O13   A    
C22   O16   D    
Cu2   N1    S    
C16   O15   A    
C16   O14   A    
C4    C12   S    
Cu1   N2    S    
C18   H6    S    
Cu2   O9    S    
Cu1   O12   S    
C4    O11   A    
Cu2   O11   S    
C17   C21   T    
C1    C32   S    
H2    O6    S    
C16   C17   S    
C2    H7    S    
C8    C9    A    
C3    C5    A    
C10   N2    A    
