data_mof_unit_511.cif
_audit_creation_date              2012-10-26T20:40:13-0400
_audit_creation_method            fapswitch 2.2
_symmetry_space_group_name_H-M    P1
_symmetry_Int_Tables_number       1
_space_group_crystal_system       triclinic
_cell_length_a                    15.047473
_cell_length_b                    10.932521
_cell_length_c                    9.602788
_cell_angle_alpha                 88.961245
_cell_angle_beta                  89.298471
_cell_angle_gamma                 94.366966
_cell_volume                      1574.73191577

loop_
_atom_site_label
_atom_site_type_symbol
_atom_type_description
_atom_site_fract_x
_atom_site_fract_y
_atom_site_fract_z
_atom_type_partial_charge
C1    C     C_R   0.502983 0.261860 0.501730 0.546014
C2    C     C_R   0.184046 0.452294 0.387471 -0.131101
C3    C     C_R   0.231929 0.497075 0.502279 -0.025724
C4    C     C_R   0.328791 0.498875 0.500759 0.546738
C5    C     C_R   0.187353 0.540002 0.618352 -0.134791
C6    C     C_R   0.477192 0.104639 0.766494 -0.109371
C7    C     C_R   0.435662 0.037857 0.877454 -0.135173
C8    C     C_R   0.397766 0.920093 0.857100 -0.117948
C9    C     C_R   0.408776 0.865018 0.729365 -0.087721
C10   C     C_R   0.456893 0.928608 0.619073 0.021779
C11   C     C_R   0.479968 0.055732 0.630305 0.009280
C12   C     C_R   0.907843 0.538524 0.619120 -0.038890
C13   C     C_R   0.505410 0.126221 0.506021 -0.002215
C14   C     C_R   0.523791 0.063028 0.381056 -0.012071
C15   C     C_R   0.514633 0.935798 0.382276 -0.156051
C16   C     C_R   0.492631 0.735927 0.499465 0.525326
C17   C     C_R   0.483980 0.868270 0.499201 -0.025582
C18   C     C_R   0.591152 0.708116 0.126724 0.061101
C19   C     C_R   0.598982 0.813871 0.040063 -0.151495
C20   C     C_R   0.612348 0.800176 0.899581 -0.169458
C21   C     C_R   0.598781 0.684948 0.844899 -0.086095
C22   C     C_R   0.549407 0.591445 0.920734 0.139763
C23   C     C_R   0.950412 0.398180 0.276195 -0.130683
C24   C     C_R   0.547773 0.596429 0.070172 0.162596
C25   C     C_R   0.452615 0.412378 0.076668 -0.018767
C26   C     C_R   0.451874 0.413249 0.928977 -0.019691
C27   C     C_R   0.671046 0.497091 0.499947 0.524124
C28   C     C_R   0.815306 0.539097 0.616788 -0.138239
C29   C     C_R   0.767676 0.493028 0.501935 -0.007950
C30   C     C_R   0.812436 0.441841 0.391302 -0.151129
C31   C     C_R   0.905082 0.443464 0.390205 0.019578
C32   C     C_R   0.953133 0.492254 0.504510 0.045145
C33   C     C_3   0.670613 0.712970 0.223813 -0.221465
C34   C     C_R   0.043157 0.401677 0.274860 -0.118684
C35   C     C_3   0.744574 0.639467 0.165569 -0.422071
C36   C     C_3   0.124567 0.755299 0.829207 -0.016663
C37   C     C_3   0.058532 0.839342 0.890720 -0.385353
C38   C     C_3   0.559011 0.124198 0.245301 -0.248685
C39   C     C_3   0.654346 0.180425 0.259778 -0.413000
C40   C     C_R   0.091417 0.449252 0.388201 0.016253
C41   C     C_R   0.046390 0.494295 0.504238 0.015676
C42   C     C_R   0.094521 0.541109 0.619755 0.008338
C43   C     C_R   0.048707 0.588073 0.733880 0.271656
C44   C     C_R   0.955629 0.584482 0.733529 -0.112090
Cu1   Cu    Cu3+1 0.499990 0.499990 0.640660 0.907122
Cu2   Cu    Cu3+1 0.500010 0.500010 0.359340 0.919209
H1    H     H_    0.780501 0.577175 0.703528 0.110992
H2    H     H_    0.623705 0.674736 0.741686 0.176468
H3    H     H_    0.775441 0.402456 0.305025 0.106474
H4    H     H_    0.411450 0.342878 0.876229 0.114824
H5    H     H_    0.914168 0.360964 0.187732 0.107641
H6    H     H_    0.077151 0.366890 0.185424 0.118800
H7    H     H_    0.218836 0.417990 0.298406 0.125634
H8    H     H_    0.225454 0.574455 0.706286 0.157176
H9    H     H_    0.920804 0.618281 0.822756 0.118004
H10   H     H_    0.720574 0.542008 0.152705 0.163848
H11   H     H_    0.767046 0.677488 0.061829 0.134576
H12   H     H_    0.511384 0.190312 0.794173 0.147088
H13   H     H_    0.802661 0.646832 0.235672 0.145161
H14   H     H_    0.701978 0.808163 0.232644 0.094940
H15   H     H_    0.653843 0.696238 0.333573 0.189321
H16   H     H_    0.139102 0.781582 0.717839 0.115364
H17   H     H_    0.188559 0.771125 0.884895 0.145917
H18   H     H_    0.043482 0.813024 0.001249 0.164563
H19   H     H_    0.087584 0.935806 0.885646 0.104105
H20   H     H_    0.995777 0.833090 0.830866 0.135098
H21   H     H_    0.659457 0.245132 0.347231 0.174158
H22   H     H_    0.699931 0.106886 0.279402 0.132643
H23   H     H_    0.432679 0.078014 0.979472 0.093806
H24   H     H_    0.675815 0.230621 0.162050 0.127791
H25   H     H_    0.559404 0.057568 0.160284 0.110681
H26   H     H_    0.514119 0.190585 0.203325 0.166682
H27   H     H_    0.362932 0.869558 0.941880 0.111791
H28   H     H_    0.378765 0.772757 0.717733 0.138212
H29   H     H_    0.533519 0.888149 0.290672 0.136172
H30   H     H_    0.412853 0.341268 0.133799 0.105410
H31   H     H_    0.622996 0.901663 0.080036 0.103152
H32   H     H_    0.639777 0.876749 0.835406 0.124199
N1    N     N_R   0.500860 0.501210 0.147910 -0.238999
N2    N     N_R   0.500890 0.501290 0.852040 -0.246457
O1    O     O_R   0.499990 0.319640 0.618810 -0.514965
O2    O     O_R   0.500000 0.319660 0.381240 -0.508290
O3    O     O_R   0.370250 0.499960 0.618800 -0.505269
O4    O     O_R   0.370260 0.499980 0.381230 -0.495355
O5    O     O_R   0.500000 0.680340 0.618760 -0.524592
O6    O     O_R   0.500010 0.680360 0.381190 -0.512037
O7    O     O_R   0.629740 0.500020 0.618770 -0.523028
O8    O     O_R   0.629750 0.500040 0.381200 -0.516247
O9    O     O_3   0.093714 0.630610 0.850396 -0.566993

loop_
_geom_bond_atom_site_label_1
_geom_bond_atom_site_label_2
_ccdc_geom_bond_type
C36   O9    S    
C15   H29   S    
C5    C42   A    
C28   H1    S    
C27   C29   S    
C41   C42   A    
C6    H12   S    
C19   C20   A    
C7    C8    A    
Cu1   Cu2   S    
C43   O9    S    
C12   C28   A    
C34   C40   A    
C28   C29   A    
Cu1   O7    S    
C26   H4    S    
C30   C31   A    
C10   C17   A    
C1    O1    A    
C35   H13   S    
C18   C19   A    
C39   H22   S    
C19   H31   S    
Cu2   O2    S    
Cu2   N1    S    
C8    C9    A    
C37   H19   S    
C32   C41   A    
C18   C24   A    
C36   H17   S    
C9    C10   A    
C21   H2    S    
C13   C14   A    
C12   C32   A    
C16   O6    A    
Cu1   O3    S    
C36   H16   S    
Cu2   O8    S    
C38   H26   S    
C5    H8    S    
C6    C11   A    
C16   C17   S    
C25   C26   A    
C26   N2    A    
C23   C31   A    
Cu1   O5    S    
C43   C44   A    
C29   C30   A    
C14   C38   S    
C24   N1    A    
C23   H5    S    
C31   C32   A    
C4    O4    A    
C23   C34   A    
C37   H20   S    
C27   O7    A    
Cu2   O4    S    
C40   C41   A    
C30   H3    S    
C33   H14   S    
C16   O5    A    
C22   C24   A    
C1    C13   S    
C9    H28   S    
C3    C4    S    
C37   H18   S    
C15   C17   A    
C38   H25   S    
C36   C37   S    
C35   H10   S    
C25   N1    A    
C39   H21   S    
Cu1   O1    S    
C3    C5    A    
C2    H7    S    
C7    H23   S    
C6    C7    A    
C34   H6    S    
C20   H32   S    
C35   H11   S    
C25   H30   S    
C2    C3    A    
C1    O2    A    
C22   N2    A    
C12   C44   A    
C11   C13   A    
C44   H9    S    
C38   C39   S    
C4    O3    A    
C8    H27   S    
C33   C35   S    
C39   H24   S    
Cu1   N2    S    
C27   O8    A    
C18   C33   S    
C10   C11   A    
C2    C40   A    
C20   C21   A    
C33   H15   S    
C42   C43   A    
C14   C15   A    
C21   C22   A    
Cu2   O6    S    
