data_mof_unit_679.cif
_audit_creation_date              2012-10-26T18:32:16-0400
_audit_creation_method            fapswitch 2.2
_symmetry_space_group_name_H-M    P1
_symmetry_Int_Tables_number       1
_space_group_crystal_system       triclinic
_cell_length_a                    12.319993
_cell_length_b                    13.098145
_cell_length_c                    15.828625
_cell_angle_alpha                 77.019117
_cell_angle_beta                  101.092681
_cell_angle_gamma                 116.541872
_cell_volume                      2214.21779773

loop_
_atom_site_label
_atom_site_type_symbol
_atom_type_description
_atom_site_fract_x
_atom_site_fract_y
_atom_site_fract_z
_atom_type_partial_charge
C1    C     C_R   0.855065 0.286271 0.506726 0.530287
C2    C     C_R   0.227826 0.836449 0.474265 -0.009295
C3    C     C_R   0.817335 0.080810 0.552759 -0.138454
C4    C     C_R   0.999931 0.500287 0.659570 0.538302
C5    C     C_R   0.740325 0.963792 0.562009 -0.165722
C6    C     C_R   0.616775 0.927392 0.533380 -0.098862
C7    C     C_R   0.567657 0.008279 0.494142 0.038708
C8    C     C_R   0.650379 0.124765 0.470641 0.010021
C9    C     C_R   0.440103 0.977030 0.473342 0.035873
C10   C     C_R   0.400309 0.056139 0.414576 0.006594
C11   C     C_R   0.485123 0.164545 0.381131 -0.140368
C12   C     C_3   0.960861 0.376562 0.064609 0.164394
C13   C     C_R   0.608199 0.198600 0.408712 -0.126006
C14   C     C_R   0.350284 0.871797 0.510737 0.246524
C15   C     C_R   0.190461 0.914641 0.415519 -0.195756
C16   C     C_R   0.144950 0.713824 0.488834 0.558983
C17   C     C_R   0.773703 0.162674 0.507894 -0.006734
C18   C     C_R   0.338742 0.317556 0.634249 0.238209
C19   C     C_R   0.762020 0.649188 0.384477 0.039506
C20   C     C_R   0.666464 0.682393 0.359033 -0.172010
C21   C     C_R   0.561471 0.625065 0.401998 -0.137802
C22   C     C_R   0.551090 0.533624 0.471717 -0.005961
C23   C     C_3   0.990233 0.500228 0.081196 0.109857
C24   C     C_R   0.652040 0.503395 0.495848 0.174163
C25   C     C_R   0.445445 0.472041 0.518806 -0.056289
C26   C     C_R   0.442157 0.380429 0.587818 0.027268
C27   C     C_R   0.542655 0.353894 0.610713 -0.175929
C28   C     C_R   0.000226 0.500201 0.340360 0.537227
C29   C     C_R   0.645324 0.414707 0.566505 -0.114856
C30   C     C_R   0.342630 0.497978 0.501087 0.026296
C31   C     C_R   0.243205 0.351012 0.615065 0.062338
C32   C     C_3   0.944635 0.377047 0.965062 -0.161927
C33   C     C_3   0.908712 0.559887 0.925888 0.217205
C34   C     C_3   0.118499 0.582586 0.051342 -0.325429
C35   C     C_3   0.893267 0.544569 0.026446 0.564971
C36   C     C_1   0.999350 0.499574 0.250686 -0.053516
C37   C     C_3   0.992060 0.502774 0.915439 0.002489
C38   C     C_3   0.877144 0.220105 0.176230 0.009318
C39   C     C_3   0.882492 0.116080 0.151294 -0.273431
C40   C     C_3   0.902044 0.034530 0.232074 -0.487423
C41   C     C_3   0.341832 0.799472 0.657591 0.019639
C42   C     C_3   0.441257 0.893119 0.707270 -0.275418
C43   C     C_3   0.409826 0.879672 0.799021 -0.494184
C44   C     C_3   0.289776 0.123695 0.670398 -0.005591
C45   C     C_3   0.122551 0.573364 0.956531 -0.318892
C46   C     C_3   0.149836 0.064371 0.661125 -0.274998
C47   C     C_3   0.101592 0.940560 0.644167 -0.479543
C48   C     C_3   0.774545 0.580747 0.800521 -0.009221
C49   C     C_3   0.638314 0.550017 0.778119 -0.248131
C50   C     C_3   0.614441 0.629517 0.697447 -0.477664
C51   C     C_3   0.691385 0.480270 0.073169 0.073779
C52   C     C_3   0.713483 0.478126 0.172141 -0.253021
C53   C     C_3   0.605476 0.476017 0.207414 -0.499953
C54   C     C_3   0.880433 0.730241 0.999331 -0.025457
C55   C     C_3   0.992101 0.841702 0.972978 -0.269991
C56   C     C_1   0.995659 0.499438 0.174554 -0.001830
C57   C     C_3   0.955529 0.925200 0.903044 -0.486817
C58   C     C_1   0.996365 0.502467 0.823900 -0.055046
C59   C     C_1   0.999207 0.501401 0.748918 -0.052355
C60   C     C_R   0.275956 0.025193 0.387936 -0.156551
Cu1   Cu    Cu3+1 0.098280 0.475420 0.519630 0.930627
Cu2   Cu    Cu3+1 0.901720 0.524580 0.480370 0.892300
H1    H     H_    0.995118 0.331506 0.950747 0.070501
H2    H     H_    0.846832 0.328499 0.942057 0.203886
H3    H     H_    0.669678 0.281706 0.377668 0.149658
H4    H     H_    0.164779 0.305954 0.651718 0.130818
H5    H     H_    0.543368 0.286220 0.664423 0.150527
H6    H     H_    0.336914 0.565419 0.449660 0.135240
H7    H     H_    0.843075 0.693838 0.350606 0.128254
H8    H     H_    0.490294 0.654254 0.379278 0.101421
H9    H     H_    0.673662 0.752525 0.305688 0.099338
H10   H     H_    0.718076 0.389541 0.590749 0.186467
H11   H     H_    0.959302 0.652899 0.900744 0.063736
H12   H     H_    0.042193 0.357911 0.091493 0.077285
H13   H     H_    0.182587 0.530489 0.955817 0.135342
H14   H     H_    0.163155 0.661686 0.918244 0.119402
H15   H     H_    0.190308 0.560449 0.094439 0.111348
H16   H     H_    0.800920 0.187995 0.217046 0.156659
H17   H     H_    0.961801 0.267777 0.217442 0.111964
H18   H     H_    0.795631 0.068107 0.112562 0.172382
H19   H     H_    0.958365 0.146246 0.110496 0.146256
H20   H     H_    0.989717 0.080129 0.270925 0.145889
H21   H     H_    0.905026 0.959962 0.211936 0.139622
H22   H     H_    0.826052 0.001357 0.273265 0.149472
H23   H     H_    0.140340 0.673413 0.055937 0.157041
H24   H     H_    0.323846 0.713632 0.698274 0.165167
H25   H     H_    0.254522 0.808906 0.647560 0.106258
H26   H     H_    0.529557 0.887161 0.712209 0.178200
H27   H     H_    0.451878 0.979672 0.671063 0.150203
H28   H     H_    0.319722 0.880900 0.796440 0.136359
H29   H     H_    0.480374 0.951901 0.831852 0.154281
H30   H     H_    0.407147 0.796825 0.837994 0.142240
H31   H     H_    0.324713 0.066801 0.718729 0.158863
H32   H     H_    0.324791 0.133837 0.607569 0.127169
H33   H     H_    0.115858 0.063284 0.721634 0.170210
H34   H     H_    0.095988 0.889038 0.388541 0.131248
H35   H     H_    0.113927 0.113495 0.605676 0.144944
H36   H     H_    0.135953 0.939333 0.584677 0.158792
H37   H     H_    0.000332 0.902032 0.634444 0.142683
H38   H     H_    0.130440 0.887337 0.700738 0.134073
H39   H     H_    0.808281 0.565257 0.746604 0.159120
H40   H     H_    0.821953 0.674600 0.804830 0.096629
H41   H     H_    0.589412 0.458957 0.766392 0.197724
H42   H     H_    0.601864 0.558129 0.834100 0.163127
H43   H     H_    0.655962 0.720032 0.710212 0.136806
H44   H     H_    0.514607 0.601746 0.680750 0.172900
H45   H     H_    0.456135 0.223922 0.333901 0.108553
H46   H     H_    0.653473 0.626015 0.641091 0.159322
H47   H     H_    0.599743 0.410662 0.058521 0.147236
H48   H     H_    0.684799 0.560078 0.037010 0.109870
H49   H     H_    0.727579 0.399763 0.204652 0.181337
H50   H     H_    0.796048 0.555812 0.188614 0.199260
H51   H     H_    0.592965 0.556222 0.179274 0.142220
H52   H     H_    0.622559 0.469906 0.279417 0.170261
H53   H     H_    0.520592 0.399758 0.191406 0.136629
H54   H     H_    0.827507 0.752919 0.035528 0.136198
H55   H     H_    0.818018 0.695999 0.941918 0.131536
H56   H     H_    0.245425 0.084774 0.342408 0.114579
H57   H     H_    0.039222 0.884170 0.031344 0.168168
H58   H     H_    0.058166 0.822520 0.948106 0.150346
H59   H     H_    0.912061 0.885954 0.842918 0.137301
H60   H     H_    0.037937 0.005866 0.886769 0.150772
H61   H     H_    0.890858 0.947358 0.926945 0.144352
H62   H     H_    0.911335 0.107202 0.580710 0.121927
H63   H     H_    0.563111 0.835313 0.538923 0.178542
H64   H     H_    0.776035 0.900941 0.593181 0.109567
N1    N     N_R   0.246300 0.438200 0.549400 -0.266543
N2    N     N_R   0.754300 0.561180 0.451130 -0.235105
O1    O     O_R   0.972520 0.318130 0.524690 -0.507177
O2    O     O_3   0.382142 0.800162 0.579478 -0.586696
O3    O     O_3   0.333727 0.229204 0.702717 -0.594191
O4    O     O_3   0.791414 0.508880 0.878758 -0.552909
O5    O     O_3   0.775279 0.453487 0.043250 -0.486688
O6    O     O_3   0.918189 0.649471 0.056976 -0.618836
O7    O     O_R   0.806530 0.359650 0.491530 -0.523908
O8    O     O_R   0.083030 0.479240 0.637150 -0.494445
O9    O     O_R   0.917040 0.520750 0.603990 -0.517127
O10   O     O_R   0.193470 0.640350 0.508470 -0.451246
O11   O     O_R   0.027480 0.681870 0.475310 -0.515210
O12   O     O_R   0.082960 0.479250 0.396010 -0.500063
O13   O     O_R   0.916970 0.520760 0.362850 -0.509294
O14   O     O_3   0.852533 0.291553 0.100761 -0.532490

loop_
_geom_bond_atom_site_label_1
_geom_bond_atom_site_label_2
_ccdc_geom_bond_type
C31   H4    S    
C8    C13   A    
C12   H12   S    
C27   C29   A    
C11   C13   A    
C15   C60   A    
C40   H22   S    
C19   C20   A    
C18   C26   A    
C31   N1    A    
C35   O5    S    
C49   H42   S    
C23   C56   S    
C55   H57   S    
C3    H62   S    
C44   O3    S    
C41   H24   S    
C12   C23   S    
C26   C27   A    
C47   H36   S    
C45   H14   S    
C1    O1    A    
C34   H15   S    
C41   O2    S    
Cu1   O10   S    
C38   H17   S    
C52   H50   S    
C54   O6    S    
C19   N2    A    
C47   H37   S    
C41   C42   S    
C24   C29   A    
C44   H31   S    
C57   H60   S    
C54   C55   S    
C46   H33   S    
C53   H51   S    
C22   C25   A    
C54   H54   S    
C5    H64   S    
C50   H43   S    
C20   H9    S    
C60   H56   S    
Cu2   O11   S    
C2    C16   S    
C9    C10   A    
C37   C58   S    
Cu1   O1    S    
C4    O8    A    
C29   H10   S    
C4    O9    A    
C51   H47   S    
C21   C22   A    
C12   C32   S    
C50   H46   S    
C38   O14   S    
C40   H21   S    
C18   O3    S    
C35   O6    S    
C44   C46   S    
C55   H58   S    
C38   C39   S    
C41   H25   S    
C43   H28   S    
C51   C52   S    
C40   H20   S    
C7    C8    A    
C27   H5    S    
C32   H2    S    
C39   C40   S    
C13   H3    S    
C38   H16   S    
C52   H49   S    
C25   C26   A    
C33   C37   S    
C47   H38   S    
C34   H23   S    
Cu2   O7    S    
C10   C60   A    
C9    C14   A    
C36   C56   T    
C57   H61   S    
C23   C34   S    
C48   H40   S    
Cu1   N1    S    
C34   C45   S    
C46   C47   S    
C32   C37   S    
C2    C15   A    
C39   H19   S    
C33   O4    S    
C33   H11   S    
C48   C49   S    
C46   H35   S    
C51   H48   S    
C23   C35   S    
C55   C57   S    
C11   H45   S    
C22   C24   A    
C19   H7    S    
C16   O11   A    
C42   H26   S    
C42   C43   S    
Cu2   O13   S    
C37   C45   S    
C15   H34   S    
C53   H52   S    
C24   N2    A    
C14   O2    S    
C25   C30   A    
C7    C9    A    
C30   N1    A    
C16   O10   A    
C43   H30   S    
C6    H63   S    
C28   O12   A    
C3    C5    A    
C49   H41   S    
Cu1   O12   S    
C6    C7    A    
C18   C31   A    
C32   H1    S    
C1    C17   S    
C8    C17   A    
C21   H8    S    
C45   H13   S    
C42   H27   S    
C39   H18   S    
C58   C59   T    
Cu2   N2    S    
C51   O5    S    
C5    C6    A    
C48   H39   S    
C4    C59   S    
C33   C35   S    
C12   O14   S    
C3    C17   A    
Cu2   O9    S    
Cu1   Cu2   S    
C2    C14   A    
C43   H29   S    
C44   H32   S    
C10   C11   A    
C57   H59   S    
C20   C21   A    
C28   C36   S    
C49   C50   S    
C54   H55   S    
C50   H44   S    
C48   O4    S    
C28   O13   A    
C1    O7    A    
C30   H6    S    
C53   H53   S    
Cu1   O8    S    
C52   C53   S    
