data_mof_unit_3131.cif
_audit_creation_date              2012-12-10T18:23:02-0500
_audit_creation_method            fapswitch 2.2
_symmetry_space_group_name_H-M    P1
_symmetry_Int_Tables_number       1
_space_group_crystal_system       triclinic
_cell_length_a                    15.02054
_cell_length_b                    14.061614
_cell_length_c                    10.721055
_cell_angle_alpha                 91.255934
_cell_angle_beta                  87.176356
_cell_angle_gamma                 88.448535
_cell_volume                      2260.23500569

loop_
_atom_site_label
_atom_site_type_symbol
_atom_type_description
_atom_site_fract_x
_atom_site_fract_y
_atom_site_fract_z
_atom_type_partial_charge
C1    C     C_R   0.327311 0.500992 0.492092 0.903824
C2    C     C_R   0.672882 0.499603 0.505524 0.905330
C3    C     C_R   0.952905 0.526766 0.494935 -0.005923
C4    C     C_R   0.046511 0.527533 0.490654 -0.001933
C5    C     C_R   0.908245 0.519786 0.382953 0.029315
C6    C     C_R   0.090374 0.547115 0.602030 0.024542
C7    C     C_R   0.950971 0.543188 0.721018 -0.043300
C8    C     C_R   0.048457 0.505318 0.263565 -0.040317
C9    C     C_R   0.038526 0.572234 0.712707 0.052973
C10   C     C_R   0.957515 0.531535 0.269012 0.050623
C11   C     C_R   0.567735 0.796161 0.440134 0.041280
C12   C     C_R   0.435093 0.206706 0.570622 0.035393
C13   C     C_R   0.432478 0.800775 0.561916 0.038900
C14   C     C_R   0.567647 0.196844 0.442186 0.048434
C15   C     C_R   0.424738 0.901460 0.550745 -0.057795
C16   C     C_R   0.577583 0.097836 0.465547 -0.065897
C17   C     C_R   0.577700 0.896212 0.461010 -0.059505
C18   C     C_R   0.426491 0.104866 0.564249 -0.063381
C19   C     C_R   0.501340 0.949699 0.508373 0.003922
C20   C     C_R   0.501218 0.050666 0.511467 0.012840
C21   C     C_R   0.344168 0.954777 0.580396 0.076627
C22   C     C_R   0.660870 0.045625 0.451765 0.068404
C23   C     C_R   0.660933 0.943308 0.446251 0.082400
C24   C     C_R   0.347810 0.054948 0.604473 0.068478
C25   C     C_R   0.504770 0.498618 0.256829 0.897731
C26   C     C_R   0.495200 0.501097 0.743260 0.908112
C27   C     C_3   0.435503 0.555612 0.054357 0.097835
C28   C     C_3   0.563901 0.442021 0.945792 0.104835
C29   C     C_3   0.510925 0.588781 0.964289 0.114557
C30   C     C_3   0.488625 0.409252 0.036302 0.109298
C31   C     C_3   0.418865 0.468483 0.968474 -0.218903
C32   C     C_3   0.580984 0.529223 0.031902 -0.216362
C33   C     C_3   0.494802 0.502115 0.878869 -0.103676
C34   C     C_3   0.504779 0.496129 0.121435 -0.106835
C35   C     C_R   0.817042 0.499891 0.389287 -0.061072
C36   C     C_R   0.183043 0.534414 0.600687 -0.068750
C37   C     C_R   0.769281 0.501761 0.504645 -0.158225
C38   C     C_R   0.230730 0.505129 0.490995 -0.154104
C39   C     C_R   0.811127 0.525627 0.614479 -0.074659
C40   C     C_R   0.187822 0.484870 0.380620 -0.090041
C41   C     C_R   0.904515 0.530141 0.611598 0.013000
C42   C     C_R   0.095116 0.503989 0.376308 0.010801
H1    H     H_    0.354070 0.438873 0.946227 0.185217
H2    H     H_    0.646243 0.555943 0.058348 0.174852
N1    N     N_R   0.500000 0.750030 0.500000 -0.153253
N2    N     N_R   0.500000 0.249970 0.500000 -0.147909
O1    O     O_R   0.367850 0.580280 0.500030 -0.623054
O2    O     O_R   0.632150 0.419720 0.499970 -0.619772
O3    O     O_R   0.632150 0.580280 0.499970 -0.620660
O4    O     O_R   0.367850 0.419720 0.500030 -0.613820
O5    O     O_R   0.499970 0.580260 0.313950 -0.633303
O6    O     O_R   0.500030 0.419740 0.686050 -0.636305
O7    O     O_R   0.500030 0.580260 0.686050 -0.628145
O8    O     O_R   0.499970 0.419740 0.313950 -0.626767
Zn1   Zn    Zn3+2 0.500000 0.607200 0.500000 0.952000
Zn2   Zn    Zn3+2 0.500000 0.392800 0.500000 0.959147
C43   C     C_3   0.365606 0.619963 0.127711 -0.389402
C44   C     C_3   0.282375 0.639641 0.055961 -0.337097
C45   C     C_3   0.213806 0.699559 0.134842 -0.927090
H3    H     H_    0.199658 0.665880 0.226176 0.277478
H4    H     H_    0.239050 0.772126 0.150569 0.267004
H5    H     H_    0.150358 0.704914 0.086370 0.261286
H6    H     H_    0.300076 0.677097 0.968661 0.243131
H7    H     H_    0.252184 0.571114 0.033177 0.260759
H8    H     H_    0.345102 0.584737 0.215568 0.208475
H9    H     H_    0.395695 0.688148 0.154009 0.206740
C46   C     C_3   0.631187 0.375280 0.871104 -0.405287
C47   C     C_3   0.709998 0.345011 0.945863 -0.328159
C48   C     C_3   0.772916 0.275878 0.871104 -0.860447
H10   H     H_    0.738478 0.208730 0.851804 0.252392
H11   H     H_    0.795965 0.307749 0.781679 0.270483
H12   H     H_    0.831971 0.259200 0.925866 0.264011
H13   H     H_    0.746613 0.409343 0.969243 0.266001
H14   H     H_    0.686485 0.310495 0.032590 0.247098
H15   H     H_    0.596912 0.311317 0.838373 0.211408
H16   H     H_    0.656774 0.411727 0.786709 0.211649
C49   C     C_3   0.521761 0.691682 0.921500 -0.384575
C50   C     C_3   0.566249 0.754066 0.017955 -0.347713
C51   C     C_3   0.567504 0.857688 0.978597 -0.892992
H17   H     H_    0.604589 0.863688 0.886966 0.262258
H18   H     H_    0.498374 0.886452 0.971368 0.263314
H19   H     H_    0.601021 0.900913 0.049422 0.253617
H20   H     H_    0.530396 0.750479 0.110494 0.229688
H21   H     H_    0.636088 0.728195 0.026916 0.237181
H22   H     H_    0.563616 0.691965 0.833443 0.234746
H23   H     H_    0.455006 0.722296 0.903142 0.210922
C52   C     C_3   0.476125 0.306420 0.079011 -0.374584
C53   C     C_3   0.430694 0.244558 0.982642 -0.357092
C54   C     C_3   0.430632 0.140462 0.020028 -0.891809
H24   H     H_    0.500087 0.112020 0.024752 0.264359
H25   H     H_    0.394916 0.133252 0.112418 0.267523
H26   H     H_    0.396363 0.097769 0.949407 0.248310
H27   H     H_    0.360517 0.269972 0.975372 0.240231
H28   H     H_    0.465361 0.249064 0.889507 0.226277
H29   H     H_    0.542134 0.274490 0.097572 0.211469
H30   H     H_    0.434575 0.306766 0.167306 0.235342
C55   C     C_1   0.771792 0.471501 0.280145 0.192868
N3    N     N_1   0.734292 0.448682 0.193810 -0.251174
C56   C     C_1   0.229384 0.532187 0.714656 0.218017
N4    N     N_1   0.267944 0.529289 0.804661 -0.254264
C57   C     C_1   0.758112 0.560161 0.723666 0.139606
N5    N     N_1   0.716833 0.589291 0.810750 -0.245118
C58   C     C_1   0.239139 0.437521 0.278375 0.155795
N6    N     N_1   0.280105 0.398778 0.197421 -0.229489
C59   C     C_1   0.920805 0.502204 0.837111 0.170058
N7    N     N_1   0.898916 0.466749 0.929286 -0.237056
C60   C     C_1   0.089355 0.480502 0.141573 0.172562
N8    N     N_1   0.120025 0.459659 0.043286 -0.217973
C61   C     C_3   0.067300 0.641878 0.813296 -0.406328
C62   C     C_3   0.093860 0.736502 0.755526 -0.338457
C63   C     C_3   0.116057 0.810651 0.854406 -0.904650
H31   H     H_    0.061397 0.818431 0.927859 0.262195
H32   H     H_    0.179197 0.790046 0.897377 0.278031
H33   H     H_    0.124886 0.880643 0.810142 0.244112
H34   H     H_    0.152925 0.724518 0.690615 0.239433
H35   H     H_    0.038086 0.764979 0.701571 0.228546
H36   H     H_    0.010611 0.658140 0.881620 0.195386
H37   H     H_    0.120432 0.612023 0.869517 0.225266
C64   C     C_3   0.920408 0.591957 0.165640 -0.389028
C65   C     C_3   0.896914 0.693531 0.213436 -0.370047
C66   C     C_3   0.863246 0.755261 0.109247 -0.872110
H38   H     H_    0.915812 0.761097 0.033572 0.254621
H39   H     H_    0.803186 0.724175 0.069913 0.272534
H40   H     H_    0.845413 0.827788 0.147017 0.245724
H41   H     H_    0.844149 0.691685 0.289327 0.244635
H42   H     H_    0.956834 0.726158 0.251486 0.225151
H43   H     H_    0.970056 0.597826 0.086408 0.206688
H44   H     H_    0.861309 0.560848 0.126066 0.231177
C67   C     C_1   0.622429 0.742080 0.348497 0.220701
N9    N     N_1   0.665645 0.697844 0.274769 -0.251226
C68   C     C_1   0.380808 0.267712 0.654593 0.243513
N10   N     N_1   0.337556 0.317309 0.722266 -0.231680
C69   C     C_1   0.377624 0.751823 0.651456 0.225735
N11   N     N_1   0.333995 0.713252 0.725089 -0.251886
C70   C     C_1   0.620889 0.240078 0.345368 0.193414
N12   N     N_1   0.664689 0.273314 0.267256 -0.234484
C71   C     C_3   0.253506 0.907611 0.568981 -0.444369
C72   C     C_3   0.241649 0.864848 0.437764 -0.321294
C73   C     C_3   0.149347 0.822303 0.428357 -0.911957
H45   H     H_    0.147169 0.752711 0.475054 0.264474
H46   H     H_    0.096258 0.870815 0.471337 0.259752
H47   H     H_    0.134533 0.810997 0.329060 0.256923
H48   H     H_    0.249014 0.922020 0.368278 0.219971
H49   H     H_    0.292966 0.808325 0.413479 0.231770
H50   H     H_    0.242452 0.854495 0.641455 0.213100
H51   H     H_    0.196636 0.958188 0.584762 0.209182
C74   C     C_3   0.748584 0.098221 0.464263 -0.412605
C75   C     C_3   0.786009 0.087001 0.594236 -0.349678
C76   C     C_3   0.873317 0.139235 0.604732 -0.895371
H52   H     H_    0.924808 0.108773 0.536147 0.264340
H53   H     H_    0.863133 0.216278 0.587314 0.268539
H54   H     H_    0.897750 0.131270 0.700134 0.255205
H55   H     H_    0.736213 0.116607 0.665730 0.222337
H56   H     H_    0.798768 0.011666 0.615930 0.239167
H57   H     H_    0.797935 0.076449 0.387866 0.190879
H58   H     H_    0.741061 0.175589 0.455337 0.217216
C77   C     C_3   0.749384 0.884977 0.439802 -0.438180
C78   C     C_3   0.760309 0.823947 0.556688 -0.323625
C79   C     C_3   0.857318 0.792421 0.571530 -0.898198
H59   H     H_    0.882838 0.748621 0.489544 0.263225
H60   H     H_    0.899836 0.855226 0.581989 0.254076
H61   H     H_    0.861901 0.748974 0.656351 0.261897
H62   H     H_    0.736164 0.864762 0.642218 0.214591
H63   H     H_    0.720195 0.759133 0.551346 0.241653
H64   H     H_    0.755983 0.840489 0.353736 0.198361
H65   H     H_    0.808266 0.929594 0.428966 0.215125
C80   C     C_3   0.267431 0.104445 0.673867 -0.425586
C81   C     C_3   0.207465 0.158619 0.584956 -0.325730
C82   C     C_3   0.130214 0.211436 0.656720 -0.848066
H66   H     H_    0.087982 0.160387 0.708558 0.253761
H67   H     H_    0.155758 0.264272 0.723653 0.278487
H68   H     H_    0.088447 0.249713 0.590244 0.252906
H69   H     H_    0.246119 0.210527 0.529638 0.232131
H70   H     H_    0.179713 0.108248 0.516856 0.213904
H71   H     H_    0.226987 0.053204 0.727788 0.184797
H72   H     H_    0.288538 0.149132 0.752300 0.202188

loop_
_geom_bond_atom_site_label_1
_geom_bond_atom_site_label_2
_ccdc_geom_bond_type
C38   C40   A    
C52   C53   S    
C26   O7    A    
C77   C78   S    
C12   C68   S    
C27   C29   S    
C82   H66   S    
C19   C20   A    
C21   C71   S    
C43   H9    S    
C6    C9    A    
C55   N3    T    
C61   H36   S    
C70   N12   T    
C39   C41   A    
C49   C50   S    
C15   C19   A    
C17   C23   A    
C31   H1    S    
C18   C24   A    
O1    Zn1   S    
C35   C37   A    
C8    C42   A    
C29   C32   S    
C53   C54   S    
C72   H48   S    
C76   H53   S    
C30   C31   S    
C73   H47   S    
C65   H42   S    
C14   C70   S    
C47   H14   S    
C29   C33   S    
O2    Zn2   S    
C48   H11   S    
C62   C63   S    
C66   H40   S    
C10   C64   S    
C74   C75   S    
O6    Zn2   S    
C76   H52   S    
C50   H20   S    
C11   C17   A    
C63   H31   S    
C47   C48   S    
C52   H29   S    
C60   N8    T    
C79   H60   S    
C54   H25   S    
C74   H57   S    
C1    O4    A    
C23   C77   S    
C18   C20   A    
C78   H63   S    
C25   C34   S    
C64   H44   S    
C40   C42   A    
C49   H22   S    
C45   H3    S    
C9    C61   S    
C82   H67   S    
C63   H33   S    
C75   H56   S    
C30   C52   S    
C11   C67   S    
C61   H37   S    
C39   C57   S    
C53   H28   S    
O7    Zn1   S    
C27   C34   S    
C44   H7    S    
C81   H69   S    
C73   H45   S    
O8    Zn2   S    
C45   H4    S    
C30   C34   S    
C27   C31   S    
C46   C47   S    
C57   N5    T    
C71   H51   S    
C28   C32   S    
C24   C80   S    
C75   C76   S    
C12   N2    A    
C27   C43   S    
C76   H54   S    
C77   H64   S    
C80   C81   S    
C51   H18   S    
C50   C51   S    
C1    O1    A    
C2    O2    A    
C47   H13   S    
O3    Zn1   S    
O4    Zn2   S    
C14   N2    A    
C32   C34   S    
C48   H12   S    
C81   H70   S    
C25   O5    A    
C2    O3    A    
C26   O6    A    
C26   C33   S    
C79   H59   S    
C16   C20   A    
C52   H30   S    
C28   C46   S    
C31   C33   S    
C32   H2    S    
C79   H61   S    
C63   H32   S    
C25   O8    A    
C54   H26   S    
C74   H58   S    
C66   H38   S    
C78   H62   S    
C1    C38   S    
C4    C6    A    
C81   C82   S    
C49   H23   S    
C13   C15   A    
C78   C79   S    
C82   H68   S    
C14   C16   A    
C11   N1    A    
C46   H15   S    
C75   H55   S    
C12   C18   A    
C3    C4    A    
C8    C60   S    
C62   H35   S    
C65   C66   S    
C80   H71   S    
C67   N9    T    
C59   N7    T    
C71   H50   S    
C44   H6    S    
C7    C9    A    
C53   H27   S    
C3    C41   A    
C45   H5    S    
C16   C22   A    
C65   H41   S    
C13   C69   S    
C43   H8    S    
C3    C5    A    
C77   H65   S    
C28   C33   S    
C51   H19   S    
C64   C65   S    
C71   C72   S    
C56   N4    T    
C28   C30   S    
C44   C45   S    
C5    C10   A    
C37   C39   A    
C72   H49   S    
C61   C62   S    
C40   C58   S    
C13   N1    A    
C73   H46   S    
C2    C37   S    
C43   C44   S    
C69   N11   T    
C4    C42   A    
C5    C35   A    
C36   C38   A    
C17   C19   A    
C6    C36   A    
C7    C59   S    
C36   C56   S    
O5    Zn1   S    
C7    C41   A    
C48   H10   S    
C66   H39   S    
C72   C73   S    
C51   H17   S    
C50   H21   S    
C15   C21   A    
C29   C49   S    
C22   C74   S    
N1    Zn1   S    
C8    C10   A    
C21   C24   A    
N2    Zn2   S    
C58   N6    T    
C22   C23   A    
C46   H16   S    
C54   H24   S    
C35   C55   S    
C62   H34   S    
C68   N10   T    
C80   H72   S    
C64   H43   S    
