data_mof_unit_2507.cif
_audit_creation_date              2012-10-26T20:32:59-0400
_audit_creation_method            fapswitch 2.2
_symmetry_space_group_name_H-M    P1
_symmetry_Int_Tables_number       1
_space_group_crystal_system       triclinic
_cell_length_a                    27.797598
_cell_length_b                    10.814312
_cell_length_c                    9.579888
_cell_angle_alpha                 89.868218
_cell_angle_beta                  90.996092
_cell_angle_gamma                 91.66158
_cell_volume                      2878.17776981

loop_
_atom_site_label
_atom_site_type_symbol
_atom_type_description
_atom_site_fract_x
_atom_site_fract_y
_atom_site_fract_z
_atom_type_partial_charge
C1    C     C_R   0.501172 0.262606 0.500239 0.539354
C2    C     C_R   0.972633 0.396635 0.442180 0.017825
C3    C     C_R   0.975601 0.608927 0.537741 0.017905
C4    C     C_R   0.407494 0.500029 0.498940 0.547628
C5    C     C_R   0.948856 0.502546 0.490635 0.033689
C6    C     C_R   0.944117 0.295336 0.391159 -0.141748
C7    C     C_R   0.894197 0.296356 0.392237 -0.113357
C8    C     C_R   0.870548 0.398408 0.443430 0.024997
C9    C     C_R   0.897673 0.501978 0.492215 -0.027091
C10   C     C_R   0.873468 0.604889 0.542777 0.025348
C11   C     C_R   0.822938 0.602064 0.544376 0.397916
C12   C     C_R   0.278900 0.500871 0.620032 -0.057837
C13   C     C_R   0.820085 0.399561 0.446221 0.396496
C14   C     C_R   0.721265 0.419038 0.590951 -0.035546
C15   C     C_R   0.670574 0.414571 0.593966 -0.017081
C16   C     C_R   0.500747 0.737721 0.499970 0.543436
C17   C     C_R   0.670132 0.573996 0.412108 -0.162335
C18   C     C_R   0.720118 0.576047 0.410238 -0.065506
C19   C     C_R   0.745804 0.498948 0.499657 0.222550
C20   C     C_R   0.023790 0.395433 0.445709 0.018095
C21   C     C_R   0.050522 0.503072 0.489059 0.033990
C22   C     C_R   0.026728 0.610630 0.532647 0.017933
C23   C     C_R   0.253553 0.502036 0.492521 0.244088
C24   C     C_R   0.049434 0.289516 0.408352 -0.141602
C25   C     C_R   0.105122 0.715796 0.568003 -0.111933
C26   C     C_R   0.950006 0.709936 0.589627 -0.141874
C27   C     C_R   0.900054 0.707774 0.591706 -0.113704
C28   C     C_R   0.592290 0.497880 0.501233 0.532285
C29   C     C_R   0.055195 0.716750 0.569326 -0.141281
C30   C     C_R   0.500845 0.063674 0.625449 0.018721
C31   C     C_R   0.506338 0.130026 0.501563 0.008906
C32   C     C_R   0.518474 0.066485 0.380064 -0.159225
C33   C     C_R   0.518113 0.937497 0.380054 -0.159996
C34   C     C_R   0.101710 0.503073 0.489074 -0.027073
C35   C     C_R   0.505375 0.871401 0.501086 0.004269
C36   C     C_R   0.500043 0.936366 0.625241 0.006956
C37   C     C_3   0.460469 0.928853 0.728946 -0.262061
C38   C     C_3   0.462071 0.069135 0.730518 -0.269151
C39   C     C_R   0.536939 0.555134 0.075114 0.143563
C40   C     C_R   0.176477 0.398271 0.450598 0.397802
C41   C     C_R   0.467013 0.428859 0.070115 0.114803
C42   C     C_R   0.466342 0.434562 0.921761 0.010597
C43   C     C_R   0.537779 0.552610 0.928402 0.150506
C44   C     C_3   0.556805 0.683745 0.921680 -0.129460
C45   C     C_R   0.125942 0.396559 0.449079 0.024549
C46   C     C_3   0.553457 0.686869 0.080814 -0.266634
C47   C     C_R   0.179302 0.607358 0.529295 0.398462
C48   C     C_R   0.278623 0.502522 0.367053 -0.055941
C49   C     C_R   0.328788 0.502119 0.368945 -0.147050
C50   C     C_R   0.329052 0.499932 0.622245 -0.145990
C51   C     C_3   0.429480 0.341585 0.133401 -0.253440
C52   C     C_3   0.433319 0.208732 0.081142 -0.467175
C53   C     C_3   0.609119 0.695135 0.868569 -0.268763
C54   C     C_3   0.612989 0.779401 0.740973 -0.419934
C55   C     C_3   0.643232 0.323689 0.687943 -0.265972
C56   C     C_R   0.099393 0.290460 0.409756 -0.112799
C57   C     C_3   0.673145 0.222754 0.756177 -0.450175
C58   C     C_R   0.128818 0.609510 0.529336 0.024222
C59   C     C_R   0.354493 0.500571 0.496616 0.003313
C60   C     C_R   0.645056 0.495189 0.503835 0.006222
Cu1   Cu    Cu3+1 0.500000 0.499980 0.640670 0.916877
Cu2   Cu    Cu3+1 0.500000 0.500020 0.359330 0.924923
H1    H     H_    0.259176 0.503785 0.268156 0.128930
H2    H     H_    0.476157 0.108374 0.830566 0.135075
H3    H     H_    0.438715 0.384886 0.861859 0.124707
H4    H     H_    0.531172 0.746485 0.869707 0.160892
H5    H     H_    0.117168 0.206864 0.380090 0.167157
H6    H     H_    0.742507 0.360965 0.658456 0.134046
H7    H     H_    0.874152 0.216162 0.352429 0.166369
H8    H     H_    0.959068 0.213652 0.347469 0.110071
H9    H     H_    0.032139 0.202845 0.379347 0.108873
H10   H     H_    0.347827 0.498747 0.722230 0.125053
H11   H     H_    0.650878 0.635160 0.342534 0.113318
H12   H     H_    0.125135 0.799415 0.597596 0.168430
H13   H     H_    0.526222 0.115648 0.284095 0.134723
H14   H     H_    0.426373 0.888495 0.683962 0.150832
H15   H     H_    0.428685 0.110903 0.688606 0.140209
H16   H     H_    0.418838 0.200176 0.972934 0.134155
H17   H     H_    0.471310 0.179644 0.085464 0.150191
H18   H     H_    0.411589 0.145055 0.147820 0.153040
H19   H     H_    0.431914 0.334476 0.246276 0.223060
H20   H     H_    0.393034 0.375010 0.106698 0.111850
H21   H     H_    0.591481 0.740557 0.652318 0.181223
H22   H     H_    0.600204 0.873082 0.765839 0.143878
H23   H     H_    0.967355 0.792149 0.631928 0.109767
H24   H     H_    0.651134 0.787830 0.708801 0.154227
H25   H     H_    0.633683 0.735099 0.950496 0.144580
H26   H     H_    0.622975 0.602966 0.841499 0.165302
H27   H     H_    0.588125 0.698678 0.139420 0.119526
H28   H     H_    0.524445 0.747201 0.115718 0.127212
H29   H     H_    0.692408 0.170466 0.675743 0.173650
H30   H     H_    0.699224 0.263608 0.833471 0.155835
H31   H     H_    0.648910 0.156908 0.812384 0.143520
H32   H     H_    0.625908 0.375880 0.772181 0.164615
H33   H     H_    0.614391 0.275932 0.624733 0.161610
H34   H     H_    0.882319 0.787617 0.632485 0.165575
H35   H     H_    0.347354 0.503404 0.270584 0.122533
H36   H     H_    0.738993 0.637430 0.338942 0.135787
H37   H     H_    0.040182 0.803458 0.598105 0.109263
H38   H     H_    0.525907 0.890410 0.284386 0.122000
H39   H     H_    0.259657 0.500248 0.717360 0.128412
H40   H     H_    0.471979 0.888348 0.830247 0.126688
N1    N     N_R   0.201987 0.502642 0.490524 -0.398522
N2    N     N_R   0.797395 0.500320 0.496572 -0.398037
N3    N     N_R   0.500300 0.500930 0.147930 -0.228807
N4    N     N_R   0.500310 0.500890 0.852020 -0.251932
O1    O     O_R   0.500000 0.319640 0.618810 -0.502611
O2    O     O_R   0.569730 0.499960 0.618810 -0.511041
O3    O     O_R   0.569740 0.500000 0.381220 -0.493392
O4    O     O_2   0.199969 0.296228 0.413544 -0.494789
O5    O     O_2   0.793854 0.301095 0.398275 -0.502855
O6    O     O_2   0.205545 0.709199 0.567026 -0.493167
O7    O     O_2   0.799503 0.699727 0.594325 -0.504834
O8    O     O_R   0.500010 0.319680 0.381230 -0.519636
O9    O     O_R   0.430260 0.500000 0.618780 -0.506718
O10   O     O_R   0.430270 0.500040 0.381190 -0.522092
O11   O     O_R   0.499990 0.680320 0.618770 -0.502212
O12   O     O_R   0.500000 0.680360 0.381190 -0.502036

loop_
_geom_bond_atom_site_label_1
_geom_bond_atom_site_label_2
_ccdc_geom_bond_type
C10   C27   A    
C8    C13   A    
C57   H30   S    
C15   C60   A    
C4    O9    A    
C44   H4    S    
C35   C36   A    
C32   H13   S    
C54   H22   S    
C7    C8    A    
C46   H27   S    
C53   C54   S    
Cu2   O10   S    
C12   C23   A    
C26   C27   A    
C41   N3    A    
C50   C59   A    
C36   C37   S    
C22   C29   A    
Cu2   O8    S    
C16   C35   S    
C37   H40   S    
C47   O6    S    
C1    C31   S    
C30   C38   S    
C39   N3    A    
C18   C19   A    
C41   C42   A    
Cu1   O2    S    
C50   H10   S    
Cu2   N3    S    
C44   C53   S    
C23   N1    S    
C20   C24   A    
C45   C56   A    
C8    C9    A    
Cu1   O9    S    
C42   H3    S    
C11   N2    A    
C52   H17   S    
C9    C10   A    
C51   H19   S    
C40   O4    S    
C57   H31   S    
C21   C22   A    
C17   H11   S    
C27   H34   S    
C2    C6    A    
C55   H32   S    
C52   H16   S    
C54   H21   S    
C44   C46   S    
C38   H2    S    
C28   C60   S    
C25   C29   A    
C40   C45   A    
C25   H12   S    
C47   N1    A    
C29   H37   S    
Cu1   O11   S    
C51   C52   S    
C55   H33   S    
C54   H24   S    
C48   H1    S    
C39   C43   A    
C21   C34   A    
C2    C20   A    
C43   N4    A    
C15   C55   S    
C43   C44   S    
C5    C9    A    
C37   C38   S    
C16   O12   A    
C19   N2    S    
C31   C32   A    
C17   C18   A    
C53   H25   S    
C34   C45   A    
C13   N2    A    
Cu1   N4    S    
C42   N4    A    
C51   H20   S    
C1    O1    A    
C39   C46   S    
C48   C49   A    
C37   H14   S    
C55   C57   S    
C2    C5    A    
C25   C58   A    
C6    H8    S    
C23   C48   A    
C57   H29   S    
C14   C19   A    
C4    O10   A    
C3    C26   A    
C3    C5    A    
C7    H7    S    
C12   C50   A    
C6    C7    A    
C46   H28   S    
C38   H15   S    
C28   O3    A    
C24   C56   A    
C56   H5    S    
C49   C59   A    
C30   C36   A    
C33   H38   S    
C32   C33   A    
C12   H39   S    
C13   O5    S    
C16   O11   A    
C40   N1    A    
C30   C31   A    
Cu2   O3    S    
C28   O2    A    
C26   H23   S    
C4    C59   S    
C33   C35   A    
C53   H26   S    
Cu1   Cu2   S    
C11   O7    S    
Cu2   O12   S    
C10   C11   A    
C17   C60   A    
C49   H35   S    
C20   C21   A    
C1    O8    A    
Cu1   O1    S    
C34   C58   A    
C14   H6    S    
C14   C15   A    
C3    C22   A    
C18   H36   S    
C52   H18   S    
C41   C51   S    
C24   H9    S    
C47   C58   A    
