data_mof_unit_2670.cif
_audit_creation_date              2012-12-10T17:52:34-0500
_audit_creation_method            fapswitch 2.2
_symmetry_space_group_name_H-M    P1
_symmetry_Int_Tables_number       1
_space_group_crystal_system       triclinic
_cell_length_a                    14.669192
_cell_length_b                    14.61465
_cell_length_c                    23.520131
_cell_angle_alpha                 77.039095
_cell_angle_beta                  102.674591
_cell_angle_gamma                 115.186914
_cell_volume                      4402.5583368

loop_
_atom_site_label
_atom_site_type_symbol
_atom_type_description
_atom_site_fract_x
_atom_site_fract_y
_atom_site_fract_z
_atom_type_partial_charge
C1    C     C_R   0.880129 0.311845 0.509896 0.824303
C2    C     C_R   0.119871 0.688155 0.490104 0.824310
C3    C     C_R   0.064414 0.466431 0.774904 0.172937
C4    C     C_R   0.935427 0.533375 0.225100 0.172934
C5    C     C_R   0.064139 0.466692 0.715410 -0.223675
C6    C     C_R   0.935715 0.533125 0.284595 -0.223663
C7    C     C_R   0.998527 0.499881 0.671471 -0.114779
C8    C     C_R   0.001455 0.500104 0.328527 -0.114803
C9    C     C_R   0.932512 0.533218 0.687558 -0.231738
C10   C     C_R   0.067585 0.466925 0.312431 -0.231771
C11   C     C_R   0.931366 0.533756 0.746782 0.179988
C12   C     C_R   0.068718 0.466376 0.253207 0.180019
C13   C     C_R   0.997713 0.500204 0.790826 0.371125
C14   C     C_R   0.002241 0.499757 0.209170 0.371112
C15   C     C_R   0.812777 0.203110 0.510991 -0.100528
C16   C     C_R   0.187223 0.796890 0.489010 -0.100525
C17   C     C_R   0.776733 0.036460 0.486387 0.189109
C18   C     C_R   0.223267 0.963538 0.513616 0.189115
C19   C     C_R   0.842293 0.138766 0.490491 -0.240929
C20   C     C_R   0.157706 0.861233 0.509511 -0.240929
C21   C     C_R   0.715680 0.165839 0.527174 0.119773
C22   C     C_R   0.284321 0.834161 0.472828 0.119776
C23   C     C_R   0.999454 0.499944 0.608973 0.819240
C24   C     C_R   0.000543 0.500053 0.391027 0.819246
C25   C     C_R   0.641458 0.072590 0.509818 0.015453
C26   C     C_R   0.358543 0.927409 0.490185 0.015452
C27   C     C_R   0.674588 0.000261 0.498592 0.084244
C28   C     C_R   0.325412 0.999738 0.501412 0.084245
C29   C     C_R   0.535501 0.049979 0.502915 0.027214
C30   C     C_R   0.464500 0.950020 0.497089 0.027214
C31   C     C_R   0.501261 0.873274 0.503210 -0.205678
C32   C     C_R   0.498739 0.126725 0.496794 -0.205681
C33   C     C_R   0.603629 0.896328 0.501385 0.163311
C34   C     C_R   0.396371 0.103671 0.498620 0.163312
C35   C     C_R   0.710620 0.659327 0.395231 0.080282
C36   C     C_R   0.289384 0.340681 0.604773 0.080286
C37   C     C_R   0.795944 0.635152 0.415193 0.075892
C38   C     C_R   0.204057 0.364851 0.584808 0.075911
C39   C     C_R   0.715901 0.513262 0.492919 -0.006305
C40   C     C_R   0.284102 0.486741 0.507083 -0.006304
C41   C     C_R   0.630424 0.539799 0.478778 -0.052284
C42   C     C_R   0.369583 0.460208 0.521228 -0.052284
C43   C     C_R   0.624828 0.607056 0.425688 0.089397
C44   C     C_R   0.375179 0.392953 0.574319 0.089399
C45   C     C_R   0.065890 0.584666 0.116630 0.531097
C46   C     C_R   0.934052 0.415301 0.883365 0.531078
C47   C     C_R   0.547745 0.496461 0.513046 0.022701
C48   C     C_R   0.452264 0.503547 0.486961 0.022705
C49   C     C_R   0.443859 0.553464 0.427674 0.157283
C50   C     C_R   0.556150 0.446543 0.572334 0.157241
C51   C     C_R   0.531517 0.613900 0.401534 -0.202886
C52   C     C_R   0.468490 0.386111 0.598474 -0.202881
C53   C     C_R   0.938241 0.414269 0.123105 0.531119
C54   C     C_R   0.061721 0.585688 0.876893 0.531133
C55   C     C_R   0.935940 0.412674 0.063412 -0.020550
C56   C     C_R   0.064015 0.587286 0.936585 -0.020552
C57   C     C_R   0.000553 0.499826 0.030089 -0.018407
C58   C     C_R   0.999397 0.500137 0.969907 -0.018408
C59   C     C_R   0.066290 0.586682 0.056796 -0.020202
C60   C     C_R   0.933657 0.413282 0.943199 -0.020204
C61   C     C_R   0.870720 0.326509 0.036345 -0.162327
C62   C     C_R   0.129236 0.673451 0.963652 -0.162331
C63   C     C_R   0.869581 0.326814 0.976837 -0.162604
C64   C     C_R   0.130368 0.673149 0.023158 -0.162602
Cu1   Cu    Cu3+1 0.081740 0.475680 0.515360 0.932084
Cu2   Cu    Cu3+1 0.918260 0.524320 0.484640 0.932073
H1    H     H_    0.820348 0.258611 0.061018 0.188131
H2    H     H_    0.179614 0.741345 0.938979 0.188131
H3    H     H_    0.449918 0.793858 0.509965 0.170601
H4    H     H_    0.550082 0.206141 0.490039 0.170599
H5    H     H_    0.818410 0.259122 0.957325 0.188153
H6    H     H_    0.181540 0.740842 0.042670 0.188151
H7    H     H_    0.882198 0.559904 0.653971 0.172178
H8    H     H_    0.118002 0.440373 0.346011 0.172214
N1    N     N_R   0.002392 0.499431 0.148250 -0.468714
N2    N     N_R   0.997560 0.500531 0.851746 -0.468712
N3    N     N_R   0.795430 0.560810 0.461550 -0.200879
N4    N     N_R   0.204570 0.439190 0.538450 -0.200873
O1    O     O_R   0.977900 0.338110 0.520250 -0.590023
O2    O     O_R   0.022100 0.661890 0.479750 -0.590021
O3    O     O_R   0.839850 0.379180 0.494310 -0.570152
O4    O     O_R   0.160150 0.620820 0.505690 -0.570148
O5    O     O_R   0.069020 0.479430 0.595090 -0.584777
O6    O     O_R   0.930980 0.520570 0.404910 -0.584791
O7    O     O_R   0.930970 0.520500 0.569150 -0.586447
O8    O     O_R   0.069030 0.479500 0.430850 -0.586442
O9    O     O_2   0.128100 0.667034 0.143084 -0.534289
O10   O     O_2   0.871831 0.332939 0.856908 -0.534289
O11   O     O_2   0.876919 0.331713 0.155831 -0.532555
O12   O     O_2   0.123057 0.668236 0.844171 -0.532557
C65   C     C_3   0.815588 0.975435 0.461322 -0.850480
H9    H     H_    0.890184 0.023550 0.445608 0.225376
H10   H     H_    0.828166 0.914304 0.495267 0.235845
H11   H     H_    0.762219 0.944113 0.422362 0.235649
C66   C     C_3   0.184411 0.024562 0.538682 -0.850486
H12   H     H_    0.109815 0.976447 0.554396 0.225371
H13   H     H_    0.237779 0.055884 0.577642 0.235648
H14   H     H_    0.171833 0.085695 0.504738 0.235849
H15   H     H_    0.523133 0.657353 0.358358 0.171108
H16   H     H_    0.476873 0.342657 0.641650 0.171113
H17   H     H_    0.280803 0.547444 0.472482 0.151443
H18   H     H_    0.719200 0.452557 0.527519 0.151447
H19   H     H_    0.137976 0.327079 0.607594 0.131430
H20   H     H_    0.862024 0.672922 0.392406 0.131451
C67   C     C_3   0.712560 0.738764 0.341487 -0.908198
H21   H     H_    0.788442 0.775981 0.326314 0.234723
H22   H     H_    0.656043 0.702587 0.304717 0.243200
H23   H     H_    0.694726 0.799261 0.351939 0.240038
C68   C     C_3   0.287444 0.261246 0.658519 -0.908202
H24   H     H_    0.211562 0.224028 0.673691 0.234713
H25   H     H_    0.305281 0.200750 0.648069 0.240038
H26   H     H_    0.343959 0.297426 0.695288 0.243207
C69   C     C_3   0.344652 0.531601 0.386432 -0.899714
H27   H     H_    0.354160 0.521772 0.342894 0.237635
H28   H     H_    0.284139 0.458499 0.402353 0.234293
H29   H     H_    0.320714 0.596343 0.379313 0.235801
C70   C     C_3   0.655359 0.468389 0.613574 -0.899593
H30   H     H_    0.645857 0.478214 0.657115 0.237619
H31   H     H_    0.679284 0.403640 0.620687 0.235812
H32   H     H_    0.715881 0.541487 0.597657 0.234283
C71   C     C_3   0.136730 0.429698 0.819897 -0.811721
H33   H     H_    0.119911 0.349491 0.816172 0.231840
H34   H     H_    0.216091 0.478353 0.811517 0.234319
H35   H     H_    0.131518 0.432121 0.865797 0.235574
C72   C     C_3   0.862986 0.569946 0.180115 -0.811705
H36   H     H_    0.879651 0.650117 0.183836 0.231787
H37   H     H_    0.868225 0.567566 0.134213 0.235570
H38   H     H_    0.783654 0.521162 0.188506 0.234361
H39   H     H_    0.115429 0.440476 0.703580 0.170737
H40   H     H_    0.884334 0.559216 0.296431 0.170775
C73   C     C_3   0.858731 0.570654 0.761163 -0.817960
H41   H     H_    0.779462 0.520755 0.745426 0.229554
H42   H     H_    0.864697 0.570137 0.809021 0.236889
H43   H     H_    0.874459 0.650167 0.738673 0.232161
C74   C     C_3   0.141486 0.429658 0.238816 -0.817970
H44   H     H_    0.135439 0.430065 0.190964 0.236887
H45   H     H_    0.220724 0.479744 0.254477 0.229624
H46   H     H_    0.125980 0.350213 0.261367 0.232094
C75   C     C_3   0.633348 0.806587 0.509194 -0.845532
H47   H     H_    0.570342 0.732639 0.521668 0.228231
H48   H     H_    0.652097 0.800237 0.467553 0.241818
H49   H     H_    0.697417 0.813364 0.545549 0.235712
C76   C     C_3   0.366653 0.193412 0.490812 -0.845530
H50   H     H_    0.429659 0.267360 0.478339 0.228230
H51   H     H_    0.302584 0.186636 0.454457 0.235714
H52   H     H_    0.347903 0.199760 0.532453 0.241817
C77   C     C_3   0.300341 0.785617 0.427241 -0.855470
H53   H     H_    0.233061 0.766819 0.392458 0.225898
H54   H     H_    0.366746 0.838536 0.404592 0.243926
H55   H     H_    0.311222 0.714544 0.447657 0.227163
C78   C     C_3   0.699661 0.214385 0.572761 -0.855468
H56   H     H_    0.633257 0.161465 0.595411 0.243928
H57   H     H_    0.766942 0.233183 0.607543 0.225896
H58   H     H_    0.688779 0.285457 0.552345 0.227162
H59   H     H_    0.082572 0.830930 0.522501 0.163745
H60   H     H_    0.917428 0.169068 0.477500 0.163752

loop_
_geom_bond_atom_site_label_1
_geom_bond_atom_site_label_2
_ccdc_geom_bond_type
C76   H52   S    
C49   C69   S    
Cu1   O1    S    
C20   H59   S    
C74   H46   S    
C50   C70   S    
C75   H48   S    
C77   H53   S    
C17   C65   S    
C6    H40   S    
C73   H43   S    
Cu2   O7    S    
C46   N2    A    
Cu1   O4    S    
C66   H14   S    
C74   H44   S    
C39   C41   A    
C27   C33   A    
C15   C19   A    
C67   H22   S    
C59   C64   A    
C29   C30   A    
C23   O5    A    
C4    C72   S    
C60   C63   A    
C39   N3    A    
C45   O9    S    
C54   O12   S    
C29   C32   A    
C70   H31   S    
C2    O2    A    
C30   C31   A    
C75   H49   S    
Cu1   O5    S    
C1    O3    A    
C76   H50   S    
C76   H51   S    
C7    C9    A    
C78   H58   S    
C61   C63   A    
C71   H35   S    
C62   C64   A    
C17   C19   A    
C40   H17   S    
C66   H12   S    
C49   C51   A    
C12   C74   S    
C72   H38   S    
C50   C52   A    
C78   H56   S    
C31   C33   A    
C1    C15   S    
C35   C43   A    
C18   C20   A    
C10   H8    S    
C3    C13   A    
C69   H29   S    
C46   C60   A    
C44   C52   A    
C40   C42   A    
C28   C34   A    
C78   H57   S    
C25   C29   A    
C19   H60   S    
C41   C43   A    
C53   N1    A    
C42   C44   A    
C47   C50   A    
C46   O10   S    
C53   C55   A    
C51   H15   S    
C67   H23   S    
C54   C56   A    
C34   C76   S    
C17   C27   A    
Cu1   O8    S    
C77   H55   S    
C18   C28   A    
C4    C6    A    
C70   H32   S    
C65   H9    S    
C5    C7    A    
C32   H4    S    
C38   N4    A    
C3    C5    A    
C37   N3    A    
C52   H16   S    
C68   H26   S    
C32   C34   A    
C38   H19   S    
C35   C67   S    
C65   H10   S    
C18   C66   S    
C61   H1    S    
C47   C48   A    
C13   N2    S    
C15   C21   A    
C16   C20   A    
C41   C47   A    
C42   C48   A    
C9    C11   A    
C71   H33   S    
C10   C12   A    
C54   N2    A    
C48   C49   A    
C63   H5    S    
C26   C30   A    
C55   C57   A    
C53   O11   S    
C72   H36   S    
C1    O1    A    
C40   N4    A    
C5    H39   S    
C2    O4    A    
C57   C59   A    
C73   H41   S    
C2    C16   S    
C35   C37   A    
C39   H18   S    
C69   H27   S    
C74   H45   S    
Cu2   N3    S    
C21   C25   A    
C45   C59   A    
C16   C22   A    
Cu1   N4    S    
C77   H54   S    
C9    H7    S    
C12   C14   A    
C73   H42   S    
C11   C73   S    
C37   H20   S    
C6    C8    A    
C75   H47   S    
C66   H13   S    
C25   C27   A    
Cu2   O2    S    
C67   H21   S    
C26   C28   A    
C62   H2    S    
C45   N1    A    
C14   N1    S    
C68   H25   S    
C24   O6    A    
C23   O7    A    
C68   H24   S    
C65   H11   S    
C11   C13   A    
C43   C51   A    
C57   C58   A    
C58   C60   A    
C33   C75   S    
C7    C23   S    
C55   C61   A    
C36   C38   A    
C8    C24   S    
C56   C58   A    
C56   C62   A    
C21   C78   S    
C4    C14   A    
C71   H34   S    
C36   C44   A    
Cu2   O6    S    
C31   H3    S    
C22   C77   S    
C8    C10   A    
Cu1   Cu2   S    
C22   C26   A    
C36   C68   S    
C72   H37   S    
C69   H28   S    
C70   H30   S    
C24   O8    A    
C3    C71   S    
C64   H6    S    
Cu2   O3    S    
