data_mof_unit_1685.cif
_audit_creation_date              2012-10-26T18:50:41-0400
_audit_creation_method            fapswitch 2.2
_symmetry_space_group_name_H-M    P1
_symmetry_Int_Tables_number       1
_space_group_crystal_system       triclinic
_cell_length_a                    12.401125
_cell_length_b                    13.175269
_cell_length_c                    17.173811
_cell_angle_alpha                 105.924271
_cell_angle_beta                  75.10914
_cell_angle_gamma                 116.930445
_cell_volume                      2376.70572945

loop_
_atom_site_label
_atom_site_type_symbol
_atom_type_description
_atom_site_fract_x
_atom_site_fract_y
_atom_site_fract_z
_atom_type_partial_charge
C1    C     C_R   0.143877 0.714016 0.508941 0.567664
C2    C     C_R   0.024660 0.502698 0.260916 -0.021416
C3    C     C_R   0.723772 0.970615 0.391892 0.279929
C4    C     C_R   0.991214 0.508897 0.652404 0.554792
C5    C     C_R   0.772777 0.161838 0.476125 -0.046067
C6    C     C_R   0.180705 0.916137 0.574644 -0.144017
C7    C     C_R   0.260138 0.031564 0.596947 0.262549
C8    C     C_R   0.385149 0.066660 0.568209 -0.095866
C9    C     C_R   0.431608 0.991054 0.509358 -0.048390
C10   C     C_R   0.346774 0.879468 0.478071 0.006052
C11   C     C_R   0.558958 0.022352 0.479970 -0.045036
C12   C     C_R   0.122912 0.608614 0.758251 -0.195489
C13   C     C_R   0.598046 0.942952 0.419242 -0.040126
C14   C     C_R   0.511270 0.840142 0.382620 -0.095758
C15   C     C_R   0.387189 0.812469 0.407375 0.280373
C16   C     C_R   0.855764 0.285705 0.489508 0.545295
C17   C     C_R   0.648596 0.131358 0.507172 -0.209008
C18   C     C_R   0.811307 0.077221 0.424711 0.272426
C19   C     C_R   0.223693 0.838656 0.517480 -0.053077
C20   C     C_R   0.659008 0.696479 0.618552 0.114239
C21   C     C_R   0.245095 0.338873 0.396467 0.304246
C22   C     C_R   0.319261 0.285244 0.398860 -0.155421
C23   C     C_R   0.973134 0.566657 0.160256 0.276994
C24   C     C_R   0.410297 0.340330 0.447192 -0.168798
C25   C     C_R   0.438173 0.454676 0.487490 0.007375
C26   C     C_R   0.346006 0.496238 0.498476 0.159381
C27   C     C_R   0.548291 0.524440 0.523251 -0.029358
C28   C     C_R   0.013803 0.498145 0.347468 0.577913
C29   C     C_R   0.554494 0.626781 0.580225 -0.006446
C30   C     C_R   0.455303 0.657744 0.599217 -0.167980
C31   C     C_R   0.354175 0.594228 0.559102 -0.107953
C32   C     C_R   0.655860 0.501386 0.501733 0.230717
C33   C     C_R   0.749240 0.654759 0.608054 0.397079
C34   C     C_R   0.968431 0.562284 0.241779 -0.210437
C35   C     C_R   0.005302 0.538574 0.738565 -0.053729
C36   C     C_R   0.905705 0.501186 0.800828 0.239462
C37   C     C_R   0.925968 0.533798 0.882649 0.270087
C38   C     C_R   0.046932 0.595735 0.900708 0.049951
C39   C     C_R   0.144732 0.637929 0.838545 0.071066
C40   C     C_3   0.768073 0.316997 0.766315 -0.092380
C41   C     C_3   0.971383 0.060187 0.450408 -0.112144
C42   C     C_3   0.783267 0.927794 0.255166 -0.133300
C43   C     C_3   0.145024 0.134144 0.621248 -0.127803
C44   C     C_3   0.278921 0.775291 0.307490 -0.146476
C45   C     C_R   0.093357 0.452395 0.197391 0.244239
C46   C     C_3   0.803323 0.683171 0.731688 -0.100138
C47   C     C_3   0.716068 0.895161 0.611400 -0.310208
C48   C     C_3   0.678915 0.452632 0.350757 -0.276977
C49   C     C_3   0.178033 0.199551 0.267651 -0.287604
C50   C     C_3   0.283163 0.461490 0.191734 -0.095391
C51   C     C_3   0.086983 0.377088 0.902523 -0.146359
C52   C     C_3   0.307254 0.826884 0.864452 -0.286969
C53   C     C_3   0.943642 0.734206 0.185067 -0.097361
C54   C     C_3   0.239308 0.730674 0.047310 -0.140318
C55   C     C_3   0.784068 0.583016 0.976113 -0.079642
C56   C     C_R   0.091263 0.450151 0.115944 -0.166927
C57   C     C_R   0.032568 0.507176 0.097155 0.041817
C58   C     C_2   0.072868 0.603610 0.981676 0.353238
C59   C     C_2   0.036374 0.504479 0.010374 0.323099
Cu1   Cu    Cu3+1 0.900140 0.524980 0.518800 0.998631
Cu2   Cu    Cu3+1 0.099860 0.475020 0.481200 0.987005
H1    H     H_    0.137610 0.405190 0.067178 0.127742
H2    H     H_    0.282287 0.622456 0.579858 0.164628
H3    H     H_    0.199117 0.641151 0.711083 0.123123
H4    H     H_    0.775484 0.291256 0.820636 0.162685
H5    H     H_    0.832089 0.297418 0.712021 0.093020
H6    H     H_    0.673735 0.263411 0.752115 0.134990
H7    H     H_    0.071326 0.084807 0.433476 0.123004
H8    H     H_    0.925673 0.964031 0.441809 0.136873
H9    H     H_    0.954226 0.099610 0.516031 0.096317
H10   H     H_    0.874388 0.001231 0.246887 0.158519
H11   H     H_    0.710634 0.950722 0.247763 0.097487
H12   H     H_    0.538840 0.783021 0.331322 0.162643
H13   H     H_    0.782933 0.853630 0.205405 0.112386
H14   H     H_    0.057188 0.057835 0.611204 0.103142
H15   H     H_    0.193473 0.167291 0.563112 0.115990
H16   H     H_    0.122449 0.203580 0.665292 0.141443
H17   H     H_    0.362889 0.836667 0.274616 0.093956
H18   H     H_    0.218945 0.819521 0.343857 0.112551
H19   H     H_    0.228629 0.706446 0.259914 0.120957
H20   H     H_    0.884292 0.708835 0.760824 0.141672
H21   H     H_    0.748526 0.588381 0.729413 0.171613
H22   H     H_    0.748114 0.729621 0.772127 0.076800
H23   H     H_    0.624477 0.196833 0.550552 0.136143
H24   H     H_    0.728797 0.841551 0.708922 0.268981
H25   H     H_    0.808795 0.907851 0.576715 0.136282
H26   H     H_    0.719970 0.979196 0.650036 0.130020
H27   H     H_    0.651445 0.867390 0.567637 0.168402
H28   H     H_    0.653997 0.341356 0.430196 0.247543
H29   H     H_    0.740390 0.420194 0.302513 0.156030
H30   H     H_    0.712496 0.547524 0.355108 0.156400
H31   H     H_    0.587574 0.408559 0.331396 0.137065
H32   H     H_    0.081726 0.290335 0.350064 0.337223
H33   H     H_    0.145034 0.117289 0.289788 0.145326
H34   H     H_    0.086468 0.886241 0.604838 0.172904
H35   H     H_    0.274519 0.225059 0.236731 0.127949
H36   H     H_    0.120999 0.184417 0.221787 0.177069
H37   H     H_    0.309624 0.445231 0.124085 0.086206
H38   H     H_    0.313466 0.556094 0.215944 0.144924
H39   H     H_    0.333410 0.431037 0.218241 0.156897
H40   H     H_    0.064178 0.282917 0.888103 0.156142
H41   H     H_    0.177549 0.421844 0.924305 0.083107
H42   H     H_    0.094412 0.403493 0.844669 0.124482
H43   H     H_    0.328591 0.674433 0.814624 0.246093
H44   H     H_    0.312462 0.849631 0.805449 0.135659
H45   H     H_    0.442179 0.154346 0.592637 0.127744
H46   H     H_    0.399586 0.872038 0.882983 0.133828
H47   H     H_    0.243570 0.857155 0.912571 0.189658
H48   H     H_    0.935670 0.786427 0.147849 0.140081
H49   H     H_    0.879020 0.734850 0.243337 0.143067
H50   H     H_    0.039906 0.777538 0.197599 0.116568
H51   H     H_    0.284266 0.676291 0.003274 0.112566
H52   H     H_    0.224983 0.715225 0.110223 0.093614
H53   H     H_    0.303982 0.822513 0.046922 0.139132
H54   H     H_    0.855738 0.665793 0.002316 0.130422
H55   H     H_    0.707171 0.554390 0.026530 0.150000
H56   H     H_    0.920925 0.605992 0.290457 0.130592
H57   H     H_    0.748253 0.597238 0.928712 0.108573
H58   H     H_    0.455052 0.732221 0.645842 0.145918
H59   H     H_    0.459168 0.292517 0.450988 0.122570
H60   H     H_    0.308161 0.200583 0.363118 0.094281
N1    N     N_R   0.749710 0.562810 0.547300 -0.222605
N2    N     N_R   0.249640 0.437820 0.453210 -0.228555
N3    N     N_2   0.676386 0.810366 0.663018 -0.531747
N4    N     N_2   0.675476 0.425793 0.427982 -0.472409
N5    N     N_2   0.166897 0.290633 0.335130 -0.438325
N6    N     N_2   0.266670 0.703205 0.855359 -0.513956
O1    O     O_R   0.025490 0.682370 0.523640 -0.475299
O2    O     O_3   0.934054 0.101835 0.399340 -0.562769
O3    O     O_3   0.761382 0.894380 0.331168 -0.581657
O4    O     O_3   0.219562 0.107902 0.655159 -0.562775
O5    O     O_3   0.307047 0.724450 0.357645 -0.546948
O6    O     O_3   0.844716 0.713484 0.652979 -0.554421
O7    O     O_3   0.156145 0.399311 0.214689 -0.547114
O8    O     O_3   0.991016 0.395894 0.960917 -0.563087
O9    O     O_3   0.912074 0.619881 0.140362 -0.542605
O10   O     O_3   0.127511 0.713595 0.027556 -0.574410
O11   O     O_3   0.828422 0.496102 0.944047 -0.509189
O12   O     O_R   0.194150 0.640180 0.491890 -0.483199
O13   O     O_R   0.905900 0.523560 0.631310 -0.449956
O14   O     O_R   0.074570 0.481370 0.599560 -0.543532
O15   O     O_R   0.805850 0.359820 0.508110 -0.512217
O16   O     O_R   0.974510 0.317630 0.476360 -0.490165
O17   O     O_R   0.925430 0.518630 0.400440 -0.497828
O18   O     O_R   0.094100 0.476440 0.368690 -0.434789
O19   O     O_3   0.788424 0.434641 0.782558 -0.562692

loop_
_geom_bond_atom_site_label_1
_geom_bond_atom_site_label_2
_ccdc_geom_bond_type
C53   H49   S    
C27   C29   A    
C3    O3    S    
C35   C36   A    
C1    O1    A    
C7    C8    A    
H28   N4    S    
C51   H41   S    
C49   N5    S    
C50   H38   S    
C29   C30   A    
C55   O11   S    
C23   O9    S    
H24   N3    S    
C43   H16   S    
C55   H55   S    
C36   C37   A    
C10   C15   A    
C30   C31   A    
C12   H3    S    
C57   C59   S    
C54   O10   S    
C5    C17   A    
C30   H58   S    
C51   H42   S    
C54   H52   S    
C56   C57   A    
C3    C18   A    
C59   O8    S    
Cu2   O18   S    
H32   N5    S    
C5    C16   S    
Cu1   O15   S    
C48   N4    S    
C46   H21   S    
C51   O8    S    
Cu2   O16   S    
C15   O5    S    
C45   C56   A    
C8    C9    A    
C40   H6    S    
C28   O17   A    
C49   H33   S    
C9    C10   A    
C7    O4    S    
C3    C13   A    
C2    C34   A    
C34   H56   S    
C4    C35   S    
C26   C31   A    
C48   H29   S    
C13   C14   A    
C53   O9    S    
C52   N6    S    
C41   H7    S    
C20   C29   A    
C2    C45   A    
C43   H14   S    
C24   H59   S    
C39   N6    S    
C47   H25   S    
C31   H2    S    
C44   H19   S    
C16   O16   A    
C24   C25   A    
C52   H46   S    
C50   O7    S    
C50   H37   S    
C4    O14   A    
C28   O18   A    
Cu2   O12   S    
C5    C18   A    
C25   C26   A    
C1    C19   S    
C48   H30   S    
C8    H45   S    
Cu1   Cu2   S    
C47   H26   S    
C32   N4    S    
C21   N2    A    
C16   O15   A    
C14   H12   S    
C37   C38   A    
C6    C19   A    
C32   N1    A    
C4    O13   A    
C46   H20   S    
Cu1   O1    S    
C10   C19   A    
C23   C34   A    
C42   H11   S    
C45   O7    S    
C54   H51   S    
C42   O3    S    
C38   C58   S    
C12   C35   A    
Cu1   N1    S    
C9    C11   A    
C42   H13   S    
Cu1   O13   S    
C20   C33   A    
C58   O10   S    
C36   O19   S    
C52   H44   S    
C37   O11   S    
C33   N1    A    
C22   C24   A    
C25   C27   A    
C26   N2    A    
C22   H60   S    
C41   H8    S    
C53   H48   S    
C43   H15   S    
C23   C57   A    
C11   C17   A    
C27   C32   A    
C44   H18   S    
Cu2   O14   S    
C1    O12   A    
C6    C7    A    
C44   O5    S    
C50   H39   S    
C40   O19   S    
Cu2   N2    S    
C17   H23   S    
C47   H27   S    
C12   C39   A    
C44   H17   S    
C58   C59   D    
Cu1   O17   S    
C46   O6    S    
C41   O2    S    
C11   C13   A    
C53   H50   S    
C47   N3    S    
C38   C39   A    
H43   N6    S    
C55   H54   S    
C54   H53   S    
C43   O4    S    
C42   H10   S    
C40   H5    S    
C56   H1    S    
C49   H35   S    
C40   H4    S    
C20   N3    S    
C49   H36   S    
C46   H22   S    
C33   O6    S    
C52   H47   S    
C6    H34   S    
C48   H31   S    
C14   C15   A    
C18   O2    S    
C2    C28   S    
C21   N5    S    
C21   C22   A    
C51   H40   S    
C41   H9    S    
C55   H57   S    
