data_mof_unit_1265.cif
_audit_creation_date              2013-03-05T15:41:47-0500
_audit_creation_method            fapswitch 2.2
_symmetry_space_group_name_H-M    P1
_symmetry_Int_Tables_number       1
_space_group_crystal_system       triclinic
_cell_length_a                    19.215632
_cell_length_b                    8.753045
_cell_length_c                    7.500624
_cell_angle_alpha                 103.324728
_cell_angle_beta                  94.024145
_cell_angle_gamma                 93.253967
_cell_volume                      1221.11919784

loop_
_atom_site_label
_atom_site_type_symbol
_atom_site_description
_atom_site_fract_x
_atom_site_fract_y
_atom_site_fract_z
_atom_type_partial_charge
O1    O     O_R   0.505010 0.286130 0.619770 -0.545474
O2    O     O_R   0.494990 0.713870 0.380230 -0.545421
O3    O     O_R   0.491990 0.256780 0.308370 -0.611807
O4    O     O_R   0.508010 0.743220 0.691630 -0.611794
C1    C     C_R   0.497134 0.200296 0.453861 0.811312
C2    C     C_R   0.502867 0.799704 0.546138 0.811325
O5    O     O_R   0.406650 0.514660 0.655750 -0.575294
O6    O     O_R   0.593350 0.485340 0.344250 -0.575320
O7    O     O_R   0.393640 0.485310 0.344340 -0.502570
O8    O     O_R   0.606360 0.514690 0.655660 -0.502572
C3    C     C_R   0.367884 0.499353 0.502485 0.811111
C4    C     C_R   0.632116 0.500646 0.497515 0.811111
Cu1   Cu    Cu3+1 0.507710 0.517380 0.684380 1.139709
Cu2   Cu    Cu3+1 0.492290 0.482620 0.315620 1.139709
C5    C     C_R   0.259949 0.630740 0.596305 -0.082449
C6    C     C_R   0.740051 0.369261 0.403688 -0.082461
C7    C     C_R   0.187229 0.622020 0.600702 -0.111774
C8    C     C_R   0.812771 0.377980 0.399291 -0.111768
H1    H     H_    0.161738 0.726605 0.661474 0.206797
H2    H     H_    0.838261 0.273396 0.338513 0.206797
C9    C     C_R   0.146281 0.482312 0.520643 -0.048564
C10   C     C_R   0.853719 0.517686 0.479358 -0.048562
C11   C     C_R   0.178523 0.344241 0.441380 -0.102445
C12   C     C_R   0.821477 0.655755 0.558630 -0.102446
C13   C     C_R   0.251615 0.352563 0.433176 0.292567
C14   C     C_R   0.748385 0.647432 0.566833 0.292571
C15   C     C_R   0.291965 0.495587 0.508452 -0.152946
C16   C     C_R   0.708035 0.504411 0.491549 -0.152949
N1    N     N_R   0.030258 0.424781 0.351550 -0.178297
N2    N     N_R   0.969742 0.575215 0.648451 -0.178297
N3    N     N_R   0.961380 0.434959 0.341033 -0.194442
N4    N     N_R   0.038620 0.565037 0.658969 -0.194440
C17   C     C_R   0.930029 0.511413 0.488937 0.490619
C18   C     C_R   0.069971 0.488584 0.511065 0.490622
C19   C     C_2   0.485530 0.033753 0.434339 -0.219409
C20   C     C_2   0.514471 0.966247 0.565660 -0.219414
N5    N     N_2   0.480680 0.456420 0.038530 0.002798
N6    N     N_2   0.519320 0.543580 0.961470 0.002833
C21   C     C_2   0.301389 0.782617 0.679192 0.559837
H3    H     H_    0.357215 0.794936 0.667673 0.053485
O9    O     O_2   0.273536 0.896812 0.761897 -0.459976
C22   C     C_2   0.698610 0.217386 0.320793 0.559800
H4    H     H_    0.642785 0.205065 0.332318 0.053501
O10   O     O_2   0.726462 0.103194 0.238077 -0.459970
C23   C     C_2   0.137774 0.189764 0.369810 0.500864
H5    H     H_    0.156270 0.102271 0.259494 0.128558
O11   O     O_2   0.084877 0.155860 0.437927 -0.488621
C24   C     C_2   0.862227 0.810231 0.630207 0.500862
H6    H     H_    0.843731 0.897719 0.740528 0.128559
O12   O     O_2   0.915123 0.844138 0.562089 -0.488620
N7    N     N_R   0.285641 0.213002 0.359063 0.080307
O13   O     O_R   0.285422 0.098296 0.442692 -0.308301
O14   O     O_R   0.311913 0.195480 0.201096 -0.294450
N8    N     N_R   0.714360 0.786992 0.640957 0.080308
O15   O     O_R   0.714577 0.901703 0.557334 -0.308299
O16   O     O_R   0.688091 0.804509 0.798929 -0.294423
C25   C     C_2   0.431754 0.953037 0.283202 0.527889
H7    H     H_    0.431061 0.982805 0.150399 0.105542
O17   O     O_2   0.385439 0.861043 0.308918 -0.494509
C26   C     C_2   0.568247 0.046962 0.716797 0.527810
H8    H     H_    0.568941 0.017190 0.849598 0.105557
O18   O     O_2   0.614560 0.138961 0.691084 -0.494528
N9    N     N_R   0.414310 0.410415 0.951572 0.270318
O19   O     O_R   0.398594 0.262858 0.871695 -0.308627
O20   O     O_R   0.364030 0.503241 0.989124 -0.301748
N10   N     N_R   0.585673 0.589708 0.048501 0.270323
O21   O     O_R   0.601327 0.737290 0.128386 -0.308711
O22   O     O_R   0.636001 0.497010 0.010955 -0.301702

loop_
_geom_bond_atom_site_label_1
_geom_bond_atom_site_label_2
_geom_bond_distance
_ccdc_geom_bond_type
C6    C16   1.411522 A    
N10   O22   1.301889 A    
O7    Cu2   1.923638 S    
C13   N7    1.434387 S    
N5    N6    1.290970 D    
C11   C23   1.488567 S    
C6    C22   1.489045 S    
O6    C4    1.300727 A    
C13   C15   1.410588 A    
C14   C16   1.410586 A    
C19   C20   1.362829 D    
C3    C15   1.461376 S    
C19   C25   1.495184 S    
N9    O20   1.301848 A    
C24   O12   1.220988 D    
N10   O21   1.300788 A    
C25   H7    1.085572 S    
N7    O13   1.300679 A    
N1    N3    1.329613 A    
C8    C10   1.400395 A    
C23   H5    1.085156 S    
Cu2   N5    2.032563 S    
N2    N4    1.329612 A    
O7    C3    1.299688 A    
C5    C21   1.489045 S    
Cu1   N6    2.032563 S    
O2    C2    1.290602 A    
O3    Cu2   1.964636 S    
C22   O10   1.221434 D    
C4    C16   1.461376 S    
O1    C1    1.290601 A    
C1    C19   1.433992 S    
C10   C12   1.415406 A    
O4    C2    1.297767 A    
C24   H6    1.085156 S    
N5    N9    1.384895 S    
C12   C14   1.408656 A    
O5    C3    1.300725 A    
O8    C4    1.299687 A    
C9    C11   1.415407 A    
C26   O18   1.221465 D    
O2    Cu2   1.966493 S    
N8    O16   1.300476 A    
C25   O17   1.221466 D    
O1    Cu1   1.966493 S    
C22   H4    1.083517 S    
N7    O14   1.300472 A    
N9    O19   1.300749 A    
C12   C24   1.488568 S    
C14   N8    1.434386 S    
O5    Cu1   1.936916 S    
C11   C13   1.408658 A    
C21   O9    1.221433 D    
C8    H2    1.084265 S    
C6    C8    1.398227 A    
C23   O11   1.220989 D    
C21   H3    1.083519 S    
C5    C7    1.398228 A    
C10   C17   1.467829 S    
N6    N10   1.384941 S    
N8    O15   1.300684 A    
C7    H1    1.084266 S    
N3    C17   1.356032 A    
O6    Cu2   1.936916 S    
C9    C18   1.467828 S    
N2    C17   1.356912 A    
C20   C26   1.495186 S    
Cu1   Cu2   2.705101 S    
C5    C15   1.411522 A    
N1    C18   1.356912 A    
C7    C9    1.400396 A    
O4    Cu1   1.964636 S    
C2    C20   1.433993 S    
C26   H8    1.085571 S    
O3    C1    1.297767 A    
O8    Cu1   1.923637 S    
N4    C18   1.356031 A    
