data_mof_unit_1444.cif
_audit_creation_date              2012-12-10T17:39:21-0500
_audit_creation_method            fapswitch 2.2
_symmetry_space_group_name_H-M    P1
_symmetry_Int_Tables_number       1
_space_group_crystal_system       triclinic
_cell_length_a                    12.357457
_cell_length_b                    13.250682
_cell_length_c                    27.777362
_cell_angle_alpha                 76.78048
_cell_angle_beta                  101.250722
_cell_angle_gamma                 117.022811
_cell_volume                      3922.58631828

loop_
_atom_site_label
_atom_site_type_symbol
_atom_type_description
_atom_site_fract_x
_atom_site_fract_y
_atom_site_fract_z
_atom_type_partial_charge
C1    C     C_R   0.854661 0.286513 0.505846 0.788965
C2    C     C_R   0.914374 0.527983 0.710360 -0.187089
C3    C     C_R   0.998360 0.501439 0.746138 0.272740
C4    C     C_R   0.993630 0.500079 0.897631 -0.047523
C5    C     C_R   0.944840 0.396027 0.878996 -0.035213
C6    C     C_R   0.897952 0.292225 0.911417 -0.168334
C7    C     C_R   0.045075 0.604609 0.865290 -0.019252
C8    C     C_R   0.999622 0.500678 0.645318 -0.094830
C9    C     C_R   0.999251 0.498541 0.354786 -0.036732
C10   C     C_R   0.920303 0.394842 0.029954 -0.060788
C11   C     C_R   0.059665 0.601875 0.019674 0.070788
C12   C     C_R   0.999749 0.499920 0.592390 0.802873
C13   C     C_R   0.991166 0.497966 0.050256 0.005620
C14   C     C_R   0.838229 0.297338 0.059910 0.477330
C15   C     C_R   0.839231 0.301032 0.110211 -0.237099
C16   C     C_R   0.918525 0.398381 0.131504 -0.089383
C17   C     C_R   0.992998 0.497768 0.101482 -0.049135
C18   C     C_R   0.068391 0.597572 0.122695 0.000360
C19   C     C_R   0.069380 0.595235 0.173550 0.527281
C20   C     C_R   0.921624 0.399906 0.182183 0.559216
C21   C     C_R   0.895751 0.492432 0.270986 -0.114521
C22   C     C_R   0.896465 0.492945 0.321156 -0.242474
C23   C     C_R   0.144748 0.713367 0.494102 0.811540
C24   C     C_R   0.100937 0.502723 0.337426 -0.208938
C25   C     C_R   0.100066 0.502359 0.287175 -0.114768
C26   C     C_R   0.997517 0.497257 0.253817 0.361953
C27   C     C_R   0.932972 0.394056 0.980159 0.057785
C28   C     C_R   0.991915 0.499539 0.948653 0.065254
C29   C     C_R   0.050752 0.604283 0.967789 0.044152
C30   C     C_R   0.893848 0.291264 0.961184 -0.137478
C31   C     C_R   0.095769 0.707953 0.883902 -0.140976
C32   C     C_R   0.135992 0.699952 0.042218 -0.206630
C33   C     C_R   0.140567 0.697469 0.092802 -0.152310
C34   C     C_R   0.000029 0.499835 0.407656 0.806716
C35   C     C_R   0.099238 0.708002 0.934227 -0.208336
C36   C     C_R   0.279520 0.020666 0.434327 -0.197864
C37   C     C_R   0.225714 0.835913 0.486550 -0.047506
C38   C     C_R   0.809612 0.090227 0.550002 -0.237050
C39   C     C_R   0.727047 0.979560 0.567301 0.508628
C40   C     C_R   0.602260 0.944949 0.550806 -0.311136
C41   C     C_R   0.560971 0.015011 0.512722 0.021305
C42   C     C_R   0.648820 0.123036 0.492118 0.079443
C43   C     C_R   0.435722 0.980906 0.493796 0.102436
C44   C     C_R   0.401882 0.053735 0.454048 0.168627
C45   C     C_R   0.947127 0.398419 0.828421 0.600053
C46   C     C_R   0.490737 0.156098 0.432633 -0.234243
C47   C     C_R   0.612522 0.188528 0.450323 -0.168959
C48   C     C_R   0.343154 0.874258 0.511267 -0.268737
C49   C     C_R   0.191980 0.911574 0.450223 -0.180070
C50   C     C_R   0.771392 0.163683 0.513898 -0.175532
C51   C     C_R   0.341400 0.322343 0.578281 -0.295040
C52   C     C_R   0.754168 0.635916 0.428513 0.673093
C53   C     C_R   0.642758 0.640724 0.407038 -0.399849
C54   C     C_R   0.538986 0.579862 0.431764 -0.230204
C55   C     C_R   0.543514 0.517158 0.479570 0.007428
C56   C     C_R   0.044665 0.603124 0.814887 0.531047
C57   C     C_R   0.651153 0.500246 0.497088 0.195961
C58   C     C_R   0.442530 0.465496 0.509159 -0.119073
C59   C     C_R   0.441871 0.380222 0.550492 0.109445
C60   C     C_R   0.542834 0.355322 0.564460 -0.235235
C61   C     C_R   0.646586 0.416447 0.539276 -0.164933
C62   C     C_R   0.344644 0.498946 0.501330 0.620479
C63   C     C_R   0.243132 0.351145 0.565987 -0.027185
C64   C     C_R   0.085155 0.476537 0.731624 0.544103
C65   C     C_R   0.084019 0.474316 0.681336 -0.300109
C66   C     C_R   0.915073 0.527865 0.660285 -0.224155
Cu1   Cu    Cu3+1 0.098270 0.475420 0.511360 0.974560
Cu2   Cu    Cu3+1 0.901730 0.524580 0.488640 0.964588
H1    H     H_    0.849260 0.548791 0.633333 0.164378
H2    H     H_    0.134115 0.789612 0.859673 0.189367
H3    H     H_    0.196355 0.779362 0.021874 0.141948
H4    H     H_    0.181397 0.507219 0.362543 0.169750
H5    H     H_    0.200670 0.774825 0.108333 0.185156
H6    H     H_    0.178941 0.505915 0.274106 0.137693
H7    H     H_    0.137722 0.791073 0.945601 0.145165
H8    H     H_    0.099788 0.884195 0.432282 0.161243
H9    H     H_    0.466329 0.210016 0.401088 0.145555
H10   H     H_    0.252856 0.076553 0.404590 0.136018
H11   H     H_    0.848172 0.548270 0.721467 0.161149
H12   H     H_    0.360143 0.815756 0.542134 0.133677
H13   H     H_    0.903513 0.120493 0.566706 0.172671
H14   H     H_    0.540484 0.863290 0.568612 0.132612
H15   H     H_    0.678106 0.264840 0.430064 0.162856
H16   H     H_    0.164666 0.305162 0.586910 0.153402
H17   H     H_    0.543281 0.290311 0.596229 0.157771
H18   H     H_    0.338996 0.255278 0.609450 0.163758
H19   H     H_    0.865251 0.210954 0.898593 0.188449
H20   H     H_    0.455163 0.581787 0.412351 0.216099
H21   H     H_    0.632597 0.688698 0.370761 0.165460
H22   H     H_    0.719807 0.392731 0.553419 0.203622
H23   H     H_    0.816459 0.488585 0.333616 0.158548
H24   H     H_    0.816270 0.488627 0.245358 0.140564
H25   H     H_    0.774502 0.228473 0.132495 0.193671
H26   H     H_    0.865107 0.208696 0.984641 0.185060
H27   H     H_    0.149076 0.451800 0.670709 0.173128
N1    N     N_R   0.996245 0.500989 0.797587 -0.451005
N2    N     N_R   0.996674 0.497272 0.202123 -0.466595
N3    N     N_R   0.246290 0.438210 0.528570 -0.213949
N4    N     N_R   0.754320 0.561170 0.471730 -0.241702
O1    O     O_R   0.972510 0.318140 0.514280 -0.583785
O2    O     O_2   0.850959 0.304630 0.211422 -0.547781
O3    O     O_2   0.093126 0.702754 0.783474 -0.550007
O4    O     O_2   0.141275 0.690394 0.194189 -0.545392
O5    O     O_R   0.806530 0.359640 0.495100 -0.603090
O6    O     O_R   0.082990 0.479270 0.579320 -0.590361
O7    O     O_R   0.917010 0.520770 0.560140 -0.610649
O8    O     O_R   0.193470 0.640360 0.504900 -0.544195
O9    O     O_R   0.027490 0.681860 0.485720 -0.546743
O10   O     O_R   0.082990 0.479230 0.439860 -0.551872
O11   O     O_R   0.917010 0.520730 0.420680 -0.547827
O12   O     O_2   0.900291 0.299210 0.810108 -0.522373
O13   O     O_3   0.165955 0.447625 0.767193 -0.562209
C67   C     C_3   0.281833 0.541994 0.766246 -0.309203
H28   H     H_    0.278301 0.620121 0.772954 0.182390
H29   H     H_    0.320309 0.559662 0.730594 0.153670
H30   H     H_    0.345002 0.521026 0.796594 0.200994
O14   O     O_3   0.769594 0.914000 0.605480 -0.603110
C68   C     C_3   0.724866 0.799287 0.597387 0.061453
H31   H     H_    0.804727 0.780412 0.599500 0.167297
H32   H     H_    0.674043 0.782835 0.560026 0.110288
C69   C     C_3   0.646150 0.717216 0.638628 -0.344670
H33   H     H_    0.704153 0.722825 0.674844 0.234576
H34   H     H_    0.573285 0.742291 0.641167 0.216541
C70   C     C_3   0.586776 0.593526 0.629081 -0.915501
H35   H     H_    0.522942 0.585332 0.594537 0.253605
H36   H     H_    0.534335 0.535795 0.660520 0.262059
H37   H     H_    0.657211 0.566459 0.625420 0.257070
O15   O     O_3   0.349075 0.595906 0.468462 -0.574897
C71   C     C_3   0.437256 0.694133 0.488633 -0.317407
H38   H     H_    0.429123 0.770718 0.465316 0.207158
H39   H     H_    0.423704 0.690155 0.527542 0.153314
H40   H     H_    0.531991 0.707154 0.487953 0.151039
O16   O     O_3   0.862618 0.695003 0.405813 -0.583683
C72   C     C_3   0.865019 0.783829 0.365737 0.008228
H41   H     H_    0.961072 0.849154 0.364332 0.159391
H42   H     H_    0.814855 0.831355 0.371166 0.131564
C73   C     C_3   0.824778 0.738335 0.316080 -0.360763
H43   H     H_    0.893813 0.713221 0.308852 0.236177
H44   H     H_    0.736034 0.660963 0.317461 0.211295
C74   C     C_3   0.813079 0.829331 0.273235 -0.875636
H45   H     H_    0.742113 0.853728 0.278944 0.258220
H46   H     H_    0.786110 0.794616 0.237769 0.257041
H47   H     H_    0.901730 0.906766 0.270492 0.260934
O17   O     O_3   0.743592 0.208499 0.037670 -0.574277
C75   C     C_3   0.731317 0.099969 0.064421 -0.355021
H48   H     H_    0.670713 0.071645 0.094247 0.185262
H49   H     H_    0.820991 0.098595 0.079991 0.153400
H50   H     H_    0.686797 0.036431 0.038526 0.196889

loop_
_geom_bond_atom_site_label_1
_geom_bond_atom_site_label_2
_ccdc_geom_bond_type
C10   C27   A    
C58   C62   A    
C12   O7    A    
C21   C26   A    
C8    C66   A    
C41   C42   A    
C74   H47   S    
C12   O6    A    
O15   C71   S    
C72   C73   S    
C75   H48   S    
C19   N2    A    
C53   C54   A    
C52   C53   A    
C73   H44   S    
C35   H7    S    
C28   C29   A    
C74   H46   S    
C25   H6    S    
C63   N3    A    
C5    C6    A    
C9    C22   A    
C64   O13   S    
C66   H1    S    
C15   C16   A    
C57   N4    A    
C1    O1    A    
C54   H20   S    
C18   C19   A    
C46   C47   A    
C68   H31   S    
C69   C70   S    
C2    H11   S    
Cu1   N3    S    
C4    C28   A    
C62   N3    A    
C19   O4    S    
Cu1   O10   S    
C31   H2    S    
C20   N2    A    
C16   C17   A    
C22   H23   S    
C3    N1    S    
C47   H15   S    
C43   C48   A    
C16   C20   A    
C71   H40   S    
C59   C60   A    
C21   C22   A    
C27   C30   A    
C52   O16   S    
C41   C43   A    
Cu2   O7    S    
C7    C56   A    
C4    C7    A    
C51   H18   S    
O13   C67   S    
C75   H49   S    
C44   C46   A    
C32   H3    S    
C73   C74   S    
C14   O17   S    
C7    C31   A    
Cu1   Cu2   S    
C40   H14   S    
C51   C63   A    
C24   C25   A    
C10   C14   A    
C39   C40   A    
Cu1   O6    S    
C72   H42   S    
C20   O2    S    
C58   C59   A    
C39   O14   S    
C48   H12   S    
C5    C45   A    
C6    H19   S    
C60   C61   A    
C68   C69   S    
C43   C44   A    
C37   C49   A    
C65   H27   S    
C8    C12   S    
C23   O8    A    
C17   C18   A    
C49   H8    S    
C25   C26   A    
Cu2   O11   S    
C74   H45   S    
C37   C48   A    
C1    O5    A    
C69   H33   S    
Cu1   O1    S    
C42   C50   A    
C70   H37   S    
C33   H5    S    
C40   C41   A    
C6    C30   A    
C11   C32   A    
C55   C57   A    
C38   H13   S    
C53   H21   S    
O16   C72   S    
C34   O11   A    
C31   C35   A    
C36   C44   A    
C51   C59   A    
C75   H50   S    
C61   H22   S    
C24   H4    S    
C70   H36   S    
C67   H28   S    
C1    C50   S    
C56   N1    A    
C54   C55   A    
Cu2   O5    S    
C4    C5    A    
C2    C66   A    
C10   C13   A    
C15   H25   S    
C46   H9    S    
C60   H17   S    
C45   O12   S    
C9    C24   A    
C57   C61   A    
C72   H41   S    
C38   C50   A    
C73   H43   S    
C29   C35   A    
C52   N4    A    
C13   C17   A    
C63   H16   S    
O17   C75   S    
C32   C33   A    
C67   H30   S    
C2    C3    A    
C71   H38   S    
Cu2   N4    S    
C56   O3    S    
C30   H26   S    
C23   C37   S    
O14   C68   S    
C64   C65   A    
C62   O15   S    
C11   C13   A    
Cu1   O8    S    
C38   C39   A    
C23   O9    A    
C9    C34   S    
C42   C47   A    
C3    C64   A    
C18   C33   A    
C68   H32   S    
C69   H34   S    
C26   N2    S    
C8    C65   A    
C11   C29   A    
C55   C58   A    
C27   C28   A    
C34   O10   A    
C14   C15   A    
C36   H10   S    
Cu2   O9    S    
C67   H29   S    
C45   N1    A    
C36   C49   A    
C70   H35   S    
C71   H39   S    
C21   H24   S    
