data_mof_unit_153.cif
_audit_creation_date              2012-12-10T17:22:07-0500
_audit_creation_method            fapswitch 2.2
_symmetry_space_group_name_H-M    P1
_symmetry_Int_Tables_number       1
_space_group_crystal_system       triclinic
_cell_length_a                    15.922372
_cell_length_b                    10.978279
_cell_length_c                    9.733194
_cell_angle_alpha                 92.03332
_cell_angle_beta                  91.502109
_cell_angle_gamma                 97.96718
_cell_volume                      1683.04833256

loop_
_atom_site_label
_atom_site_type_symbol
_atom_type_description
_atom_site_fract_x
_atom_site_fract_y
_atom_site_fract_z
_atom_type_partial_charge
C1    C     C_R   0.498137 0.261936 0.500006 0.802717
C2    C     C_3   0.946653 0.402345 0.609519 0.223916
C3    C     C_3   0.916860 0.492076 0.499402 -0.078664
C4    C     C_3   0.968347 0.625636 0.510183 0.225128
C5    C     C_3   0.064574 0.614745 0.528753 -0.638053
C6    C     C_1   0.824700 0.495091 0.504544 0.103855
C7    C     C_1   0.174821 0.486033 0.485884 0.098729
C8    C     C_1   0.250647 0.491595 0.491062 -0.151249
C9    C     C_R   0.455719 0.110240 0.756025 0.415946
C10   C     C_R   0.387740 0.055608 0.830861 -0.261465
C11   C     C_R   0.350163 0.934506 0.799360 0.423135
C12   C     C_R   0.340535 0.497379 0.497864 0.800964
C13   C     C_R   0.382995 0.867956 0.691659 -0.251615
C14   C     C_R   0.443923 0.928507 0.605911 -0.070243
C15   C     C_R   0.468022 0.057551 0.623327 -0.057855
C16   C     C_R   0.492001 0.126008 0.503890 -0.172731
C17   C     C_R   0.494168 0.060959 0.378847 -0.266933
C18   C     C_R   0.486919 0.932245 0.372867 0.444331
C19   C     C_R   0.474611 0.866337 0.494373 -0.154664
C20   C     C_R   0.643902 0.639464 0.146959 0.416441
C21   C     C_R   0.717707 0.663740 0.068360 0.289744
C22   C     C_R   0.709994 0.668447 0.927597 -0.319210
C23   C     C_R   0.490685 0.735179 0.499803 0.791679
C24   C     C_R   0.632285 0.633708 0.863000 -0.214548
C25   C     C_R   0.565942 0.566744 0.930173 0.086652
C26   C     C_R   0.568253 0.568296 0.079451 0.008370
C27   C     C_R   0.438648 0.431018 0.067177 0.404634
C28   C     C_R   0.438029 0.433267 0.920705 -0.016912
C29   C     C_R   0.659394 0.498530 0.501597 0.826103
C30   C     C_3   0.043386 0.387883 0.595865 0.646598
C31   C     C_3   0.038682 0.449013 0.343323 0.237441
C32   C     C_3   0.939305 0.439491 0.353955 0.057648
C33   C     C_1   0.749157 0.496270 0.505073 -0.140152
C34   C     C_3   0.082283 0.482455 0.488770 0.006293
Cu1   Cu    Cu3+1 0.499990 0.499990 0.640660 0.947722
Cu2   Cu    Cu3+1 0.500010 0.500010 0.359340 1.049455
H1    H     H_    0.911827 0.311215 0.575402 0.201607
H2    H     H_    0.958807 0.668910 0.409717 0.126506
H3    H     H_    0.499668 0.109751 0.283969 0.188336
H4    H     H_    0.370094 0.102161 0.923492 0.208986
H5    H     H_    0.356945 0.772799 0.668461 0.148324
H6    H     H_    0.763547 0.703922 0.868052 0.191285
H7    H     H_    0.624471 0.661453 0.760507 0.227949
H8    H     H_    0.387354 0.377318 0.861727 0.175047
H9    H     H_    0.060540 0.526598 0.277576 0.078537
H10   H     H_    0.915777 0.497035 0.273953 0.152258
H11   H     H_    0.089324 0.642666 0.634383 0.235834
H12   H     H_    0.100633 0.681267 0.460550 0.168918
N1    N     N_R   0.500800 0.501210 0.147910 -0.205171
N2    N     N_R   0.500820 0.501290 0.852040 -0.199505
O1    O     O_R   0.499990 0.319640 0.618810 -0.541191
O2    O     O_R   0.500000 0.319660 0.381240 -0.550480
O3    O     O_R   0.379430 0.499990 0.618840 -0.594785
O4    O     O_R   0.379440 0.500020 0.381260 -0.522735
O5    O     O_R   0.500000 0.680340 0.618760 -0.615545
O6    O     O_R   0.500010 0.680360 0.381190 -0.490260
O7    O     O_R   0.620560 0.499980 0.618740 -0.605964
O8    O     O_R   0.620570 0.500010 0.381160 -0.509890
Cl1   Cl    Cl    0.102579 0.418330 0.760113 -0.724187
O9    O     O_3   0.917479 0.409420 0.746858 -0.621385
C35   C     C_3   0.934990 0.526324 0.813433 0.167095
H13   H     H_    0.880015 0.576915 0.797403 0.186230
H14   H     H_    0.993264 0.579050 0.777175 0.212643
C36   C     C_3   0.948770 0.513909 0.967923 -0.283299
H15   H     H_    0.886390 0.493756 0.016577 0.242174
H16   H     H_    0.985038 0.436531 0.987959 0.296519
C37   C     C_3   0.998509 0.632862 0.031079 -0.856257
H17   H     H_    0.065896 0.639210 0.002875 0.255956
H18   H     H_    0.994528 0.637055 0.143917 0.256756
H19   H     H_    0.972207 0.714023 0.993493 0.290301
O10   O     O_3   0.510744 0.204869 0.823507 -0.587518
C38   C     C_3   0.597582 0.192972 0.805274 0.086805
H20   H     H_    0.619691 0.229432 0.705671 0.159293
H21   H     H_    0.609928 0.096643 0.807503 0.129119
C39   C     C_3   0.651277 0.265842 0.921016 -0.357225
H22   H     H_    0.646886 0.365138 0.912620 0.242227
H23   H     H_    0.626846 0.236308 0.022269 0.222878
C40   C     C_3   0.744263 0.247113 0.913927 -0.815528
H24   H     H_    0.750922 0.148586 0.925748 0.254852
H25   H     H_    0.781514 0.302266 0.998265 0.287111
H26   H     H_    0.770079 0.277327 0.813910 0.276897
O11   O     O_3   0.282834 0.886315 0.878098 -0.606249
C41   C     C_3   0.287062 0.763545 0.914258 0.046568
H27   H     H_    0.352817 0.739181 0.915768 0.144433
H28   H     H_    0.246840 0.700015 0.839830 0.176089
C42   C     C_3   0.252989 0.746990 0.058786 -0.369602
H29   H     H_    0.294754 0.808337 0.133198 0.254579
H30   H     H_    0.188507 0.774395 0.062096 0.229875
C43   C     C_3   0.249528 0.614385 0.102356 -0.776649
H31   H     H_    0.209397 0.550477 0.028468 0.295737
H32   H     H_    0.222083 0.605323 0.205782 0.252396
H33   H     H_    0.314499 0.588911 0.107535 0.274781
O12   O     O_3   0.473286 0.870016 0.247063 -0.591086
C44   C     C_3   0.540881 0.903723 0.159414 0.033309
H34   H     H_    0.568967 0.820258 0.141176 0.203659
H35   H     H_    0.591947 0.977285 0.199772 0.086635
C45   C     C_3   0.508722 0.941120 0.022732 -0.360628
H36   H     H_    0.439263 0.915487 0.017336 0.263374
H37   H     H_    0.523961 0.042232 0.016028 0.222624
C46   C     C_3   0.548622 0.875111 0.906079 -0.914593
H38   H     H_    0.617969 0.878243 0.925416 0.252496
H39   H     H_    0.540787 0.916703 0.807708 0.258188
H40   H     H_    0.515857 0.779670 0.895303 0.274748
Cl2   Cl    Cl    0.359298 0.330050 0.142326 -0.593106
O13   O     O_3   0.045853 0.268217 0.533983 -0.585606
C47   C     C_3   0.082716 0.181767 0.610410 0.150499
H41   H     H_    0.051534 0.090437 0.570142 0.152340
H42   H     H_    0.069084 0.185051 0.721679 0.184359
C48   C     C_3   0.177645 0.190653 0.582390 -0.323603
H43   H     H_    0.187713 0.203527 0.470941 0.274507
H44   H     H_    0.213383 0.270744 0.640924 0.243578
C49   C     C_3   0.213368 0.075005 0.622674 -0.892108
H45   H     H_    0.207473 0.062857 0.734900 0.288463
H46   H     H_    0.281279 0.084239 0.596489 0.265602
H47   H     H_    0.179391 0.992650 0.565390 0.248606
O14   O     O_3   0.643726 0.688566 0.281986 -0.554900
C50   C     C_3   0.690682 0.807959 0.309944 0.080049
H48   H     H_    0.647002 0.867177 0.354821 0.138204
H49   H     H_    0.715125 0.855737 0.217244 0.127032
C51   C     C_3   0.762065 0.806850 0.418922 -0.262362
H50   H     H_    0.790283 0.720696 0.409400 0.265863
H51   H     H_    0.812932 0.884449 0.401999 0.207192
C52   C     C_3   0.730846 0.821399 0.564593 -0.910114
H52   H     H_    0.716254 0.916410 0.584391 0.242933
H53   H     H_    0.780143 0.802697 0.640512 0.264213
H54   H     H_    0.672633 0.755858 0.576956 0.259956
Cl3   Cl    Cl    0.820587 0.696616 0.141227 -0.767160
Cl4   Cl    Cl    0.074838 0.320974 0.252779 -0.473724
Cl5   Cl    Cl    0.883123 0.288233 0.310662 -0.576397
O15   O     O_3   0.938953 0.702209 0.613646 -0.607657
C53   C     C_3   0.976996 0.826838 0.607518 0.068375
H55   H     H_    0.929340 0.882599 0.567768 0.169410
H56   H     H_    0.031310 0.841566 0.537420 0.108066
C54   C     C_3   0.009131 0.875438 0.751609 -0.378338
H57   H     H_    0.040594 0.804786 0.803561 0.229279
H58   H     H_    0.057923 0.956802 0.744273 0.186228
C55   C     C_3   0.937744 0.912370 0.838573 -0.761780
H59   H     H_    0.909185 0.987866 0.790396 0.242162
H60   H     H_    0.963319 0.945048 0.942652 0.272410
H61   H     H_    0.888057 0.832438 0.848996 0.264119

loop_
_geom_bond_atom_site_label_1
_geom_bond_atom_site_label_2
_ccdc_geom_bond_type
O12   C44   S    
Cu1   O3    S    
Cu1   Cu2   S    
C2    H1    S    
C3    C6    S    
C54   C55   S    
C13   H5    S    
C45   H36   S    
C52   H52   S    
C5    H11   S    
C20   C26   A    
C21   C22   A    
Cu2   O8    S    
C1    O2    A    
C50   H49   S    
C40   H25   S    
C52   H53   S    
C47   H41   S    
C15   C16   A    
C29   C33   S    
C27   Cl2   S    
O14   C50   S    
C10   H4    S    
C18   C19   A    
C17   H3    S    
C35   H14   S    
C25   N2    A    
C49   H45   S    
C28   N2    A    
C41   H27   S    
C16   C17   A    
C21   Cl3   S    
C9    C10   A    
C12   O3    A    
Cu2   O2    S    
C51   C52   S    
C53   C54   S    
C13   C14   A    
C30   Cl1   S    
C35   H13   S    
C2    O9    S    
C31   Cl4   S    
C38   C39   S    
C49   H46   S    
C32   Cl5   S    
C45   H37   S    
C51   H51   S    
C11   O11   S    
C5    H12   S    
C30   C34   S    
Cu1   O5    S    
C37   H17   S    
C36   C37   S    
C23   O6    A    
Cu2   O4    S    
C24   C25   A    
C38   H21   S    
C48   C49   S    
C20   O14   S    
C40   H24   S    
C38   H20   S    
C52   H54   S    
C4    O15   S    
C44   C45   S    
C25   C26   A    
C28   H8    S    
C46   H40   S    
C3    C4    S    
O9    C35   S    
C37   H18   S    
C36   H16   S    
C35   C36   S    
C19   C23   S    
C39   H22   S    
Cu2   O6    S    
C55   H60   S    
C31   C32   S    
C8    C12   S    
C5    C34   S    
Cu1   N2    S    
C46   H39   S    
C17   C18   A    
C31   C34   S    
C3    C32   S    
C1    C16   S    
C20   C21   A    
C43   H33   S    
C44   H35   S    
C1    O1    A    
C41   H28   S    
C29   O7    A    
C30   O13   S    
Cu1   O1    S    
C7    C34   S    
C22   C24   A    
C50   C51   S    
C43   H32   S    
C53   H55   S    
C45   C46   S    
C51   H50   S    
C55   H59   S    
C24   H7    S    
C42   H29   S    
C32   H10   S    
C14   C19   A    
C9    O10   S    
C4    H2    S    
C4    C5    S    
C53   H56   S    
C42   C43   S    
C54   H58   S    
C23   O5    A    
C54   H57   S    
O13   C47   S    
C6    C33   T    
Cu1   O7    S    
C2    C30   S    
C37   H19   S    
C36   H15   S    
C48   H44   S    
C2    C3    S    
C9    C15   A    
O10   C38   S    
C50   H48   S    
C11   C13   A    
C40   H26   S    
C22   H6    S    
C47   H42   S    
C55   H61   S    
C46   H38   S    
O15   C53   S    
C42   H30   S    
C44   H34   S    
C39   C40   S    
C7    C8    T    
C10   C11   A    
C27   N1    A    
C41   C42   S    
C29   O8    A    
O11   C41   S    
C31   H9    S    
C39   H23   S    
C27   C28   A    
C18   O12   S    
C14   C15   A    
C43   H31   S    
C48   H43   S    
C49   H47   S    
C12   O4    A    
Cu2   N1    S    
C26   N1    A    
C47   C48   S    
