data_mof_unit_4021.cif
_audit_creation_date              2012-12-11T16:48:35-0500
_audit_creation_method            fapswitch 2.2
_symmetry_space_group_name_H-M    P1
_symmetry_Int_Tables_number       1
_space_group_crystal_system       triclinic
_cell_length_a                    17.359702
_cell_length_b                    24.291774
_cell_length_c                    15.161255
_cell_angle_alpha                 89.192814
_cell_angle_beta                  125.81443
_cell_angle_gamma                 91.04573
_cell_volume                      5183.66104729

loop_
_atom_site_label
_atom_site_type_symbol
_atom_type_description
_atom_site_fract_x
_atom_site_fract_y
_atom_site_fract_z
_atom_type_partial_charge
C1    C     C_R   0.310715 0.374662 0.909889 -0.163864
C2    C     C_R   0.680813 0.366534 0.090234 -0.191576
C3    C     C_R   0.810781 0.874592 0.909693 -0.165668
C4    C     C_R   0.181132 0.866842 0.090236 -0.193438
C5    C     C_R   0.380668 0.681960 0.000758 0.069653
C6    C     C_R   0.616639 0.684298 0.000509 0.064035
C7    C     C_R   0.880915 0.182041 0.000760 0.068686
C8    C     C_R   0.116672 0.184404 0.000786 0.064196
C9    C     C_R   0.540212 0.499525 0.349204 0.177688
C10   C     C_R   0.529937 0.504588 0.706281 0.173514
C11   C     C_R   0.031027 0.999282 0.343608 0.182940
C12   C     C_R   0.031991 0.004862 0.708237 0.165864
C13   C     C_R   0.186216 0.500182 0.647574 0.010881
C14   C     C_R   0.825115 0.502262 0.279506 0.052509
C15   C     C_R   0.686411 0.000154 0.647373 0.009796
C16   C     C_R   0.325157 0.002123 0.280260 0.053998
C17   C     C_2   0.981451 0.463191 0.362947 -0.106760
C18   C     C_2   0.078426 0.467265 0.461279 -0.094932
C19   C     C_2   0.481267 0.962886 0.363269 -0.104084
C20   C     C_2   0.578402 0.967056 0.461231 -0.099557
C21   C     C_2   0.925879 0.507068 0.329795 -0.184534
C22   C     C_2   0.098226 0.501901 0.540575 -0.141777
C23   C     C_2   0.425818 0.006809 0.330105 -0.187115
C24   C     C_2   0.598448 0.001861 0.540401 -0.142483
C25   C     C_R   0.384690 0.761155 0.103689 0.159391
C26   C     C_R   0.612272 0.765030 0.899875 0.143559
C27   C     C_R   0.884941 0.261279 0.103674 0.156696
C28   C     C_R   0.111365 0.265721 0.900389 0.142664
C29   C     C_R   0.359496 0.738952 0.005174 0.032974
C30   C     C_R   0.637099 0.742413 0.998385 0.042669
C31   C     C_R   0.859732 0.239037 0.005167 0.032839
C32   C     C_R   0.137105 0.242623 0.998961 0.042471
C33   C     C_R   0.298088 0.769094 0.909063 -0.205566
C34   C     C_R   0.701887 0.770681 0.095651 -0.186048
C35   C     C_R   0.798092 0.269091 0.909010 -0.205252
C36   C     C_R   0.202359 0.270681 0.096354 -0.183833
C37   C     C_R   0.743727 0.310811 0.908830 -0.201630
C38   C     C_R   0.251416 0.316430 0.095953 -0.203152
C39   C     C_R   0.243966 0.810968 0.908910 -0.202245
C40   C     C_R   0.751119 0.816320 0.095253 -0.205072
C41   C     C_R   0.751822 0.321982 0.004798 0.038017
C42   C     C_R   0.236236 0.334022 0.998332 0.046313
C43   C     C_R   0.252049 0.822189 0.004849 0.037690
C44   C     C_R   0.736344 0.833679 0.997734 0.044620
C45   C     C_R   0.443061 0.650389 0.090557 -0.143049
C46   C     C_R   0.557299 0.652024 0.910336 -0.150157
C47   C     C_R   0.943249 0.150453 0.090537 -0.135740
C48   C     C_R   0.057138 0.152173 0.910556 -0.152881
C49   C     C_R   0.831361 0.302329 0.103393 0.162733
C50   C     C_R   0.160916 0.311280 0.900077 0.133017
C51   C     C_R   0.331359 0.802354 0.103443 0.162520
C52   C     C_R   0.661801 0.810503 0.899542 0.133323
C53   C     C_3   0.842119 0.279611 0.202358 -0.529618
C54   C     C_3   0.071224 0.340146 0.816021 -0.474293
C55   C     C_3   0.341699 0.779576 0.202146 -0.529563
C56   C     C_3   0.572198 0.838865 0.813691 -0.475650
C57   C     C_3   0.399900 0.734388 0.202489 -0.520820
C58   C     C_3   0.518487 0.789630 0.814185 -0.507050
C59   C     C_3   0.900592 0.234578 0.202758 -0.518357
C60   C     C_3   0.017549 0.290923 0.816546 -0.505073
C61   C     C_R   0.617333 0.485265 0.630657 0.113638
C62   C     C_R   0.618360 0.482006 0.541371 0.112033
C63   C     C_R   0.114577 0.983328 0.627186 0.116094
C64   C     C_R   0.111709 0.979669 0.535436 0.104492
C65   C     C_R   0.543422 0.511792 0.623287 -0.213518
C66   C     C_R   0.540991 0.501416 0.442288 -0.211752
C67   C     C_R   0.045333 0.012551 0.624978 -0.200710
C68   C     C_R   0.034440 0.001158 0.438450 -0.198455
C69   C     C_R   0.478182 0.543738 0.530329 0.398548
C70   C     C_R   0.470116 0.532315 0.435431 0.340319
C71   C     C_R   0.982517 0.046848 0.534792 0.372074
C72   C     C_R   0.968996 0.034834 0.436818 0.354635
C73   C     C_3   0.660121 0.425701 0.572549 -0.477883
C74   C     C_3   0.659140 0.429611 0.671708 -0.442365
C75   C     C_3   0.150009 0.922512 0.563547 -0.477422
C76   C     C_3   0.153347 0.926865 0.665527 -0.444317
C77   C     C_R   0.537255 0.453411 0.296479 -0.220903
C78   C     C_R   0.502627 0.456379 0.732184 -0.193280
C79   C     C_R   0.032820 0.953268 0.293802 -0.232931
C80   C     C_R   0.003666 0.956567 0.733050 -0.195860
C81   C     C_R   0.238110 0.545855 0.706882 -0.233498
C82   C     C_R   0.767151 0.546952 0.247489 -0.254170
C83   C     C_R   0.738191 0.045838 0.706747 -0.234576
C84   C     C_R   0.267247 0.046886 0.247854 -0.254173
C85   C     C_R   0.533629 0.545665 0.292392 -0.067119
C86   C     C_R   0.513706 0.548180 0.748089 -0.039937
C87   C     C_R   0.027936 0.045616 0.288943 -0.061870
C88   C     C_R   0.015427 0.048253 0.750131 -0.038041
C89   C     C_R   0.239790 0.454386 0.702187 0.512945
C90   C     C_R   0.770781 0.455666 0.263655 0.503490
C91   C     C_R   0.739922 0.954365 0.702112 0.513210
C92   C     C_R   0.270689 0.955580 0.264320 0.502331
C93   C     C_R   0.350033 0.651045 0.909046 -0.116576
C94   C     C_R   0.647191 0.652218 0.091020 -0.128267
C95   C     C_R   0.850158 0.151084 0.909054 -0.114910
C96   C     C_R   0.147283 0.152198 0.091161 -0.129085
C97   C     C_R   0.402179 0.374564 0.091563 -0.110228
C98   C     C_R   0.590059 0.366101 0.909065 -0.123430
C99   C     C_R   0.902241 0.874208 0.091361 -0.110571
C100  C     C_R   0.090160 0.866184 0.909071 -0.122062
C101  C     C_R   0.312184 0.361940 0.000265 0.053956
C102  C     C_R   0.676500 0.349750 0.000953 0.079493
C103  C     C_R   0.812259 0.861706 0.999957 0.056406
C104  C     C_R   0.176750 0.850009 0.000952 0.080030
H1    H     H_    0.251426 0.368658 0.826634 0.161480
H2    H     H_    0.734594 0.356827 0.172588 0.167613
H3    H     H_    0.751587 0.868634 0.826372 0.161938
H4    H     H_    0.235387 0.857500 0.172628 0.167106
H5    H     H_    0.956925 0.548214 0.353666 0.131427
H6    H     H_    0.047233 0.531454 0.529881 0.129554
H7    H     H_    0.456946 0.047955 0.353498 0.130869
H8    H     H_    0.547560 0.031486 0.529740 0.130521
H9    H     H_    0.282364 0.756192 0.832074 0.127819
H10   H     H_    0.721261 0.755069 0.173188 0.121662
H11   H     H_    0.782359 0.256194 0.832012 0.127705
H12   H     H_    0.222296 0.254797 0.173948 0.119583
H13   H     H_    0.688838 0.329234 0.831882 0.126788
H14   H     H_    0.307105 0.334286 0.173234 0.119016
H15   H     H_    0.189217 0.829483 0.831990 0.127233
H16   H     H_    0.806386 0.834430 0.172470 0.129647
H17   H     H_    0.884373 0.307468 0.273554 0.209898
H18   H     H_    0.060373 0.378242 0.847184 0.201754
H19   H     H_    0.384082 0.807302 0.273538 0.210087
H20   H     H_    0.560206 0.877152 0.843281 0.200361
H21   H     H_    0.774294 0.263793 0.185846 0.199341
H22   H     H_    0.063294 0.345425 0.738124 0.200164
H23   H     H_    0.273667 0.763954 0.185334 0.199547
H24   H     H_    0.565483 0.843627 0.736417 0.200986
H25   H     H_    0.475540 0.736110 0.274205 0.188329
H26   H     H_    0.475067 0.798970 0.844233 0.203239
H27   H     H_    0.976277 0.236505 0.274332 0.187972
H28   H     H_    0.975339 0.300084 0.848235 0.203468
H29   H     H_    0.364596 0.693356 0.186205 0.211780
H30   H     H_    0.480366 0.765952 0.737081 0.198917
H31   H     H_    0.865622 0.193462 0.186827 0.214432
H32   H     H_    0.978079 0.267801 0.738773 0.199141
H33   H     H_    0.610933 0.393407 0.514378 0.185774
H34   H     H_    0.731412 0.431658 0.749516 0.191547
H35   H     H_    0.097944 0.891073 0.505645 0.185977
H36   H     H_    0.226832 0.927530 0.741579 0.191278
H37   H     H_    0.733001 0.425335 0.593195 0.190096
H38   H     H_    0.609739 0.399292 0.670112 0.176617
H39   H     H_    0.221617 0.920589 0.580929 0.189761
H40   H     H_    0.103610 0.897533 0.665469 0.176858
H41   H     H_    0.492750 0.664126 0.173334 0.100971
H42   H     H_    0.510370 0.666518 0.827460 0.090969
H43   H     H_    0.993050 0.164207 0.173282 0.098561
H44   H     H_    0.009809 0.166832 0.827916 0.091095
H45   H     H_    0.550519 0.411438 0.325940 0.103072
H46   H     H_    0.494594 0.416016 0.699022 0.097291
H47   H     H_    0.046765 0.911445 0.323991 0.107079
H48   H     H_    0.995219 0.916319 0.699377 0.098644
H49   H     H_    0.222891 0.588394 0.680770 0.132734
H50   H     H_    0.787438 0.589740 0.253074 0.135723
H51   H     H_    0.722980 0.088375 0.680614 0.132843
H52   H     H_    0.287619 0.089651 0.253325 0.135362
H53   H     H_    0.541765 0.588294 0.316551 0.092903
H54   H     H_    0.524081 0.591151 0.740264 0.099328
H55   H     H_    0.035777 0.088189 0.313307 0.095394
H56   H     H_    0.026267 0.091294 0.743164 0.108365
H57   H     H_    0.310917 0.665471 0.825893 0.086366
H58   H     H_    0.683119 0.666371 0.173670 0.083190
H59   H     H_    0.811041 0.165497 0.825891 0.086027
H60   H     H_    0.183239 0.166271 0.173864 0.082993
H61   H     H_    0.428817 0.368553 0.175321 0.089851
H62   H     H_    0.560127 0.355514 0.826154 0.087201
H63   H     H_    0.928921 0.867605 0.174960 0.090174
H64   H     H_    0.060206 0.855550 0.826170 0.086752
H65   H     H_    0.952718 0.422405 0.331117 0.169198
H66   H     H_    0.129469 0.437411 0.473409 0.154715
H67   H     H_    0.452373 0.922060 0.331917 0.168936
H68   H     H_    0.629318 0.937136 0.473284 0.154989
N1    N     N_R   0.395410 0.396350 0.944340 -0.048775
N2    N     N_R   0.604590 0.396350 0.055660 -0.048089
N3    N     N_R   0.895410 0.896350 0.944340 -0.048484
N4    N     N_R   0.104590 0.896350 0.055660 -0.048152
N5    N     N_R   0.449930 0.602500 0.055880 -0.039355
N6    N     N_R   0.550070 0.602500 0.944120 -0.040620
N7    N     N_R   0.949930 0.102500 0.055880 -0.038476
N8    N     N_R   0.050070 0.102500 0.944120 -0.040938
N9    N     N_R   0.525080 0.471030 0.205650 -0.045918
N10   N     N_R   0.474920 0.471030 0.794350 -0.059421
N11   N     N_R   0.025080 0.971030 0.205650 -0.045903
N12   N     N_R   0.974920 0.971030 0.794350 -0.059628
N13   N     N_R   0.320260 0.527820 0.794570 -0.061629
N14   N     N_R   0.679740 0.527820 0.205430 -0.063503
N15   N     N_R   0.820260 0.027820 0.794570 -0.061422
N16   N     N_R   0.179740 0.027820 0.205430 -0.063519
N17   N     N_R   0.524590 0.527840 0.205200 -0.049901
N18   N     N_R   0.475410 0.527840 0.794800 -0.050753
N19   N     N_R   0.024590 0.027840 0.205200 -0.050564
N20   N     N_R   0.975410 0.027840 0.794800 -0.051575
N21   N     N_R   0.320750 0.471000 0.795020 -0.107664
N22   N     N_R   0.679250 0.471000 0.204980 -0.111175
N23   N     N_R   0.820750 0.971000 0.795020 -0.107594
N24   N     N_R   0.179250 0.971000 0.204980 -0.111326
N25   N     N_R   0.393620 0.602490 0.942710 -0.035339
N26   N     N_R   0.606380 0.602490 0.057290 -0.032710
N27   N     N_R   0.893620 0.102490 0.942710 -0.034989
N28   N     N_R   0.106380 0.102490 0.057290 -0.032876
N29   N     N_R   0.451720 0.396350 0.057510 -0.041058
N30   N     N_R   0.548280 0.396350 0.942490 -0.041735
N31   N     N_R   0.951720 0.896350 0.057510 -0.041120
N32   N     N_R   0.048280 0.896350 0.942490 -0.041529
Ni1   Ni    Ni4+2 0.435420 0.434270 0.870230 0.201889
Ni2   Ni    Ni4+2 0.564580 0.434270 0.129770 0.193609
Ni3   Ni    Ni4+2 0.935420 0.934270 0.870230 0.201747
Ni4   Ni    Ni4+2 0.064580 0.934270 0.129770 0.193769
Ni5   Ni    Ni4+2 0.563430 0.564580 0.128740 0.198897
Ni6   Ni    Ni4+2 0.436570 0.564580 0.871260 0.210017
Ni7   Ni    Ni4+2 0.063430 0.064580 0.128740 0.199776
Ni8   Ni    Ni4+2 0.936570 0.064580 0.871260 0.210306
O1    O     O_3   0.411598 0.576359 0.527457 -0.654555
C105  C     C_3   0.413240 0.631135 0.493718 0.245962
H69   H     H_    0.342769 0.649434 0.459539 0.121216
H70   H     H_    0.423223 0.633776 0.427827 0.140291
C106  C     C_3   0.489341 0.666808 0.589401 -0.394595
H71   H     H_    0.469721 0.672433 0.646383 0.197623
H72   H     H_    0.559377 0.646338 0.632883 0.201794
C107  C     C_3   0.498128 0.723496 0.551173 -1.003200
H73   H     H_    0.519638 0.719600 0.495466 0.267989
H74   H     H_    0.552770 0.748471 0.622455 0.275383
H75   H     H_    0.429319 0.745063 0.508366 0.269367
O2    O     O_3   0.391631 0.549833 0.335424 -0.669365
C108  C     C_3   0.324289 0.506300 0.286511 0.227786
H76   H     H_    0.287313 0.501913 0.326417 0.114603
H77   H     H_    0.357680 0.466270 0.292492 0.088418
C109  C     C_3   0.251618 0.519658 0.166056 -0.263825
H78   H     H_    0.213981 0.558050 0.157814 0.200718
H79   H     H_    0.289089 0.526519 0.127289 0.213139
C110  C     C_3   0.179162 0.472935 0.107178 -1.027893
H80   H     H_    0.215286 0.434587 0.111916 0.273282
H81   H     H_    0.127196 0.484075 0.020192 0.273788
H82   H     H_    0.140251 0.465486 0.143972 0.269032
O3    O     O_3   0.922374 0.083072 0.536851 -0.664373
C111  C     C_3   0.930150 0.137099 0.504784 0.237939
H83   H     H_    0.859512 0.156680 0.462777 0.123255
H84   H     H_    0.948991 0.138481 0.446159 0.129436
C112  C     C_3   0.002641 0.172086 0.603720 -0.377551
H85   H     H_    0.977285 0.177392 0.655280 0.196977
H86   H     H_    0.072281 0.151035 0.651788 0.200921
C113  C     C_3   0.016112 0.228897 0.569917 -1.004761
H87   H     H_    0.042964 0.225094 0.519384 0.265964
H88   H     H_    0.068550 0.253217 0.643528 0.275774
H89   H     H_    0.947767 0.251129 0.522967 0.268705
O4    O     O_3   0.892253 0.056017 0.339151 -0.675234
C114  C     C_3   0.808508 0.025763 0.304290 0.246607
H90   H     H_    0.748247 0.054790 0.259848 0.123496
H91   H     H_    0.807800 0.008328 0.372363 0.098192
C115  C     C_3   0.791910 0.979818 0.226428 -0.320288
H92   H     H_    0.795412 0.997347 0.160697 0.224611
H93   H     H_    0.848200 0.948429 0.271390 0.193901
C116  C     C_3   0.695341 0.951807 0.175607 -1.018339
H94   H     H_    0.691700 0.932147 0.239704 0.266828
H95   H     H_    0.684550 0.919626 0.118014 0.281834
H96   H     H_    0.637483 0.982255 0.130043 0.269254
O5    O     O_3   0.218354 0.401581 0.659994 -0.694494
C117  C     C_3   0.294653 0.380413 0.662432 0.131972
H97   H     H_    0.355633 0.371303 0.747241 0.124626
H98   H     H_    0.316700 0.409874 0.623786 0.107075
C118  C     C_3   0.262777 0.326685 0.598453 -0.244388
H99   H     H_    0.239815 0.296765 0.635246 0.206147
H100  H     H_    0.201325 0.334671 0.513054 0.194722
C119  C     C_3   0.343000 0.301764 0.598724 -1.059196
H101  H     H_    0.366191 0.330740 0.560915 0.264633
H102  H     H_    0.317686 0.262927 0.551405 0.273386
H103  H     H_    0.404514 0.292409 0.683299 0.270289
O6    O     O_3   0.808341 0.408008 0.325524 -0.701902
C120  C     C_3   0.750267 0.386894 0.355473 0.164319
H104  H     H_    0.677929 0.376170 0.282463 0.102922
H105  H     H_    0.744800 0.417521 0.405569 0.114278
C121  C     C_3   0.795510 0.334570 0.422673 -0.260651
H106  H     H_    0.802556 0.304293 0.373590 0.194772
H107  H     H_    0.867648 0.344531 0.496554 0.212925
C122  C     C_3   0.736146 0.308590 0.456981 -1.057863
H108  H     H_    0.731882 0.337011 0.510513 0.272079
H109  H     H_    0.769973 0.269919 0.502734 0.273745
H110  H     H_    0.663323 0.298747 0.384437 0.267999
O7    O     O_3   0.718878 0.901592 0.659804 -0.694490
C123  C     C_3   0.795207 0.880909 0.661735 0.131295
H111  H     H_    0.856209 0.871497 0.746386 0.124917
H112  H     H_    0.817167 0.910816 0.623623 0.106043
C124  C     C_3   0.763497 0.827537 0.596666 -0.243936
H113  H     H_    0.740928 0.797087 0.633076 0.205352
H114  H     H_    0.701830 0.835805 0.511519 0.194677
C125  C     C_3   0.843668 0.803313 0.595987 -1.057592
H115  H     H_    0.866411 0.832821 0.558457 0.265381
H116  H     H_    0.818499 0.764706 0.547946 0.273504
H117  H     H_    0.905444 0.793718 0.680274 0.269523
O8    O     O_3   0.307763 0.907997 0.326652 -0.700698
C126  C     C_3   0.247776 0.886452 0.353623 0.165135
H118  H     H_    0.175680 0.876608 0.279332 0.104172
H119  H     H_    0.241967 0.916434 0.404366 0.114093
C127  C     C_3   0.290781 0.833251 0.418293 -0.263334
H120  H     H_    0.298833 0.803905 0.368717 0.195803
H121  H     H_    0.362257 0.842220 0.494112 0.213782
C128  C     C_3   0.228448 0.806404 0.447710 -1.057700
H122  H     H_    0.222340 0.833931 0.500974 0.271793
H123  H     H_    0.260952 0.767239 0.492087 0.273690
H124  H     H_    0.156447 0.797249 0.373047 0.268608

loop_
_geom_bond_atom_site_label_1
_geom_bond_atom_site_label_2
_ccdc_geom_bond_type
C99   C103  A    
C19   C20   S    
N3    Ni3   S    
C60   H28   S    
C58   H30   S    
C59   H27   S    
C14   C21   S    
C63   C76   S    
C85   N17   A    
C29   C33   A    
C16   C84   A    
C108  C109  S    
N1    N29   A    
C72   O4    S    
N26   Ni5   S    
C14   C90   A    
C126  H118  S    
C121  H106  S    
C6    C94   A    
C113  H88   S    
N29   Ni2   S    
C35   H11   S    
C115  C116  S    
C57   H29   S    
C20   H68   S    
C41   C49   A    
C109  H78   S    
C99   H63   S    
C18   H66   S    
C25   C29   A    
C55   H19   S    
C113  H89   S    
C27   C31   A    
C28   C32   A    
C62   C66   A    
C98   C102  A    
C17   C21   D    
C19   C23   D    
C75   C76   S    
C95   H59   S    
C54   H22   S    
C93   H57   S    
C68   C72   A    
C89   N21   A    
C9    C77   A    
C11   C79   A    
C76   H40   S    
C6    C30   S    
C120  H105  S    
C1    C101  A    
C116  H95   S    
C114  C115  S    
C3    C103  A    
C125  H117  S    
C92   N24   A    
C61   C74   S    
N4    Ni4   S    
N18   Ni6   S    
C125  H116  S    
C84   H52   S    
C46   H42   S    
C73   H33   S    
C121  C122  S    
C49   C53   S    
C4    C104  A    
C87   H55   S    
C110  H82   S    
C51   C55   S    
C88   H56   S    
C69   C70   A    
C15   C91   A    
C61   C65   A    
C37   H13   S    
N14   Ni5   S    
C92   O8    S    
N2    Ni2   S    
N17   Ni5   S    
N10   N18   A    
C115  H93   S    
C109  C110  S    
C1    H1    S    
C24   H8    S    
C100  C104  A    
C10   C78   A    
C66   C70   A    
C1    N1    A    
N12   Ni3   S    
C45   H41   S    
C64   C68   A    
C126  H119  S    
O8    C126  S    
C118  H99   S    
C97   H61   S    
C83   H51   S    
C2    C102  A    
C81   H49   S    
C111  H83   S    
N6    Ni6   S    
O5    C117  S    
N8    Ni8   S    
C43   C104  S    
N20   Ni8   S    
C9    C85   A    
C11   C87   A    
C119  H101  S    
C62   C73   S    
C71   O3    S    
C60   H32   S    
C44   C52   A    
C56   H24   S    
N5    N25   A    
C124  C125  S    
C128  H123  S    
C25   C57   S    
C107  H73   S    
C44   C103  S    
C28   C60   S    
C47   H43   S    
C86   N18   A    
N28   Ni7   S    
N21   Ni1   S    
C30   C34   A    
C122  H110  S    
C123  H111  S    
C106  H71   S    
C2    H2    S    
C96   H60   S    
C78   N10   A    
N24   Ni4   S    
C93   N25   A    
N8    N28   A    
C77   N9    A    
O7    C123  S    
C12   C88   A    
C17   C18   S    
C112  H86   S    
O6    C120  S    
C91   O7    S    
C98   H62   S    
C53   H21   S    
C42   C50   A    
C15   C24   S    
C55   H23   S    
C26   C30   A    
C16   C23   S    
C36   H12   S    
C42   C101  S    
C48   N8    A    
C11   C68   S    
C96   N28   A    
O4    C114  S    
C10   C86   A    
C99   N31   A    
C18   C22   D    
N14   N22   A    
C97   N29   A    
C116  H96   S    
C21   H5    S    
C23   H7    S    
N31   Ni4   S    
C33   H9    S    
C111  C112  S    
C117  H97   S    
C105  H70   S    
C71   C72   A    
C75   H35   S    
C119  H103  S    
C39   H15   S    
C108  H77   S    
C64   C75   S    
C79   N11   A    
C80   N12   A    
C37   C41   A    
C61   C62   A    
C63   C64   A    
C40   C44   A    
C121  H107  S    
N19   Ni7   S    
C124  H113  S    
C107  H75   S    
C27   C49   A    
C73   C74   S    
N4    N32   A    
C112  H85   S    
C123  C124  S    
O2    C108  S    
C109  H79   S    
C73   H37   S    
O1    C105  S    
C106  C107  S    
C74   H34   S    
C50   C54   S    
C82   N14   A    
C56   H20   S    
C127  H120  S    
C13   C81   A    
N2    N30   A    
N27   Ni8   S    
N25   Ni6   S    
N9    N17   A    
C22   H6    S    
N30   Ni1   S    
C70   O2    S    
O3    C111  S    
N12   N20   A    
C13   C89   A    
C120  H104  S    
C85   H53   S    
C114  H91   S    
C69   O1    S    
C127  C128  S    
C77   H45   S    
C15   C83   A    
C115  H92   S    
C5    C45   A    
C7    C47   A    
C90   O6    S    
C8    C48   A    
C118  C119  S    
C90   N22   A    
N32   Ni3   S    
C113  H87   S    
C110  H81   S    
C26   C58   S    
C3    N3    A    
C40   H16   S    
C16   C92   A    
C31   C35   A    
C84   N16   A    
C34   H10   S    
C14   C82   A    
C32   C36   A    
C87   N19   A    
C88   N20   A    
C122  H109  S    
C48   H44   S    
C19   H67   S    
C36   C38   A    
N3    N31   A    
C53   H17   S    
C100  N32   A    
C43   C51   A    
C116  H94   S    
N7    N27   A    
C58   H26   S    
C65   C69   A    
C59   H31   S    
C111  H84   S    
C13   C22   S    
N9    Ni2   S    
C67   C71   A    
C38   H14   S    
C54   H18   S    
N23   Ni3   S    
N15   Ni8   S    
C119  H102  S    
C4    N4    A    
C120  C121  S    
N13   Ni6   S    
N1    Ni1   S    
C4    H4    S    
C124  H114  S    
C128  H122  S    
C46   N6    A    
C8    C96   A    
C107  H74   S    
C53   C59   S    
C54   C60   S    
C41   C102  S    
C33   C39   A    
C34   C40   A    
C57   H25   S    
C35   C37   A    
C123  H112  S    
C38   C42   A    
C125  H115  S    
N16   Ni7   S    
C17   H65   S    
N7    Ni7   S    
C91   N23   A    
N5    Ni5   S    
C9    C66   S    
C47   N7    A    
C28   C50   A    
C20   C24   D    
C56   C58   S    
C94   H58   S    
C45   N5    A    
C74   H38   S    
N11   Ni4   S    
C83   N15   A    
C81   N13   A    
C5    C29   S    
C76   H36   S    
N22   Ni2   S    
C12   C67   S    
C63   C67   A    
C7    C31   S    
C8    C32   S    
C126  C127  S    
C89   O5    S    
C118  H100  S    
C105  H69   S    
C39   C43   A    
C3    H3    S    
C94   N26   A    
C117  H98   S    
C25   C51   A    
C26   C52   A    
C108  H76   S    
C86   H54   S    
C75   H39   S    
C122  H108  S    
C128  H124  S    
C117  C118  S    
C78   H46   S    
C79   H47   S    
C10   C65   S    
C80   H48   S    
C6    C46   A    
N15   N23   A    
C98   N30   A    
N13   N21   A    
C105  C106  S    
N11   N19   A    
C5    C93   A    
C114  H90   S    
C106  H72   S    
C7    C95   A    
C100  H64   S    
N10   Ni1   S    
C55   C57   S    
C27   C59   S    
C2    N2    A    
C127  H121  S    
C12   C80   A    
C112  C113  S    
N6    N26   A    
C82   H50   S    
N16   N24   A    
C95   N27   A    
C110  H80   S    
C97   C101  A    
C52   C56   S    
