data_mof_unit_4410.cif
_audit_creation_date              2012-10-26T20:33:43-0400
_audit_creation_method            fapswitch 2.2
_symmetry_space_group_name_H-M    P1
_symmetry_Int_Tables_number       1
_space_group_crystal_system       triclinic
_cell_length_a                    10.96989
_cell_length_b                    9.108695
_cell_length_c                    7.872077
_cell_angle_alpha                 89.976267
_cell_angle_beta                  90.718208
_cell_angle_gamma                 90.02098
_cell_volume                      786.52689886

loop_
_atom_site_label
_atom_site_type_symbol
_atom_type_description
_atom_site_fract_x
_atom_site_fract_y
_atom_site_fract_z
_atom_type_partial_charge
C1    C     C_R   0.500170 0.220363 0.500031 0.538044
C2    C     C_1   0.499837 0.934587 0.499960 -0.055923
C3    C     C_3   0.072452 0.661828 0.425822 0.262653
C4    C     C_3   0.925321 0.652873 0.407504 0.241475
C5    C     C_3   0.120720 0.506523 0.502066 0.091506
C6    C     C_3   0.877340 0.503961 0.505341 0.090728
C7    C     C_3   0.126128 0.344816 0.780094 -0.361533
C8    C     C_3   0.135255 0.219664 0.416677 -0.366367
C9    C     C_3   0.866428 0.404228 0.831827 -0.370302
C10   C     C_3   0.884721 0.212805 0.508125 -0.352372
C11   C     C_R   0.259477 0.504429 0.499751 0.551998
C12   C     C_R   0.739950 0.502197 0.501615 0.556496
C13   C     C_R   0.499714 0.779650 0.499973 0.543161
C14   C     C_1   0.500003 0.065431 0.500029 -0.061639
C15   C     C_3   0.075368 0.492346 0.698231 0.141041
C16   C     C_3   0.067742 0.369562 0.387101 0.109246
C17   C     C_3   0.928805 0.511221 0.701060 0.130652
C18   C     C_3   0.923595 0.355076 0.413259 0.122819
Cu1   Cu    Cu3+1 0.500000 0.500010 0.669080 0.971225
Cu2   Cu    Cu3+1 0.500000 0.500010 0.330920 0.982388
H1    H     H_    0.119789 0.591817 0.936899 0.241830
H2    H     H_    0.207323 0.299134 0.718785 0.149589
H3    H     H_    0.160299 0.361567 0.909640 0.147156
H4    H     H_    0.235456 0.231723 0.407644 0.144280
H5    H     H_    0.116080 0.161176 0.535295 0.093398
H6    H     H_    0.108306 0.140999 0.314847 0.139294
H7    H     H_    0.816164 0.309729 0.781845 0.132103
H8    H     H_    0.929991 0.367774 0.931272 0.120494
H9    H     H_    0.794137 0.461398 0.903860 0.159436
H10   H     H_    0.931378 0.187949 0.626743 0.099063
H11   H     H_    0.784635 0.210875 0.527989 0.149303
H12   H     H_    0.210590 0.658299 0.783102 0.288718
H13   H     H_    0.903437 0.115790 0.428303 0.122511
H14   H     H_    0.053411 0.809251 0.634998 0.303710
H15   H     H_    0.118729 0.883292 0.468617 0.203022
H16   H     H_    0.221641 0.714471 0.275574 0.263519
H17   H     H_    0.097939 0.790602 0.208977 0.208352
H18   H     H_    0.899321 0.877520 0.417268 0.213096
H19   H     H_    0.774316 0.782906 0.464999 0.227978
H20   H     H_    0.913412 0.755375 0.170718 0.213354
H21   H     H_    0.794967 0.661446 0.210941 0.247625
H22   H     H_    0.180750 0.406614 0.175886 0.272216
H23   H     H_    0.038588 0.478192 0.151936 0.287304
H24   H     H_    0.806636 0.682018 0.765152 0.259094
H25   H     H_    0.922728 0.666625 0.898772 0.247510
H26   H     H_    0.899607 0.244245 0.180407 0.238363
H27   H     H_    0.846337 0.418348 0.173479 0.271612
H28   H     H_    0.063057 0.252834 0.790965 0.096296
N1    N     N_1   0.500000 0.499970 0.076820 -0.095664
N2    N     N_3   0.889161 0.655622 0.225772 -0.673782
N3    N     N_1   0.500000 0.499970 0.923180 -0.098414
N4    N     N_3   0.125909 0.612525 0.807363 -0.610575
N5    N     N_3   0.089411 0.394446 0.205327 -0.663108
N6    N     N_3   0.899793 0.658970 0.770134 -0.591460
N7    N     N_3   0.858807 0.328490 0.250099 -0.605744
N8    N     N_3   0.112684 0.785169 0.536975 -0.630902
N9    N     N_3   0.129154 0.691106 0.258904 -0.632973
N10   N     N_3   0.868946 0.784925 0.482021 -0.631351
O1    O     O_R   0.500000 0.288400 0.642760 -0.500270
O2    O     O_R   0.500000 0.288400 0.357240 -0.488905
O3    O     O_R   0.317700 0.499990 0.642790 -0.520695
O4    O     O_R   0.317700 0.499990 0.357210 -0.523083
O5    O     O_R   0.682300 0.499990 0.642790 -0.533808
O6    O     O_R   0.682300 0.499990 0.357210 -0.499682
O7    O     O_R   0.500000 0.711620 0.642810 -0.496478
O8    O     O_R   0.500000 0.711620 0.357190 -0.508629

loop_
_geom_bond_atom_site_label_1
_geom_bond_atom_site_label_2
_ccdc_geom_bond_type
H26   N7    S    
Cu2   O6    S    
H14   N8    S    
Cu2   N1    S    
Cu1   N3    S    
Cu2   O2    S    
C7    H2    S    
C8    H6    S    
C3    N8    S    
C10   H10   S    
Cu1   Cu2   S    
C9    H9    S    
C3    C5    S    
C11   O4    A    
Cu1   O1    S    
C7    H28   S    
C7    C15   S    
C8    C16   S    
C13   O7    A    
C15   N4    S    
C6    C12   S    
C8    H5    S    
C2    C13   S    
Cu2   O8    S    
Cu1   O5    S    
C18   N7    S    
C10   C18   S    
C7    H3    S    
C3    N9    S    
C16   C18   S    
C8    H4    S    
Cu1   O3    S    
H25   N6    S    
Cu1   O7    S    
C10   H13   S    
C13   O8    A    
C1    O1    A    
C5    C11   S    
Cu2   O4    S    
H17   N9    S    
C2    C14   T    
C6    C18   S    
H20   N2    S    
H22   N5    S    
C5    C15   S    
C4    C6    S    
C4    N10   S    
C3    C4    S    
C6    C17   S    
H24   N6    S    
H21   N2    S    
C9    H7    S    
H27   N7    S    
H16   N9    S    
C1    O2    A    
C9    C17   S    
C15   C17   S    
C12   O6    A    
C16   N5    S    
H12   N4    S    
C5    C16   S    
C1    C14   S    
C11   O3    A    
H15   N8    S    
C12   O5    A    
H19   N10   S    
C10   H11   S    
H23   N5    S    
H1    N4    S    
C17   N6    S    
H18   N10   S    
C9    H8    S    
C4    N2    S    
N1    N3    T    
