data_mof_unit_1764.cif
_audit_creation_date              2012-12-10T16:43:25-0500
_audit_creation_method            fapswitch 2.2
_symmetry_space_group_name_H-M    P1
_symmetry_Int_Tables_number       1
_space_group_crystal_system       triclinic
_cell_length_a                    10.772656
_cell_length_b                    8.688665
_cell_length_c                    7.444108
_cell_angle_alpha                 102.941768
_cell_angle_beta                  94.561924
_cell_angle_gamma                 92.532554
_cell_volume                      675.538128158

loop_
_atom_site_label
_atom_site_type_symbol
_atom_type_description
_atom_site_fract_x
_atom_site_fract_y
_atom_site_fract_z
_atom_type_partial_charge
C1    C     C_R   0.495996 0.199663 0.453227 0.887264
C2    C     C_R   0.078235 0.631945 0.654525 0.052731
C3    C     C_R   0.130112 0.528696 0.507564 -0.080443
C4    C     C_R   0.053580 0.441280 0.355186 -0.204321
C5    C     C_R   0.926044 0.442583 0.352593 -0.213681
C6    C     C_R   0.871892 0.532952 0.501489 -0.091299
C7    C     C_2   0.493896 0.031771 0.426874 -0.373688
C8    C     C_2   0.504912 0.968136 0.573127 -0.373208
C9    C     C_R   0.263117 0.510391 0.503399 0.791938
C10   C     C_R   0.503506 0.800317 0.546781 0.866791
C11   C     C_R   0.737553 0.512641 0.500421 0.786272
C12   C     C_R   0.152937 0.734968 0.802032 -0.247577
C13   C     C_R   0.100103 0.829204 0.950919 0.328112
C14   C     C_R   0.969890 0.832661 0.944138 -0.165562
C15   C     C_R   0.894929 0.741332 0.793583 -0.240964
C16   C     C_R   0.946929 0.634617 0.650771 0.099276
Cu1   Cu    Cu3+1 0.513920 0.517380 0.684380 0.937474
Cu2   Cu    Cu3+1 0.486080 0.482620 0.315620 0.951501
H1    H     H_    0.092621 0.366771 0.239128 0.162238
H2    H     H_    0.597875 0.622165 0.051765 0.223321
H3    H     H_    0.253180 0.745367 0.805236 0.166899
H4    H     H_    0.924966 0.908815 0.052053 0.141080
H5    H     H_    0.796228 0.758440 0.790556 0.166744
H6    H     H_    0.869404 0.367163 0.236535 0.163220
H7    H     H_    0.483326 0.960185 0.285917 0.179331
H8    H     H_    0.515278 0.039695 0.714092 0.175500
H9    H     H_    0.402095 0.377898 0.948218 0.225786
N1    N     N_2   0.465100 0.456430 0.038520 -0.213878
N2    N     N_2   0.534900 0.543570 0.961480 -0.218817
O1    O     O_R   0.509050 0.286130 0.619770 -0.577254
O2    O     O_R   0.485540 0.256780 0.308360 -0.588589
O3    O     O_R   0.331410 0.514680 0.655740 -0.598178
O4    O     O_R   0.307900 0.485330 0.344330 -0.573549
O5    O     O_R   0.514460 0.743220 0.691640 -0.607764
O6    O     O_R   0.490950 0.713870 0.380230 -0.576397
O7    O     O_R   0.692100 0.514670 0.655670 -0.583022
O8    O     O_R   0.668590 0.485320 0.344260 -0.588451
N3    N     N_2   0.181074 0.919008 0.103471 -0.429677
H10   H     H_    0.261796 0.971008 0.071341 0.244045
C17   C     C_3   0.130581 0.997967 0.271861 -0.680287
H11   H     H_    0.208121 0.050027 0.378511 0.225216
H12   H     H_    0.073775 0.911766 0.326314 0.239783
H13   H     H_    0.072787 0.094357 0.245415 0.212082

loop_
_geom_bond_atom_site_label_1
_geom_bond_atom_site_label_2
_ccdc_geom_bond_type
C9    O4    A    
C10   O6    A    
C3    C9    S    
Cu1   O7    S    
C2    C16   A    
Cu2   O6    S    
C7    H7    S    
C2    C12   A    
C14   H4    S    
C17   H12   S    
C2    C3    A    
Cu2   N1    S    
C7    C8    D    
C10   O5    A    
C13   C14   A    
N3    C17   S    
Cu1   O1    S    
N1    N2    D    
C13   N3    S    
C5    C6    A    
C5    H6    S    
C15   H5    S    
C1    O1    A    
Cu2   O8    S    
Cu1   Cu2   S    
H2    N2    S    
N3    H10   S    
Cu2   O4    S    
Cu1   O5    S    
C6    C16   A    
C3    C4    A    
Cu1   N2    S    
C1    O2    A    
C8    H8    S    
C12   C13   A    
C8    C10   S    
C6    C11   S    
C11   O8    A    
Cu1   O3    S    
C14   C15   A    
C17   H11   S    
Cu2   O2    S    
C9    O3    A    
C1    C7    S    
C4    H1    S    
C12   H3    S    
C17   H13   S    
C15   C16   A    
C4    C5    A    
H9    N1    S    
C11   O7    A    
