data_mof_unit_4545.cif
_audit_creation_date              2012-12-10T19:11:31-0500
_audit_creation_method            fapswitch 2.2
_symmetry_space_group_name_H-M    P1
_symmetry_Int_Tables_number       1
_space_group_crystal_system       triclinic
_cell_length_a                    10.881104
_cell_length_b                    9.904835
_cell_length_c                    10.480524
_cell_angle_alpha                 90.174696
_cell_angle_beta                  95.208577
_cell_angle_gamma                 88.399477
_cell_volume                      1124.44102975

loop_
_atom_site_label
_atom_site_type_symbol
_atom_type_description
_atom_site_fract_x
_atom_site_fract_y
_atom_site_fract_z
_atom_type_partial_charge
C1    C     C_R   0.259576 0.501605 0.504630 0.969752
C2    C     C_3   0.918827 0.526406 0.386383 -0.402476
C3    C     C_3   0.378554 0.086003 0.431906 0.299409
C4    C     C_3   0.375816 0.920919 0.439792 0.285047
C5    C     C_3   0.598729 0.073239 0.428083 -0.210393
C6    C     C_3   0.591306 0.916132 0.417502 -0.274226
C7    C     C_3   0.511872 0.081079 0.628714 -0.367695
C8    C     C_3   0.513719 0.921724 0.628777 -0.309696
C9    C     C_R   0.503400 0.499953 0.257986 0.961789
C10   C     C_R   0.743957 0.498737 0.516206 0.837875
C11   C     C_R   0.502076 0.500001 0.742146 0.832806
C12   C     C_3   0.504493 0.500827 0.122560 -0.002070
C13   C     C_3   0.525338 0.626327 0.043271 -0.096077
C14   C     C_3   0.394176 0.460635 0.031195 -0.118391
C15   C     C_3   0.414854 0.585773 0.949622 -0.192207
C16   C     C_3   0.504130 0.499869 0.877392 -0.003517
C17   C     C_3   0.614798 0.540441 0.968050 -0.211317
C18   C     C_3   0.483680 0.374567 0.956583 -0.069905
C19   C     C_3   0.594262 0.415199 0.050235 -0.168810
C20   C     C_3   0.090745 0.597614 0.622752 -0.497964
C21   C     C_3   0.087194 0.361232 0.545669 -0.407520
C22   C     C_3   0.947533 0.608575 0.620927 0.298752
C23   C     C_3   0.953439 0.363252 0.577367 0.295843
C24   C     C_3   0.057184 0.550261 0.385828 -0.346477
C25   C     C_3   0.126078 0.503729 0.514260 -0.031234
C26   C     C_3   0.884681 0.498798 0.524275 -0.110548
H1    H     H_    0.341788 0.655131 0.904203 0.163282
H2    H     H_    0.434257 0.119657 0.682045 0.163674
H3    H     H_    0.438137 0.887291 0.684598 0.154899
H4    H     H_    0.685084 0.088008 0.481809 0.287716
H5    H     H_    0.681825 0.868266 0.444559 0.278928
H6    H     H_    0.543218 0.728893 0.082366 0.187227
H7    H     H_    0.302286 0.430142 0.055865 0.158080
H8    H     H_    0.704314 0.572891 0.937067 0.158118
H9    H     H_    0.466535 0.271719 0.917653 0.168500
H10   H     H_    0.667102 0.345849 0.096063 0.167656
H11   H     H_    0.133525 0.696912 0.611404 0.237677
H12   H     H_    0.865720 0.614657 0.342696 0.223698
H13   H     H_    0.100665 0.296556 0.460373 0.250785
H14   H     H_    0.130964 0.557172 0.716985 0.134493
H15   H     H_    0.146218 0.317904 0.629069 0.168758
H16   H     H_    0.923195 0.583609 0.718880 0.060801
H17   H     H_    0.954630 0.364359 0.683802 0.080734
H18   H     H_    0.072144 0.659068 0.370760 0.250386
H19   H     H_    0.092085 0.495367 0.303703 0.170750
H20   H     H_    0.206483 0.333536 0.217342 0.338846
H21   H     H_    0.241741 0.660499 0.190781 0.353046
H22   H     H_    0.985879 0.862574 0.439969 0.401111
H23   H     H_    0.893948 0.438586 0.324053 0.216929
H24   H     H_    0.871120 0.124831 0.342775 0.389364
H25   H     H_    0.303196 0.122861 0.489243 0.074252
H26   H     H_    0.306613 0.899324 0.508715 0.066922
H27   H     H_    0.606215 0.120687 0.334054 0.223768
H28   H     H_    0.569366 0.887417 0.315637 0.193362
H29   H     H_    0.596798 0.117516 0.682965 0.244234
H30   H     H_    0.595955 0.883198 0.685495 0.257137
N1    N     N_3   0.499750 0.138610 0.497240 -0.128249
N2    N     N_3   0.499750 0.861390 0.497240 -0.122869
O1    O     O_R   0.314910 0.616040 0.499970 -0.577191
O2    O     O_2   0.221788 0.099835 0.199527 -0.213729
O3    O     O_3   0.282575 0.324924 0.276408 -0.566576
O4    O     O_2   0.168042 0.888376 0.285858 -0.298326
O5    O     O_2   0.360758 0.884009 0.177546 -0.265918
O6    O     O_3   0.285012 0.673381 0.277129 -0.550833
O7    O     O_2   0.782006 0.803503 0.654468 -0.310103
O8    O     O_2   0.994023 0.866214 0.686554 -0.237648
O9    O     O_3   0.900525 0.836217 0.451197 -0.568989
O10   O     O_2   0.003187 0.099214 0.549222 -0.270454
O11   O     O_2   0.811766 0.168747 0.636192 -0.301926
O12   O     O_R   0.314910 0.383960 0.499970 -0.598155
O13   O     O_3   0.833178 0.202966 0.385251 -0.615935
O14   O     O_R   0.500080 0.616020 0.313900 -0.577858
O15   O     O_R   0.500080 0.383980 0.313900 -0.526766
O16   O     O_R   0.685320 0.616040 0.499930 -0.581808
O17   O     O_R   0.685320 0.383960 0.499930 -0.545137
O18   O     O_R   0.500150 0.616060 0.686000 -0.631736
O19   O     O_R   0.500150 0.383940 0.686000 -0.650586
O20   O     O_2   0.434692 0.153366 0.185238 -0.299194
S1    S     S_3+6 0.331094 0.163214 0.270482 0.084743
S2    S     S_3+6 0.300651 0.839989 0.293535 0.067556
S3    S     S_3+6 0.904355 0.783443 0.603803 0.041658
S4    S     S_3+6 0.898094 0.201604 0.537448 0.018145
Zn1   Zn    Zn3+2 0.500150 0.654960 0.499940 1.015062
Zn2   Zn    Zn3+2 0.500150 0.345040 0.499940 1.026941

loop_
_geom_bond_atom_site_label_1
_geom_bond_atom_site_label_2
_ccdc_geom_bond_type
O2    S1    D    
C23   S4    S    
C14   C18   S    
C13   H6    S    
C9    O14   A    
C7    H29   S    
O16   Zn1   S    
C3    S1    S    
C8    H30   S    
C14   H7    S    
C7    C8    S    
C4    H26   S    
C24   H19   S    
O4    S2    D    
O1    Zn1   S    
C4    S2    S    
C11   O18   A    
C1    O1    A    
C5    C6    S    
C20   H14   S    
O17   Zn2   S    
C20   C25   S    
C15   C16   S    
C23   H17   S    
C18   C19   S    
C11   C16   S    
C23   C26   S    
C6    N2    S    
O11   S4    D    
C11   O19   A    
C8    N2    S    
C15   H1    S    
C16   C17   S    
O12   Zn2   S    
C18   H9    S    
O15   Zn2   S    
O13   S4    S    
C10   C26   S    
C6    H5    S    
C1    C25   S    
O6    S2    S    
C9    O15   A    
C6    H28   S    
O18   Zn1   S    
O5    S2    D    
H20   O3    S    
C22   S3    S    
C24   C25   S    
H21   O6    S    
C3    H25   S    
O20   S1    D    
O19   Zn2   S    
C7    H2    S    
H24   O13   S    
C2    H23   S    
C10   O17   A    
C2    H12   S    
O7    S3    D    
C21   H13   S    
N1    Zn2   S    
C2    C26   S    
C21   H15   S    
C3    N1    S    
C20   C22   S    
O9    S3    S    
C13   C15   S    
C2    C24   S    
C24   H18   S    
C17   H8    S    
C8    H3    S    
C3    C4    S    
C5    H4    S    
C5    H27   S    
C21   C25   S    
C12   C14   S    
C13   C17   S    
C1    O12   A    
C5    N1    S    
C19   H10   S    
O10   S4    D    
C21   C23   S    
N2    Zn1   S    
O8    S3    D    
C20   H11   S    
C10   O16   A    
C22   H16   S    
O3    S1    S    
C12   C19   S    
C17   C19   S    
H22   O9    S    
C9    C12   S    
O14   Zn1   S    
C12   C13   S    
C16   C18   S    
C22   C26   S    
C4    N2    S    
C14   C15   S    
C7    N1    S    
