data_mof_unit_2745.cif
_audit_creation_date              2012-12-10T19:46:25-0500
_audit_creation_method            fapswitch 2.2
_symmetry_space_group_name_H-M    P1
_symmetry_Int_Tables_number       1
_space_group_crystal_system       triclinic
_cell_length_a                    10.865514
_cell_length_b                    10.871038
_cell_length_c                    10.42616
_cell_angle_alpha                 90.814176
_cell_angle_beta                  90.678442
_cell_angle_gamma                 90.055038
_cell_volume                      1231.32047732

loop_
_atom_site_label
_atom_site_type_symbol
_atom_type_description
_atom_site_fract_x
_atom_site_fract_y
_atom_site_fract_z
_atom_type_partial_charge
C1    C     C_R   0.496797 0.261486 0.498791 0.807024
C2    C     C_R   0.694120 0.853895 0.754407 -0.175258
C3    C     C_R   0.430238 0.113514 0.260950 -0.046906
C4    C     C_R   0.569834 0.886478 0.739028 -0.046899
C5    C     C_R   0.511269 0.123804 0.155500 0.453619
C6    C     C_R   0.488900 0.876160 0.844556 0.453609
C7    C     C_R   0.465201 0.166880 0.038345 -0.196811
C8    C     C_R   0.535069 0.833035 0.961649 -0.196684
C9    C     C_R   0.341289 0.198167 0.024159 -0.250209
C10   C     C_R   0.658997 0.801747 0.975704 -0.250248
C11   C     C_R   0.475251 0.931585 0.388682 -0.191042
C12   C     C_R   0.503196 0.738514 0.501211 0.807018
C13   C     C_R   0.524700 0.068412 0.611340 -0.191090
C14   C     C_R   0.504379 0.872041 0.503130 -0.116598
C15   C     C_R   0.495587 0.127958 0.496884 -0.116619
C16   C     C_R   0.261524 0.503602 0.499101 0.806655
C17   C     C_R   0.738477 0.496406 0.500899 0.806643
C18   C     C_R   0.530380 0.941312 0.615917 0.010938
C19   C     C_R   0.469587 0.058684 0.384098 0.010933
C20   C     C_1   0.500015 0.500004 0.071940 0.068367
C21   C     C_1   0.499985 0.499996 0.928060 0.068365
C22   C     C_R   0.215895 0.751134 0.154547 0.665431
C23   C     C_R   0.872023 0.494762 0.502322 -0.086211
C24   C     C_R   0.784130 0.248806 0.845382 0.665335
C25   C     C_R   0.168583 0.705203 0.268605 -0.199378
C26   C     C_R   0.831425 0.294782 0.731338 -0.199274
C27   C     C_R   0.115256 0.587531 0.270050 0.030567
C28   C     C_R   0.884748 0.412456 0.729935 0.030599
C29   C     C_R   0.109818 0.516787 0.156491 -0.124418
C30   C     C_R   0.890195 0.483158 0.843522 -0.124450
C31   C     C_R   0.159795 0.561753 0.043483 -0.232101
C32   C     C_R   0.840223 0.438154 0.956514 -0.232098
C33   C     C_R   0.212500 0.678989 0.042405 -0.154231
C34   C     C_R   0.127978 0.505260 0.497679 -0.086215
C35   C     C_R   0.787524 0.320914 0.957550 -0.154252
C36   C     C_R   0.931922 0.533743 0.391932 -0.220126
C37   C     C_R   0.068078 0.466287 0.608071 -0.220070
C38   C     C_R   0.940800 0.459556 0.611616 0.039074
C39   C     C_R   0.059201 0.540467 0.388385 0.039050
C40   C     C_R   0.261647 0.187091 0.127298 0.703951
C41   C     C_R   0.738546 0.812869 0.872494 0.703893
C42   C     C_R   0.305965 0.146094 0.245440 -0.175306
Cu1   Cu    Cu3+1 0.500000 0.500000 0.625300 0.977168
Cu2   Cu    Cu3+1 0.500000 0.500000 0.374700 0.977167
F1    F     F_    0.262765 0.866571 0.152040 -0.682494
F2    F     F_    0.737286 0.133358 0.847849 -0.682612
F3    F     F_    0.140419 0.212601 0.111700 -0.669164
F4    F     F_    0.859793 0.787384 0.887965 -0.669179
H1    H     H_    0.249623 0.714139 0.954343 0.193984
H2    H     H_    0.933713 0.572647 0.844302 0.211845
H3    H     H_    0.156440 0.506295 0.956452 0.170839
H4    H     H_    0.843584 0.493580 0.043568 0.170760
H5    H     H_    0.879338 0.562432 0.308456 0.161940
H6    H     H_    0.120660 0.437597 0.691549 0.161952
H7    H     H_    0.306870 0.229984 0.932595 0.173259
H8    H     H_    0.693504 0.769901 0.067222 0.173259
H9    H     H_    0.242700 0.136367 0.324217 0.160184
H10   H     H_    0.757318 0.863644 0.675574 0.160174
H11   H     H_    0.657461 0.071398 0.250770 0.330465
H12   H     H_    0.750413 0.285734 0.045604 0.193967
H13   H     H_    0.342641 0.928699 0.749475 0.330489
H14   H     H_    0.525598 0.175189 0.957214 0.206634
H15   H     H_    0.474741 0.824694 0.042835 0.206560
H16   H     H_    0.454631 0.878930 0.302015 0.204965
H17   H     H_    0.545329 0.121064 0.698007 0.204941
H18   H     H_    0.171535 0.761708 0.355011 0.141433
H19   H     H_    0.828472 0.238308 0.644909 0.141404
H20   H     H_    0.066313 0.427293 0.155745 0.211794
N1    N     N_1   0.500010 0.499990 0.186410 -0.150048
N2    N     N_1   0.499990 0.500010 0.813590 -0.150051
O1    O     O_R   0.499990 0.319650 0.605810 -0.586405
O2    O     O_3   0.365816 0.907500 0.838451 -0.706332
O3    O     O_R   0.500010 0.680350 0.394190 -0.586401
O4    O     O_R   0.499990 0.319640 0.394190 -0.576454
O5    O     O_R   0.500010 0.680360 0.605810 -0.576445
O6    O     O_R   0.319640 0.500010 0.605810 -0.583255
O7    O     O_R   0.680360 0.499990 0.394190 -0.583258
O8    O     O_R   0.319650 0.500010 0.394190 -0.570619
O9    O     O_R   0.680350 0.499990 0.605810 -0.570622
O10   O     O_3   0.634347 0.092475 0.161742 -0.706425

loop_
_geom_bond_atom_site_label_1
_geom_bond_atom_site_label_2
_ccdc_geom_bond_type
C40   F3    S    
C3    C42   A    
C27   C29   A    
C34   C37   A    
C14   C18   A    
C13   H17   S    
C6    O2    S    
C11   C19   A    
C17   C23   S    
C13   C18   A    
C1    O4    A    
Cu2   O7    S    
C24   C26   A    
C11   C14   A    
C2    C41   A    
C33   H1    S    
C17   O9    A    
C32   H4    S    
C36   H5    S    
C16   C34   S    
C15   C19   A    
C27   C39   S    
C22   C25   A    
C31   C33   A    
C3    C19   S    
C9    H7    S    
C10   H8    S    
C4    C18   S    
C40   C42   A    
C30   H2    S    
C12   O3    A    
C10   C41   A    
C42   H9    S    
Cu1   O5    S    
C24   C35   A    
C34   C39   A    
C32   C35   A    
C4    C6    A    
C11   H16   S    
C5    C7    A    
C6    C8    A    
C9    C40   A    
C35   H12   S    
C2    C4    A    
Cu1   Cu2   S    
C7    H14   S    
C37   C38   A    
C29   H20   S    
C28   C38   S    
C17   O7    A    
Cu2   N1    S    
C1    O1    A    
C5    O10   S    
Cu2   O4    S    
C1    C15   S    
C37   H6    S    
H13   O2    S    
C12   C14   S    
Cu1   N2    S    
C13   C15   A    
C20   N1    T    
C26   H19   S    
Cu1   O6    S    
C7    C9    A    
C22   C33   A    
Cu1   O1    S    
C16   O6    A    
C36   C39   A    
C25   H18   S    
C31   H3    S    
C3    C5    A    
H11   O10   S    
C2    H10   S    
C25   C27   A    
C23   C38   A    
C26   C28   A    
C21   N2    T    
C24   F2    S    
Cu2   O8    S    
C29   C31   A    
C30   C32   A    
C28   C30   A    
C41   F4    S    
C16   O8    A    
Cu2   O3    S    
C8    H15   S    
C22   F1    S    
C20   C21   S    
C8    C10   A    
C23   C36   A    
C12   O5    A    
Cu1   O9    S    
