data_mof_unit_2524.cif
_audit_creation_date              2012-12-10T18:36:23-0500
_audit_creation_method            fapswitch 2.2
_symmetry_space_group_name_H-M    P1
_symmetry_Int_Tables_number       1
_space_group_crystal_system       triclinic
_cell_length_a                    13.829889
_cell_length_b                    15.083551
_cell_length_c                    15.681803
_cell_angle_alpha                 89.83939
_cell_angle_beta                  70.388619
_cell_angle_gamma                 89.829057
_cell_volume                      3081.50033195

loop_
_atom_site_label
_atom_site_type_symbol
_atom_type_description
_atom_site_fract_x
_atom_site_fract_y
_atom_site_fract_z
_atom_type_partial_charge
C1    C     C_R   0.500028 0.670174 0.499486 0.802242
C2    C     C_R   0.593167 0.189258 0.447863 -0.207985
C3    C     C_R   0.500576 0.766640 0.496297 -0.060679
C4    C     C_R   0.502147 0.233449 0.496111 -0.063115
C5    C     C_R   0.557026 0.814587 0.539483 -0.200334
C6    C     C_R   0.412946 0.185404 0.539814 -0.190481
C7    C     C_R   0.557181 0.906554 0.536349 -0.177030
C8    C     C_R   0.415089 0.093460 0.536747 -0.176806
C9    C     C_R   0.503435 0.951540 0.487875 0.044960
C10   C     C_R   0.505496 0.048610 0.487788 0.042724
C11   C     C_R   0.910938 0.433024 0.450289 0.066985
C12   C     C_R   0.500350 0.329846 0.499460 0.784519
C13   C     C_R   0.124870 0.570354 0.455452 0.070183
C14   C     C_R   0.807862 0.436542 0.452142 0.040095
C15   C     C_R   0.226549 0.566880 0.457110 0.019367
C16   C     C_R   0.438084 0.497347 0.672561 0.823390
C17   C     C_R   0.561717 0.494842 0.327496 0.832295
C18   C     C_R   0.773275 0.561657 0.547968 0.070373
C19   C     C_R   0.192089 0.434837 0.543178 0.070455
C20   C     C_R   0.874993 0.562043 0.547700 -0.332872
C21   C     C_R   0.090600 0.434351 0.542845 -0.322150
C22   C     C_R   0.946271 0.498605 0.497844 0.116974
C23   C     C_R   0.426945 0.349570 0.060102 -0.246207
C24   C     C_R   0.055316 0.501359 0.497951 0.115929
C25   C     C_R   0.403011 0.474318 0.769116 -0.180340
C26   C     C_R   0.598467 0.482703 0.228348 -0.188594
C27   C     C_R   0.306770 0.370140 0.883328 0.608229
C28   C     C_R   0.725313 0.521254 0.085443 0.611711
C29   C     C_R   0.323735 0.412495 0.800944 -0.286330
C30   C     C_R   0.690396 0.523481 0.178728 -0.302591
C31   C     C_R   0.461571 0.498893 0.823551 0.096075
C32   C     C_R   0.543018 0.431425 0.183760 0.095630
C33   C     C_R   0.457697 0.443434 0.898717 0.000388
C34   C     C_R   0.631881 0.474913 0.898132 -0.237320
C35   C     C_R   0.570959 0.438468 0.086259 -0.027652
C36   C     C_R   0.374753 0.383387 0.931293 -0.006116
C37   C     C_R   0.664677 0.484061 0.039109 -0.013677
C38   C     C_R   0.531714 0.446270 0.943582 0.105017
C39   C     C_R   0.508734 0.410939 0.032658 0.111553
C40   C     C_3   0.978757 0.357843 0.399207 -0.431960
C41   C     C_3   0.059686 0.389006 0.311620 -0.803609
C42   C     C_3   0.094032 0.648733 0.409441 -0.432271
C43   C     C_3   0.082793 0.623572 0.319108 -0.796998
C44   C     C_3   0.465756 0.364518 0.241583 -0.341079
C45   C     C_R   0.362344 0.335517 0.010206 -0.172060
C46   C     C_3   0.353319 0.393982 0.264625 -0.788672
C47   C     C_3   0.509684 0.591542 0.809195 -0.365358
C48   C     C_3   0.469963 0.648641 0.894384 -0.804232
C49   C     C_3   0.391524 0.948002 0.385741 -0.427594
C50   C     C_3   0.275197 0.939926 0.429296 -0.826229
C51   C     C_3   0.694642 0.052444 0.384397 -0.423247
C52   C     C_3   0.778518 0.060396 0.427145 -0.821748
C53   C     C_R   0.697568 0.493459 0.945115 -0.156738
C54   C     C_R   0.446916 0.903615 0.443001 0.180549
C55   C     C_R   0.595991 0.096665 0.442233 0.178597
C56   C     C_R   0.445510 0.811005 0.448698 -0.197297
Cu1   Cu    Cu3+1 0.403570 0.500010 0.500000 0.930187
Cu2   Cu    Cu3+1 0.596430 0.499990 0.500000 0.934522
F1    F     F_    0.228273 0.311337 0.912807 -0.669014
F2    F     F_    0.815278 0.562481 0.040215 -0.667938
H1    H     H_    0.301577 0.286937 0.034445 0.200002
H2    H     H_    0.277300 0.394196 0.760199 0.183061
H3    H     H_    0.413114 0.305636 0.115790 0.172671
H4    H     H_    0.661192 0.480635 0.825344 0.151892
H5    H     H_    0.403631 0.773265 0.413789 0.139392
H6    H     H_    0.661455 0.227128 0.412478 0.140217
H7    H     H_    0.599460 0.780923 0.576896 0.141073
H8    H     H_    0.342223 0.218971 0.577634 0.148083
H9    H     H_    0.599186 0.942966 0.571975 0.149089
H10   H     H_    0.346097 0.056958 0.572834 0.152130
H11   H     H_    0.022932 0.425353 0.268867 0.259890
H12   H     H_    0.772585 0.520136 0.907772 0.204523
H13   H     H_    0.116969 0.432093 0.326151 0.260915
H14   H     H_    0.100933 0.330644 0.273170 0.242382
H15   H     H_    0.016435 0.324212 0.442685 0.208637
H16   H     H_    0.931533 0.306352 0.381243 0.193572
H17   H     H_    0.153577 0.590201 0.275029 0.247624
H18   H     H_    0.015767 0.579557 0.329639 0.265765
H19   H     H_    0.070202 0.684413 0.284178 0.245427
H20   H     H_    0.021589 0.678603 0.454390 0.211788
H21   H     H_    0.152869 0.701868 0.396145 0.190882
H22   H     H_    0.326023 0.428900 0.330286 0.272576
H23   H     H_    0.780441 0.387951 0.415077 0.121224
H24   H     H_    0.342642 0.439412 0.212704 0.251866
H25   H     H_    0.303683 0.334915 0.270879 0.222750
H26   H     H_    0.482261 0.297878 0.210787 0.161424
H27   H     H_    0.478827 0.350464 0.306318 0.193317
H28   H     H_    0.384694 0.649933 0.919491 0.255828
H29   H     H_    0.497379 0.623422 0.948718 0.259831
H30   H     H_    0.498337 0.717569 0.878235 0.236253
H31   H     H_    0.594381 0.590388 0.783737 0.190074
H32   H     H_    0.488799 0.627864 0.756091 0.187776
H33   H     H_    0.251413 0.869283 0.434852 0.243312
H34   H     H_    0.280680 0.618007 0.423411 0.128879
H35   H     H_    0.249200 0.970073 0.497776 0.250638
H36   H     H_    0.237093 0.975123 0.386910 0.243038
H37   H     H_    0.411553 0.019209 0.374032 0.210764
H38   H     H_    0.415841 0.916318 0.317881 0.201050
H39   H     H_    0.798224 0.131022 0.432450 0.243266
H40   H     H_    0.752997 0.030064 0.495658 0.248860
H41   H     H_    0.848644 0.025311 0.384368 0.244690
H42   H     H_    0.683326 0.981272 0.372899 0.214052
H43   H     H_    0.721365 0.084323 0.316496 0.201421
H44   H     H_    0.719711 0.610960 0.586901 0.119602
H45   H     H_    0.217424 0.382778 0.578366 0.128765
H46   H     H_    0.897885 0.611642 0.586913 0.143953
H47   H     H_    0.039384 0.381895 0.578224 0.144596
H48   H     H_    0.735016 0.559052 0.212621 0.191768
N1    N     N_R   0.741310 0.499980 0.500000 -0.178417
N2    N     N_R   0.258690 0.500020 0.500000 -0.188151
O1    O     O_R   0.418570 0.628550 0.499990 -0.586214
O2    O     O_R   0.581430 0.371450 0.500010 -0.586493
O3    O     O_R   0.581440 0.628540 0.499990 -0.585326
O4    O     O_R   0.418560 0.371460 0.500010 -0.596324
O5    O     O_R   0.372890 0.500010 0.629830 -0.570218
O6    O     O_R   0.627110 0.499990 0.370170 -0.581388
O7    O     O_R   0.535760 0.500000 0.629840 -0.580899
O8    O     O_R   0.464240 0.500000 0.370160 -0.573780

loop_
_geom_bond_atom_site_label_1
_geom_bond_atom_site_label_2
_ccdc_geom_bond_type
C25   C31   A    
C14   N1    A    
C26   C32   A    
C23   C45   A    
C27   C29   A    
Cu2   N1    S    
C47   H32   S    
C2    C4    A    
C18   N1    A    
C5    H7    S    
C15   H34   S    
Cu1   O5    S    
C43   H18   S    
C42   H20   S    
Cu2   O2    S    
C17   C26   S    
C35   C37   A    
C2    C55   A    
C38   C39   A    
C11   C14   A    
C50   H35   S    
C43   H19   S    
C56   H5    S    
C33   C36   A    
C18   C20   A    
C45   H1    S    
C41   H14   S    
C46   H22   S    
C47   C48   S    
Cu2   O3    S    
C51   H42   S    
C48   H28   S    
C4    C12   S    
C44   H27   S    
C9    C10   S    
C20   H46   S    
C41   H11   S    
C46   H25   S    
C37   C53   A    
C23   H3    S    
C49   H38   S    
C48   H30   S    
Cu2   O6    S    
C15   N2    A    
C42   H21   S    
C1    O3    A    
C14   H23   S    
C44   H26   S    
C13   C42   S    
C44   C46   S    
C12   O4    A    
C28   F2    S    
C25   C29   A    
C54   C56   A    
C52   H41   S    
C31   C33   A    
C51   C52   S    
C32   C35   A    
C4    C6    A    
C5    C7    A    
C6    C8    A    
C3    C5    A    
C49   H37   S    
C52   H40   S    
Cu2   O7    S    
C40   H16   S    
C13   C24   A    
C1    C3    S    
C35   C39   A    
C3    C56   A    
Cu1   N2    S    
C34   H4    S    
C32   C44   S    
C36   C45   A    
C18   H44   S    
C10   C55   A    
C21   H47   S    
C17   O8    A    
C46   H24   S    
C19   H45   S    
C40   C41   S    
C20   C22   A    
C26   C30   A    
C48   H29   S    
C13   C15   A    
C22   C24   S    
C42   C43   S    
C16   O5    A    
C12   O2    A    
C19   N2    A    
C16   C25   S    
C7    C9    A    
C29   H2    S    
C11   C22   A    
C30   H48   S    
C34   C38   A    
C47   H31   S    
C2    H6    S    
C7    H9    S    
C50   H33   S    
Cu1   O4    S    
C27   C36   A    
C43   H17   S    
C52   H39   S    
C8    H10   S    
C33   C38   A    
C40   H15   S    
C28   C30   A    
C27   F1    S    
C16   O7    A    
C1    O1    A    
C50   H36   S    
Cu1   Cu2   S    
Cu1   O1    S    
C28   C37   A    
C23   C39   A    
C6    H8    S    
C51   C55   S    
C11   C40   S    
C41   H13   S    
C34   C53   A    
C8    C10   A    
C49   C50   S    
C21   C24   A    
C31   C47   S    
C9    C54   A    
C53   H12   S    
C51   H43   S    
C49   C54   S    
C17   O6    A    
Cu1   O8    S    
C19   C21   A    
