data_mof_unit_4611.cif
_audit_creation_date              2012-12-10T17:47:45-0500
_audit_creation_method            fapswitch 2.2
_symmetry_space_group_name_H-M    P1
_symmetry_Int_Tables_number       1
_space_group_crystal_system       triclinic
_cell_length_a                    14.702846
_cell_length_b                    14.415452
_cell_length_c                    14.342406
_cell_angle_alpha                 76.866593
_cell_angle_beta                  101.821837
_cell_angle_gamma                 114.040911
_cell_volume                      2681.9003309

loop_
_atom_site_label
_atom_site_type_symbol
_atom_type_description
_atom_site_fract_x
_atom_site_fract_y
_atom_site_fract_z
_atom_type_partial_charge
C1    C     C_R   0.880984 0.310448 0.513943 0.781859
C2    C     C_R   0.119226 0.689637 0.483611 0.778158
C3    C     C_R   0.641920 0.071830 0.520943 0.060573
C4    C     C_R   0.362432 0.924908 0.489649 0.068878
C5    C     C_R   0.677905 0.991289 0.549836 0.103565
C6    C     C_R   0.329343 0.006373 0.445294 0.093087
C7    C     C_R   0.537148 0.049001 0.496457 0.035832
C8    C     C_R   0.467655 0.946148 0.514600 0.035861
C9    C     C_R   0.506180 0.868039 0.554511 -0.261696
C10   C     C_R   0.501588 0.126534 0.447900 -0.241020
C11   C     C_R   0.609356 0.888825 0.571395 0.085997
C12   C     C_R   0.399482 0.108250 0.424262 0.067554
C13   C     C_R   0.717955 0.670600 0.340117 -0.398589
C14   C     C_R   0.285696 0.329459 0.651688 -0.395763
C15   C     C_R   0.793577 0.632228 0.362390 0.779835
C16   C     C_R   0.202634 0.356627 0.626224 0.775166
C17   C     C_R   0.718037 0.518782 0.496414 -0.116662
C18   C     C_R   0.290525 0.501660 0.518220 -0.118407
C19   C     C_R   0.640913 0.558962 0.480015 -0.050562
C20   C     C_R   0.377724 0.477310 0.538483 -0.052063
C21   C     C_R   0.645156 0.640124 0.402272 0.036249
C22   C     C_R   0.375006 0.389909 0.610099 0.030822
C23   C     C_R   0.999657 0.499790 0.668926 0.824043
C24   C     C_R   0.999593 0.499136 0.331176 0.800592
C25   C     C_R   0.556814 0.516491 0.533495 -0.000607
C26   C     C_R   0.467849 0.537594 0.493179 0.000648
C27   C     C_R   0.474642 0.617739 0.410122 0.031298
C28   C     C_R   0.556055 0.447006 0.621488 0.040382
C29   C     C_R   0.571102 0.682507 0.382614 0.089309
C30   C     C_R   0.463656 0.370288 0.645984 0.111682
C31   C     C_1   0.998986 0.499608 0.771147 -0.188858
C32   C     C_1   0.999448 0.498695 0.228938 -0.184194
C33   C     C_1   0.998624 0.499404 0.856526 -0.011067
C34   C     C_1   0.999149 0.498693 0.143476 -0.010685
C35   C     C_1   0.998556 0.499135 0.957211 -0.001738
C36   C     C_1   0.998753 0.498907 0.042712 -0.000157
C37   C     C_R   0.815224 0.198883 0.522740 -0.080702
C38   C     C_R   0.186221 0.800989 0.472664 -0.081231
C39   C     C_R   0.781544 0.015340 0.554794 -0.220678
C40   C     C_R   0.226108 0.984059 0.418981 -0.243132
C41   C     C_R   0.849942 0.117299 0.535323 0.094170
C42   C     C_R   0.154327 0.883581 0.429046 0.091245
C43   C     C_R   0.712071 0.173811 0.518062 -0.279117
C44   C     C_R   0.288911 0.824327 0.505382 -0.280933
Cu1   Cu    Cu3+1 0.081740 0.475690 0.523180 0.967858
Cu2   Cu    Cu3+1 0.918260 0.524310 0.476820 0.965494
H1    H     H_    0.309807 0.761031 0.542166 0.157860
H2    H     H_    0.687171 0.235410 0.514661 0.156417
H3    H     H_    0.809929 0.954499 0.570113 0.141284
H4    H     H_    0.199414 0.044767 0.384672 0.134887
H5    H     H_    0.458077 0.788769 0.572003 0.137499
H6    H     H_    0.553929 0.201791 0.423796 0.144923
H7    H     H_    0.291556 0.572828 0.474651 0.188617
H8    H     H_    0.716602 0.452911 0.550473 0.151554
H9    H     H_    0.713907 0.719832 0.271618 0.163413
H10   H     H_    0.279936 0.264044 0.707923 0.175623
N1    N     N_R   0.795420 0.560790 0.441960 -0.211081
N2    N     N_R   0.204580 0.439210 0.558040 -0.213555
O1    O     O_R   0.977910 0.338120 0.530560 -0.531172
O2    O     O_R   0.022090 0.661880 0.469440 -0.557135
O3    O     O_R   0.839850 0.379180 0.491410 -0.590216
O4    O     O_R   0.160150 0.620820 0.508590 -0.596973
O5    O     O_R   0.069040 0.479460 0.643530 -0.504364
O6    O     O_R   0.930960 0.520540 0.356470 -0.487837
O7    O     O_R   0.930990 0.520530 0.604380 -0.577563
O8    O     O_R   0.069010 0.479470 0.395620 -0.584513
C45   C     C_3   0.643723 0.800282 0.616317 -0.401889
C46   C     C_3   0.693554 0.809189 0.721208 -0.332629
C47   C     C_3   0.780665 0.772407 0.745485 -0.859601
H11   H     H_    0.757222 0.696127 0.723996 0.261422
H12   H     H_    0.844629 0.827689 0.706595 0.246402
H13   H     H_    0.806049 0.766564 0.824271 0.251543
H14   H     H_    0.722888 0.889827 0.734873 0.230146
H15   H     H_    0.636555 0.762027 0.771062 0.210850
H16   H     H_    0.579557 0.724774 0.616627 0.186327
H17   H     H_    0.694629 0.796496 0.571390 0.193248
C48   C     C_3   0.364228 0.196217 0.375457 -0.426660
C49   C     C_3   0.446045 0.304565 0.357661 -0.346876
C50   C     C_3   0.399646 0.383758 0.310649 -0.842847
H18   H     H_    0.356142 0.365460 0.239644 0.251670
H19   H     H_    0.349050 0.384614 0.357961 0.255779
H20   H     H_    0.460281 0.461072 0.299121 0.249167
H21   H     H_    0.490885 0.326642 0.427296 0.220914
H22   H     H_    0.496257 0.306257 0.308414 0.222459
H23   H     H_    0.320527 0.177805 0.304426 0.203127
H24   H     H_    0.313769 0.199661 0.421626 0.199960
C51   C     C_3   0.385191 0.614881 0.331592 -0.417815
C52   C     C_3   0.353715 0.708032 0.315740 -0.379755
C53   C     C_3   0.244390 0.682827 0.273453 -0.830451
H25   H     H_    0.226534 0.645058 0.208953 0.258793
H26   H     H_    0.196371 0.632140 0.328636 0.270965
H27   H     H_    0.228870 0.754542 0.252381 0.235099
H28   H     H_    0.367324 0.737862 0.384352 0.224117
H29   H     H_    0.397040 0.770260 0.261828 0.218301
H30   H     H_    0.406083 0.612859 0.262007 0.191172
H31   H     H_    0.320160 0.541200 0.342768 0.209480
C54   C     C_3   0.650244 0.464299 0.695526 -0.428588
C55   C     C_3   0.634090 0.479681 0.792741 -0.353307
C56   C     C_3   0.728092 0.493142 0.866137 -0.827748
H32   H     H_    0.745002 0.422328 0.881746 0.255534
H33   H     H_    0.793743 0.559218 0.838489 0.256738
H34   H     H_    0.715569 0.507552 0.934389 0.247579
H35   H     H_    0.614925 0.548762 0.781822 0.227907
H36   H     H_    0.571144 0.412803 0.823620 0.221645
H37   H     H_    0.675776 0.399541 0.706314 0.188895
H38   H     H_    0.712792 0.535324 0.669806 0.206849
C57   C     C_3   0.048890 0.873360 0.382355 -0.395086
C58   C     C_3   0.039911 0.876665 0.273000 -0.279994
C59   C     C_3   0.951103 0.903975 0.218721 -0.797851
H39   H     H_    0.944156 0.900734 0.140864 0.242734
H40   H     H_    0.880517 0.849295 0.246909 0.271186
H41   H     H_    0.962578 0.983060 0.226554 0.232136
H42   H     H_    0.108868 0.935642 0.243703 0.199250
H43   H     H_    0.032003 0.800967 0.258777 0.260104
H44   H     H_    0.988611 0.805694 0.414767 0.234837
H45   H     H_    0.034153 0.939007 0.395296 0.180405
C60   C     C_3   0.957202 0.133142 0.528721 -0.375433
C61   C     C_3   0.982779 0.171487 0.424695 -0.332164
C62   C     C_3   0.093266 0.195961 0.420342 -0.852918
H46   H     H_    0.141902 0.261488 0.458646 0.258808
H47   H     H_    0.112675 0.127871 0.453794 0.239032
H48   H     H_    0.108084 0.217363 0.343935 0.239444
H49   H     H_    0.936384 0.110602 0.380145 0.205015
H50   H     H_    0.966095 0.241453 0.392768 0.222889
H51   H     H_    0.009959 0.185009 0.578237 0.274621
H52   H     H_    0.969334 0.059691 0.554226 0.173521
C63   C     C_3   0.588438 0.790210 0.324486 -0.406559
C64   C     C_3   0.693417 0.874772 0.342881 -0.358743
C65   C     C_3   0.690544 0.981828 0.305230 -0.838350
H53   H     H_    0.665969 0.990436 0.226261 0.251653
H54   H     H_    0.638170 0.994692 0.341992 0.260772
H55   H     H_    0.766351 0.041513 0.319033 0.237967
H56   H     H_    0.720906 0.868958 0.420779 0.219570
H57   H     H_    0.749027 0.869057 0.305506 0.215228
H58   H     H_    0.567921 0.785969 0.246146 0.189201
H59   H     H_    0.538952 0.818191 0.348733 0.217442
C66   C     C_3   0.460895 0.268887 0.709869 -0.431646
C67   C     C_3   0.410849 0.179901 0.651500 -0.345715
C68   C     C_3   0.409117 0.077953 0.712912 -0.827046
H60   H     H_    0.486833 0.082163 0.740291 0.252106
H61   H     H_    0.366537 0.059084 0.774819 0.252173
H62   H     H_    0.372021 0.015547 0.668399 0.250908
H63   H     H_    0.332674 0.171804 0.621176 0.224077
H64   H     H_    0.454066 0.196892 0.590641 0.232653
H65   H     H_    0.537115 0.270472 0.739170 0.206832
H66   H     H_    0.422764 0.253789 0.774080 0.191082
F1    F     F_    0.122603 0.304953 0.675757 -0.684206
F2    F     F_    0.864189 0.665002 0.302321 -0.687823

loop_
_geom_bond_atom_site_label_1
_geom_bond_atom_site_label_2
_ccdc_geom_bond_type
C28   C54   S    
C7    C10   A    
C14   H10   S    
C51   C52   S    
C27   C29   A    
C35   C36   T    
C9    H5    S    
C4    C8    A    
C10   H6    S    
C64   C65   S    
C54   C55   S    
C7    C8    A    
C39   C41   A    
C48   C49   S    
C25   C28   A    
C3    C43   A    
C26   C27   A    
C16   F1    S    
C66   H65   S    
C19   C21   A    
C63   H58   S    
C5    C11   A    
C3    C7    A    
C67   H63   S    
C1    O1    A    
C6    C12   A    
C15   F2    S    
C68   H62   S    
C2    O2    A    
C23   O5    A    
C46   H15   S    
C55   H35   S    
Cu1   O4    S    
C58   C59   S    
C58   H43   S    
C47   H12   S    
C61   C62   S    
C18   H7    S    
C17   C19   A    
C49   H21   S    
C18   N2    A    
C46   C47   S    
C51   H30   S    
C57   C58   S    
C31   C33   T    
C53   H26   S    
C43   H2    S    
C18   C20   A    
C44   H1    S    
C24   O8    A    
C65   H55   S    
C54   H37   S    
C40   C42   A    
C48   H23   S    
C24   O6    A    
C30   C66   S    
C12   C48   S    
C15   N1    A    
C64   H56   S    
C11   C45   S    
C62   H47   S    
C52   H29   S    
Cu1   N2    S    
Cu2   O3    S    
C45   C46   S    
C66   H66   S    
C6    C40   A    
C63   H59   S    
Cu2   O7    S    
C4    C6    A    
C59   H41   S    
C50   H19   S    
C49   C50   S    
C8    C9    A    
C16   N2    A    
C4    C44   A    
C46   H14   S    
Cu1   Cu2   S    
C21   C29   A    
Cu1   O5    S    
Cu2   O6    S    
C23   C31   S    
C58   H42   S    
C37   C43   A    
C47   H13   S    
C24   C32   S    
C38   C44   A    
C64   H57   S    
C2    C38   S    
C56   H32   S    
C62   H46   S    
C51   H31   S    
C56   H33   S    
C13   C21   A    
C61   H50   S    
C53   H27   S    
C27   C51   S    
C9    C11   A    
C57   H44   S    
C10   C12   A    
C54   H38   S    
C39   H3    S    
C20   C22   A    
C48   H24   S    
C29   C63   S    
Cu2   N1    S    
C14   C16   A    
C45   H16   S    
C63   C64   S    
C65   H53   S    
C42   C57   S    
C62   H48   S    
C5    C39   A    
C52   H28   S    
Cu1   O1    S    
C22   C30   A    
Cu2   O2    S    
C13   H9    S    
C3    C5    A    
C1    O3    A    
C50   H20   S    
C68   H60   S    
C38   C42   A    
C1    C37   S    
C66   C67   S    
C23   O7    A    
C13   C15   A    
C25   C26   A    
C67   H64   S    
C60   C61   S    
C68   H61   S    
C14   C22   A    
C20   C26   A    
C40   H4    S    
C59   H40   S    
C28   C30   A    
C33   C35   S    
C34   C36   S    
C61   H49   S    
C37   C41   A    
C47   H11   S    
C19   C25   A    
C57   H45   S    
C67   C68   S    
C50   H18   S    
C49   H22   S    
C56   H34   S    
C52   C53   S    
C55   C56   S    
C17   N1    A    
Cu1   O8    S    
C60   H52   S    
C45   H17   S    
C41   C60   S    
C53   H25   S    
C59   H39   S    
C60   H51   S    
C17   H8    S    
C55   H36   S    
C2    O4    A    
C32   C34   T    
C65   H54   S    
