data_mof_unit_2522.cif
_audit_creation_date              2012-12-11T15:29:43-0500
_audit_creation_method            fapswitch 2.2
_symmetry_space_group_name_H-M    P1
_symmetry_Int_Tables_number       1
_space_group_crystal_system       triclinic
_cell_length_a                    21.422218
_cell_length_b                    7.245414
_cell_length_c                    14.729325
_cell_angle_alpha                 90.467598
_cell_angle_beta                  74.603024
_cell_angle_gamma                 89.88628
_cell_volume                      2204.03415912

loop_
_atom_site_label
_atom_site_type_symbol
_atom_type_description
_atom_site_fract_x
_atom_site_fract_y
_atom_site_fract_z
_atom_type_partial_charge
O1    O     O_R   0.464160 0.506670 0.130070 -0.537029
O2    O     O_R   0.535840 0.006670 0.869930 -0.537442
O3    O     O_R   0.589710 0.179080 0.006710 -0.543560
O4    O     O_R   0.410290 0.679080 0.993290 -0.542606
C1    C     C_R   0.616221 0.344059 0.002514 0.687582
C2    C     C_R   0.383745 0.844238 0.997600 0.683640
O5    O     O_R   0.467940 0.177220 0.138010 -0.536597
O6    O     O_R   0.532060 0.677220 0.861990 -0.536805
O7    O     O_R   0.413200 0.002810 0.002170 -0.546603
O8    O     O_R   0.586800 0.502810 0.997830 -0.545627
C3    C     C_R   0.456128 0.346265 0.174419 0.696418
C4    C     C_R   0.543903 0.844488 0.825451 0.693198
O9    O     O_3   0.482180 0.337850 0.955280 -0.379220
O10   O     O_3   0.517820 0.837850 0.044720 -0.378713
V1    V     V_3+5 0.503310 0.064600 0.008300 1.397157
V2    V     V_3+5 0.496690 0.564600 0.991700 1.399667
C5    C     C_R   0.571600 0.847142 0.723455 -0.029830
C6    C     C_R   0.428019 0.356873 0.276106 -0.025760
C7    C     C_R   0.928239 0.870671 0.276511 -0.027963
C8    C     C_R   0.071941 0.359736 0.723859 -0.025884
C9    C     C_R   0.561000 0.785547 0.567016 -0.168335
C10   C     C_R   0.440044 0.400921 0.433001 -0.168244
C11   C     C_R   0.533234 0.802126 0.663471 -0.177053
C12   C     C_R   0.467409 0.387682 0.336317 -0.180048
C13   C     C_R   0.638106 0.874905 0.687001 -0.217649
C14   C     C_R   0.361041 0.340009 0.312351 -0.217550
C15   C     C_R   0.668121 0.853765 0.589358 0.084815
C16   C     C_R   0.331692 0.354286 0.410381 0.084874
C17   C     C_R   0.627931 0.809002 0.529660 0.144231
C18   C     C_R   0.372802 0.385059 0.470401 0.145272
C19   C     C_R   0.736475 0.871588 0.549465 0.059920
C20   C     C_R   0.263249 0.340673 0.450546 0.058841
C21   C     C_R   0.763294 0.844840 0.450244 0.060228
C22   C     C_R   0.237136 0.361403 0.550206 0.059549
C23   C     C_R   0.720874 0.801293 0.394253 -0.201180
C24   C     C_R   0.280464 0.389415 0.606614 -0.195006
C25   C     C_R   0.654738 0.784372 0.433337 -0.209277
C26   C     C_R   0.346740 0.400446 0.567305 -0.208023
C27   C     C_R   0.778932 0.913991 0.605533 -0.193417
C28   C     C_R   0.220096 0.306625 0.394480 -0.193576
C29   C     C_R   0.845077 0.930320 0.566557 -0.206219
C30   C     C_R   0.153836 0.294818 0.433825 -0.206299
C31   C     C_R   0.871870 0.906657 0.470226 0.142492
C32   C     C_R   0.127563 0.317123 0.530364 0.141994
C33   C     C_R   0.831652 0.863094 0.410393 0.083102
C34   C     C_R   0.168574 0.351805 0.590133 0.083242
C35   C     C_R   0.938845 0.929633 0.433078 -0.164273
C36   C     C_R   0.060227 0.303700 0.567689 -0.163738
C37   C     C_R   0.966699 0.913929 0.336637 -0.173873
C38   C     C_R   0.032642 0.323599 0.664058 -0.175719
C39   C     C_R   0.861665 0.843476 0.312722 -0.218652
C40   C     C_R   0.138977 0.374817 0.687654 -0.216546
H1    H     H_    0.624262 0.749629 0.387531 0.123359
H2    H     H_    0.378008 0.421880 0.613469 0.118526
H3    H     H_    0.834792 0.813902 0.262075 0.089854
H4    H     H_    0.166245 0.402920 0.737972 0.087374
H5    H     H_    0.018135 0.937700 0.308676 0.100220
H6    H     H_    0.980719 0.310230 0.692084 0.099121
H7    H     H_    0.875596 0.963774 0.612475 0.119728
H8    H     H_    0.122750 0.267762 0.387926 0.119847
H9    H     H_    0.530286 0.750200 0.521690 0.114266
H10   H     H_    0.471487 0.424787 0.478674 0.114136
H11   H     H_    0.481961 0.777532 0.691624 0.116246
H12   H     H_    0.519222 0.401707 0.308451 0.114822
H13   H     H_    0.664911 0.906238 0.737503 0.089297
H14   H     H_    0.333596 0.318334 0.261651 0.087257
H15   H     H_    0.737040 0.777797 0.319429 0.121239
H16   H     H_    0.265010 0.402390 0.682092 0.117244
H17   H     H_    0.762837 0.936278 0.680432 0.117637
H18   H     H_    0.235750 0.286739 0.319373 0.119564
H19   H     H_    0.969546 0.963696 0.478604 0.113306
H20   H     H_    0.028897 0.276263 0.522232 0.113262
C41   C     C_3   0.212912 0.660083 0.992943 -0.322427
C42   C     C_3   0.786870 0.160930 0.009744 -0.322197
H21   H     H_    0.184105 0.578478 0.053303 0.145035
H22   H     H_    0.815649 0.074560 0.950376 0.144809
H23   H     H_    0.206938 0.593342 0.927485 0.130941
H24   H     H_    0.792748 0.099505 0.075988 0.132951
C43   C     C_3   0.284923 0.653249 0.993085 -0.304389
C44   C     C_3   0.714866 0.153736 0.009580 -0.308364
H25   H     H_    0.313337 0.576875 0.929819 0.157023
H26   H     H_    0.686245 0.082096 0.073426 0.155402
H27   H     H_    0.289442 0.573137 0.055252 0.130630
H28   H     H_    0.710446 0.068654 0.948294 0.129535
H29   H     H_    0.169695 0.874875 0.154050 0.135733
H30   H     H_    0.830652 0.363943 0.846198 0.134181
H31   H     H_    0.277307 0.865456 0.151600 0.149726
H32   H     H_    0.723123 0.350596 0.848483 0.148211
C45   C     C_3   0.198581 0.949863 0.091292 -0.343104
C46   C     C_3   0.801428 0.442987 0.908111 -0.339886
C47   C     C_3   0.228705 0.970121 0.914394 -0.319151
C48   C     C_3   0.771212 0.476650 0.084860 -0.328664
C49   C     C_3   0.187349 0.862264 0.000319 0.081459
C50   C     C_3   0.812573 0.362603 0.000060 0.082291
H33   H     H_    0.212343 0.116708 0.919451 0.110249
H34   H     H_    0.788008 0.622474 0.079108 0.109758
H35   H     H_    0.218607 0.915461 0.849374 0.138304
H36   H     H_    0.780507 0.424994 0.150622 0.139236
C51   C     C_3   0.312608 0.851004 0.997197 0.089534
C52   C     C_3   0.687340 0.350861 0.002964 0.090197
C53   C     C_3   0.271447 0.943373 0.089553 -0.403990
C54   C     C_3   0.728653 0.434873 0.909370 -0.403385
C55   C     C_3   0.302348 0.965201 0.912594 0.205246
C56   C     C_3   0.697810 0.473568 0.085645 0.208475
H37   H     H_    0.315657 0.110473 0.924538 0.067913
H38   H     H_    0.685535 0.617695 0.070250 0.068432
H39   H     H_    0.181620 0.095860 0.098533 0.145095
H40   H     H_    0.818071 0.588771 0.899666 0.146172
H41   H     H_    0.288813 0.086230 0.096260 0.137676
H42   H     H_    0.711176 0.576486 0.900194 0.140195
O11   O     O_R   0.913210 0.208550 0.002110 -0.539310
O12   O     O_R   0.086790 0.708550 0.997890 -0.539508
O13   O     O_R   0.032060 0.539960 0.861980 -0.538317
O14   O     O_R   0.967940 0.039960 0.138020 -0.538538
C57   C     C_R   0.043883 0.371705 0.825446 0.687863
C58   C     C_R   0.956015 0.873587 0.174653 0.687654
O15   O     O_R   0.910290 0.538020 0.993280 -0.544426
O16   O     O_R   0.089710 0.038020 0.006720 -0.544270
O17   O     O_R   0.964160 0.712340 0.130090 -0.535715
O18   O     O_R   0.035840 0.212340 0.869910 -0.535428
C59   C     C_R   0.884005 0.369947 0.998141 0.655196
C60   C     C_R   0.115956 0.869712 0.002087 0.655287
O19   O     O_3   0.017820 0.379210 0.044690 -0.376342
O20   O     O_3   0.982180 0.879210 0.955310 -0.376179
V3    V     V_3+5 0.996690 0.652500 0.991710 1.390471
V4    V     V_3+5 0.003310 0.152500 0.008290 1.391201
N1    N     N_2   0.346496 0.904242 0.823202 -0.535213
H43   H     H_    0.381696 0.998268 0.792314 0.245412
C61   C     C_3   0.325670 0.787205 0.756591 -0.548909
H44   H     H_    0.368592 0.720936 0.708197 0.187638
H45   H     H_    0.301001 0.871467 0.713704 0.201825
H46   H     H_    0.293181 0.676199 0.792514 0.193892
N2    N     N_2   0.652949 0.425167 0.176057 -0.537353
H47   H     H_    0.621342 0.529372 0.206960 0.240370
C62   C     C_3   0.671812 0.307233 0.243392 -0.553862
H48   H     H_    0.627841 0.246107 0.291025 0.196700
H49   H     H_    0.696806 0.389948 0.286907 0.197111
H50   H     H_    0.703601 0.192654 0.208320 0.199686

loop_
_geom_bond_atom_site_label_1
_geom_bond_atom_site_label_2
_ccdc_geom_bond_type
C62   H50   S    
C51   C55   S    
C3    C6    S    
O11   C59   A    
C21   C33   A    
C42   C50   S    
O1    C3    A    
C41   C49   S    
C44   H28   S    
O2    C4    A    
C2    O7    A    
C56   H38   S    
C48   H36   S    
C62   H48   S    
C27   C29   A    
O5    C3    A    
C5    C11   A    
C28   H18   S    
C6    C12   A    
C43   C51   S    
C23   C25   A    
C36   C38   A    
O14   V4    S    
O18   V4    S    
O13   V3    S    
C33   C39   A    
C53   H41   S    
C34   C40   A    
C48   H34   S    
C37   H5    S    
C15   C17   A    
C18   C26   A    
O16   C60   A    
O15   C59   A    
C46   C54   S    
C8    C38   A    
H31   C53   S    
C52   C56   S    
C6    C14   A    
C4    C5    S    
C19   C21   A    
C22   C34   A    
C55   N1    S    
C9    H9    S    
C61   H46   S    
C25   H1    S    
C11   H11   S    
C12   H12   S    
C42   C44   S    
C44   C52   S    
C29   C31   A    
C30   C32   A    
C36   H20   S    
C48   C50   S    
C32   C34   A    
C46   C50   S    
C27   H17   S    
C56   N2    S    
C15   C19   A    
C14   H14   S    
C16   C20   A    
C13   H13   S    
C49   C60   S    
C29   H7    S    
C44   H26   S    
H30   C46   S    
C30   H8    S    
C43   H25   S    
H29   C45   S    
O19   V4    S    
O5    V1    S    
C9    C17   A    
C47   C49   S    
C38   H6    S    
O4    V2    S    
N1    C61   S    
O12   C60   A    
C10   H10   S    
C7    C37   A    
O14   C58   A    
C26   H2    S    
C1    C52   S    
C23   H15   S    
O6    C4    A    
C45   H39   S    
O11   V4    S    
C52   C54   S    
C41   C43   S    
C55   H37   S    
O1    V2    S    
C47   H35   S    
O2    V1    S    
C31   C33   A    
C35   H19   S    
O12   V3    S    
C42   H22   S    
O17   V3    S    
O4    C2    A    
C51   C53   S    
C9    C11   A    
N2    H47   S    
C10   C12   A    
C54   H42   S    
C13   C15   A    
C41   H21   S    
N1    H43   S    
O3    V1    S    
C61   H44   S    
C62   H49   S    
C10   C18   A    
C45   C53   S    
C47   C55   S    
O3    C1    A    
C8    C57   S    
H32   C54   S    
C24   H16   S    
C35   C37   A    
C14   C16   A    
C58   O17   A    
C5    C13   A    
C2    C51   S    
C16   C18   A    
O7    V1    S    
C46   H40   S    
C1    O8    A    
C8    C40   A    
C32   C36   A    
O8    V2    S    
C24   C26   A    
C43   H27   S    
C31   C35   A    
C7    C58   S    
C28   C30   A    
C21   C23   A    
C22   C24   A    
C19   C27   A    
C39   H3    S    
C20   C28   A    
C45   C49   S    
C48   C56   S    
C47   H33   S    
C50   C59   S    
C7    C39   A    
O6    V2    S    
C57   O18   A    
C42   H24   S    
O9    V2    S    
C17   C25   A    
N2    C62   S    
C41   H23   S    
O10   V1    S    
O16   V4    S    
C61   H45   S    
O15   V3    S    
C40   H4    S    
C20   C22   A    
O20   V3    S    
O13   C57   A    
