data_mof_unit_1535.cif
_audit_creation_date              2013-03-05T15:47:37-0500
_audit_creation_method            fapswitch 2.2
_symmetry_space_group_name_H-M    P1
_symmetry_Int_Tables_number       1
_space_group_crystal_system       triclinic
_cell_length_a                    10.754827
_cell_length_b                    12.991201
_cell_length_c                    11.736214
_cell_angle_alpha                 99.653578
_cell_angle_beta                  92.911904
_cell_angle_gamma                 91.080022
_cell_volume                      1613.83109658

loop_
_atom_site_label
_atom_site_type_symbol
_atom_site_description
_atom_site_fract_x
_atom_site_fract_y
_atom_site_fract_z
_atom_type_partial_charge
O1    O     O_R   0.506570 0.354460 0.582000 -0.595622
O2    O     O_R   0.490940 0.341410 0.386200 -0.585415
C1    C     C_R   0.497686 0.299278 0.478809 0.777068
O3    O     O_R   0.327470 0.506530 0.597920 -0.588351
O4    O     O_R   0.311840 0.493480 0.402120 -0.579973
C2    C     C_R   0.262694 0.498038 0.500821 0.782023
Cu1   Cu    Cu3+1 0.509250 0.507730 0.615930 0.945662
Cu2   Cu    Cu3+1 0.490750 0.492270 0.384070 0.981519
O5    O     O_R   0.509060 0.658590 0.613800 -0.596011
O6    O     O_R   0.493430 0.645540 0.418000 -0.555745
O7    O     O_R   0.688160 0.506520 0.597880 -0.592656
O8    O     O_R   0.672530 0.493470 0.402080 -0.554838
C3    C     C_R   0.501649 0.700755 0.521247 0.823134
C4    C     C_R   0.737213 0.497624 0.498954 0.793639
H1    H     H_    0.113036 0.636911 0.433733 0.145356
C5    C     C_R   0.129943 0.326519 0.578081 -0.166734
H2    H     H_    0.230431 0.323448 0.579999 0.140704
C6    C     C_R   0.064744 0.244596 0.613387 -0.072302
H3    H     H_    0.114982 0.181482 0.642450 0.163966
C7    C     C_R   0.935151 0.243288 0.610270 -0.119131
H4    H     H_    0.884834 0.179116 0.636836 0.145379
C8    C     C_R   0.869971 0.324025 0.572090 -0.165364
H5    H     H_    0.769364 0.319019 0.569226 0.141370
C9    C     C_R   0.934193 0.408510 0.537249 0.092762
C10   C     C_R   0.065761 0.409679 0.540137 0.084826
C11   C     C_R   0.128946 0.493067 0.502255 -0.080467
C12   C     C_R   0.063889 0.573005 0.462300 -0.185740
H6    H     H_    0.886537 0.637767 0.435179 0.152141
C13   C     C_R   0.935573 0.572814 0.461551 -0.182094
C14   C     C_R   0.870725 0.491289 0.497649 -0.071070
C15   C     C_R   0.502987 0.814240 0.533526 -0.055362
C16   C     C_R   0.495051 0.185883 0.466769 -0.061477
C17   C     C_R   0.471789 0.015417 0.346413 -0.195110
C18   C     C_R   0.475301 0.123558 0.357191 -0.172638
C19   C     C_R   0.511552 0.139421 0.565610 -0.257503
C20   C     C_R   0.508439 0.031340 0.555499 0.165080
C21   C     C_R   0.488284 0.968880 0.445052 0.155005
C22   C     C_R   0.485194 0.860809 0.434908 -0.217130
C23   C     C_R   0.522633 0.876570 0.643150 -0.196220
C24   C     C_R   0.525234 0.984756 0.654080 -0.191710
H7    H     H_    0.468895 0.813236 0.350084 0.182516
H8    H     H_    0.536559 0.841855 0.720376 0.164361
H9    H     H_    0.456308 0.968326 0.261265 0.148464
H10   H     H_    0.540708 0.031832 0.739239 0.155829
H11   H     H_    0.462051 0.158246 0.279876 0.170818
H12   H     H_    0.527072 0.187097 0.650506 0.173102
N1    N     N_R   0.523180 0.519350 0.790130 -0.197462
N2    N     N_R   0.476820 0.480650 0.209890 -0.248005
C25   C     C_R   0.370764 0.408686 0.025503 0.228239
C26   C     C_R   0.384224 0.419551 0.147589 -0.013574
C27   C     C_R   0.559598 0.534111 0.153056 0.131406
C28   C     C_R   0.547462 0.529251 0.030924 -0.039628
C29   C     C_R   0.452402 0.465765 0.966024 -0.067623
C30   C     C_R   0.441988 0.463251 0.844034 0.089248
C31   C     C_R   0.614403 0.580873 0.852317 0.092985
C32   C     C_R   0.628063 0.587264 0.972125 -0.248990
H13   H     H_    0.369029 0.417378 0.791135 0.170452
H14   H     H_    0.677145 0.625344 0.808733 0.129791
H15   H     H_    0.701681 0.638337 0.017567 0.155431
H16   H     H_    0.321674 0.376408 0.192829 0.176194
N3    N     N_R   0.275177 0.338775 0.964630 0.109833
O9    O     O_R   0.167664 0.331693 0.009250 -0.345764
O10   O     O_R   0.302123 0.269252 0.876654 -0.396553
C33   C     C_2   0.667920 0.592692 0.215882 0.876915
O11   O     O_2   0.656424 0.680719 0.269484 -0.623753
O12   O     O_R   0.786167 0.551226 0.201175 -0.749054
H17   H     H_    0.855444 0.603227 0.234157 0.323848

loop_
_geom_bond_atom_site_label_1
_geom_bond_atom_site_label_2
_geom_bond_distance
_ccdc_geom_bond_type
O4    Cu2   1.946509 S    
C31   C32   1.394621 A    
Cu2   N2    2.022024 S    
C21   C22   1.388592 A    
C5    C10   1.414272 A    
C12   C13   1.379545 A    
C13   C14   1.392942 A    
H1    C12   1.084376 S    
C19   C20   1.388755 A    
C15   C23   1.404330 A    
C15   C22   1.399606 A    
C20   C24   1.398281 A    
Cu2   O8    1.955187 S    
C26   H16   1.081887 S    
C33   O11   1.220962 D    
N2    C26   1.363068 A    
C17   C18   1.388898 A    
Cu1   Cu2   2.691620 S    
C18   H11   1.083124 S    
C2    C11   1.439750 S    
C29   C30   1.425232 A    
C7    H4    1.082757 S    
C28   C29   1.408549 A    
Cu1   O7    1.946509 S    
C11   C12   1.394734 A    
N3    O9    1.301290 A    
C20   C21   1.413398 A    
C4    C14   1.440505 S    
O3    Cu1   1.955188 S    
C25   C29   1.421038 A    
O4    C2    1.290386 A    
O6    C3    1.298400 A    
Cu2   O6    1.963384 S    
H6    C13   1.083386 S    
O8    C4    1.295039 A    
C17   C21   1.398230 A    
O2    C1    1.295818 A    
C23   H8    1.083105 S    
C6    C7    1.392085 A    
N1    C30   1.371351 A    
C1    C16   1.455727 S    
O7    C4    1.288083 A    
C8    C9    1.414043 A    
N2    C27   1.382828 A    
C9    C14   1.414735 A    
C25   N3    1.436895 S    
C7    C8    1.394902 A    
O3    C2    1.292437 A    
C27   C28   1.423335 A    
C17   H9    1.083898 S    
C16   C19   1.399787 A    
Cu1   O5    1.964236 S    
C24   H10   1.083909 S    
O12   H17   1.012595 S    
C9    C10   1.413417 A    
C22   H7    1.084239 S    
N1    C31   1.355020 A    
C25   C26   1.415701 A    
C31   H14   1.081763 S    
C23   C24   1.389331 A    
N3    O10   1.301272 A    
C32   H15   1.081736 S    
O5    C3    1.295641 A    
C8    H5    1.081212 S    
C6    H3    1.082741 S    
C16   C18   1.403955 A    
C10   C11   1.413325 A    
O1    Cu1   1.963384 S    
C19   H12   1.084643 S    
C3    C15   1.456815 S    
C5    C6    1.394757 A    
O2    Cu2   1.964236 S    
C27   C33   1.473490 S    
C28   C32   1.416407 A    
C33   O12   1.397931 S    
C5    H2    1.081442 S    
O1    C1    1.297779 A    
C30   H13   1.079385 S    
Cu1   N1    2.022257 S    
