data_mof_unit_3427.cif
_audit_creation_date              2012-10-26T19:21:04-0400
_audit_creation_method            fapswitch 2.2
_symmetry_space_group_name_H-M    P1
_symmetry_Int_Tables_number       1
_space_group_crystal_system       triclinic
_cell_length_a                    9.857488
_cell_length_b                    11.016271
_cell_length_c                    13.340255
_cell_angle_alpha                 95.416963
_cell_angle_beta                  80.744429
_cell_angle_gamma                 111.889278
_cell_volume                      1325.77666529

loop_
_atom_site_label
_atom_site_type_symbol
_atom_type_description
_atom_site_fract_x
_atom_site_fract_y
_atom_site_fract_z
_atom_type_partial_charge
C1    C     C_R   0.556313 0.745871 0.509831 0.548567
C2    C     C_R   0.372338 0.475242 0.801921 0.028972
C3    C     C_2   0.586767 0.886210 0.519235 -0.135985
C4    C     C_R   0.421740 0.488982 0.691240 0.554808
C5    C     C_2   0.475321 0.928247 0.523837 -0.170788
C6    C     C_2   0.407521 0.110470 0.485501 -0.002187
C7    C     C_2   0.501120 0.067330 0.521654 -0.153971
C8    C     C_2   0.923019 0.490654 0.488955 0.027765
C9    C     C_2   0.069260 0.500552 0.514711 0.196909
C10   C     C_R   0.442762 0.253267 0.490436 0.574223
C11   C     C_R   0.578756 0.513988 0.309601 0.546076
C12   C     C_R   0.441018 0.493289 0.972884 0.014300
C13   C     C_R   0.784405 0.702260 0.079793 -0.146050
C14   C     C_R   0.630440 0.542467 0.202303 0.022879
C15   C     C_R   0.229587 0.387323 0.837834 0.091999
C16   C     C_R   0.189500 0.365071 0.941651 -0.133239
C17   C     C_R   0.293342 0.417546 0.008390 -0.148974
C18   C     C_3   0.271792 0.012388 0.441051 -0.278486
C19   C     C_3   0.190935 0.067731 0.379815 -0.418838
C20   C     C_3   0.455236 0.325155 0.140438 -0.288581
C21   C     C_3   0.551033 0.251810 0.163297 -0.443185
C22   C     C_R   0.473873 0.537205 0.872470 -0.033486
C23   C     C_R   0.553891 0.535089 0.036829 0.024416
C24   C     C_R   0.683394 0.646294 0.009637 0.043703
C25   C     C_R   0.707188 0.700722 0.913803 0.091067
C26   C     C_R   0.605046 0.644400 0.846093 -0.073168
C27   C     C_R   0.542582 0.471506 0.127588 0.010006
C28   C     C_R   0.753912 0.654677 0.176904 -0.155582
Cu1   Cu    Cu3+1 0.362000 0.479240 0.482530 0.923631
Cu2   Cu    Cu3+1 0.638000 0.520760 0.517470 0.922615
H1    H     H_    0.824338 0.708099 0.233316 0.124081
H2    H     H_    0.626446 0.690869 0.774323 0.156973
H3    H     H_    0.601171 0.135620 0.549017 0.150394
H4    H     H_    0.124978 0.117105 0.430783 0.178459
H5    H     H_    0.270226 0.135860 0.322865 0.155259
H6    H     H_    0.112568 0.986157 0.338488 0.121218
H7    H     H_    0.308043 0.942792 0.387947 0.148786
H8    H     H_    0.191224 0.955456 0.503660 0.147713
H9    H     H_    0.095653 0.495521 0.662137 0.273325
H10   H     H_    0.211697 0.637664 0.602917 0.269032
H11   H     H_    0.929272 0.791121 0.883864 0.232539
H12   H     H_    0.363159 0.858274 0.525186 0.152868
H13   H     H_    0.836805 0.891337 0.933214 0.224689
H14   H     H_    0.650611 0.272393 0.105429 0.155477
H15   H     H_    0.585398 0.279641 0.239973 0.151874
H16   H     H_    0.486886 0.144818 0.161208 0.134530
H17   H     H_    0.360811 0.310013 0.201880 0.146961
H18   H     H_    0.411315 0.277107 0.069581 0.151898
H19   H     H_    0.028938 0.335566 0.792585 0.218700
H20   H     H_    0.101291 0.217129 0.775872 0.232125
H21   H     H_    0.699555 0.954742 0.519722 0.103965
H22   H     H_    0.878852 0.428085 0.424994 0.114579
H23   H     H_    0.118590 0.402887 0.389091 0.173665
H24   H     H_    0.887646 0.611770 0.604139 0.245282
H25   H     H_    0.882611 0.788103 0.062833 0.109782
H26   H     H_    0.256528 0.398921 0.088181 0.110822
H27   H     H_    0.078360 0.302503 0.970280 0.109467
N1    N     N_2   0.845330 0.551960 0.543750 -0.347047
N2    N     N_2   0.154690 0.448120 0.456210 -0.334927
N3    N     N_3   0.107320 0.564916 0.610338 -0.635588
N4    N     N_3   0.835026 0.812768 0.882265 -0.650353
N5    N     N_3   0.126192 0.317212 0.769229 -0.614334
O1    O     O_R   0.426290 0.668220 0.490680 -0.504614
O2    O     O_R   0.659360 0.703290 0.520190 -0.491714
O3    O     O_R   0.326580 0.473880 0.629020 -0.466167
O4    O     O_R   0.559660 0.508940 0.658530 -0.502699
O5    O     O_R   0.340640 0.296710 0.479810 -0.481259
O6    O     O_R   0.573710 0.331780 0.509320 -0.504969
O7    O     O_R   0.440340 0.491060 0.341470 -0.495869
O8    O     O_R   0.673420 0.526120 0.370980 -0.504340

loop_
_geom_bond_atom_site_label_1
_geom_bond_atom_site_label_2
_ccdc_geom_bond_type
C12   C17   A    
C6    C10   S    
C2    C4    S    
C5    H12   S    
Cu1   O1    S    
C13   C28   A    
C2    C22   A    
C6    C7    D    
H10   N3    S    
C20   C27   S    
C23   C27   A    
C14   C27   A    
C21   H14   S    
C8    H22   S    
C21   H15   S    
C17   H26   S    
H11   N4    S    
C23   C24   A    
C9    N3    S    
C8    N1    D    
C10   O6    A    
C3    C5    D    
C11   O7    A    
C18   H8    S    
C11   O8    A    
C25   C26   A    
C19   H5    S    
C10   O5    A    
C24   C25   A    
C4    O4    A    
C2    C15   A    
C7    H3    S    
C12   C23   A    
Cu2   O2    S    
Cu1   Cu2   S    
Cu1   O3    S    
H9    N3    S    
C1    O1    A    
Cu2   O4    S    
C15   N5    S    
C18   C19   S    
Cu1   O7    S    
C16   H27   S    
H23   N2    S    
C4    O3    A    
H20   N5    S    
C6    C18   S    
C20   H17   S    
C15   C16   A    
C1    O2    A    
Cu2   N1    S    
Cu2   O8    S    
C12   C22   A    
C20   C21   S    
H13   N4    S    
C21   H16   S    
C22   C26   A    
H24   N1    S    
C11   C14   S    
C5    C7    S    
C3    H21   S    
C26   H2    S    
C16   C17   A    
C25   N4    S    
H19   N5    S    
C20   H18   S    
C14   C28   A    
C19   H6    S    
Cu1   O5    S    
C9    N2    D    
C18   H7    S    
C28   H1    S    
Cu2   O6    S    
Cu1   N2    S    
C13   C24   A    
C13   H25   S    
C8    C9    S    
C1    C3    S    
C19   H4    S    
