data_mof_unit_3540.cif
_audit_creation_date              2013-03-05T15:53:24-0500
_audit_creation_method            fapswitch 2.2
_symmetry_space_group_name_H-M    P1
_symmetry_Int_Tables_number       1
_space_group_crystal_system       triclinic
_cell_length_a                    10.591573
_cell_length_b                    10.704707
_cell_length_c                    16.912719
_cell_angle_alpha                 98.718656
_cell_angle_beta                  98.644117
_cell_angle_gamma                 61.631449
_cell_volume                      1661.01330788

loop_
_atom_site_label
_atom_site_type_symbol
_atom_site_description
_atom_site_fract_x
_atom_site_fract_y
_atom_site_fract_z
_atom_type_partial_charge
O1    O     O_R   0.751220 0.499230 0.435170 -0.533619
O2    O     O_R   0.477220 0.727600 0.436870 -0.495171
C1    C     C_R   0.381695 0.710061 0.386501 0.555256
O3    O     O_R   0.258650 0.745120 0.411470 -0.453001
O4    O     O_R   0.297070 0.467240 0.395960 -0.521449
C2    C     C_R   0.369699 0.346352 0.359104 0.527592
O5    O     O_R   0.488830 0.252610 0.387790 -0.484096
O6    O     O_R   0.724400 0.302390 0.420980 -0.455024
C3    C     C_R   0.782363 0.373466 0.404270 0.559236
O7    O     O_R   0.752100 0.501210 0.612190 -0.518888
O8    O     O_R   0.478040 0.729440 0.600970 -0.485520
C4    C     C_R   0.379496 0.715895 0.631757 0.551768
O9    O     O_R   0.259530 0.747110 0.588490 -0.483990
O10   O     O_R   0.297880 0.469080 0.560050 -0.518950
C5    C     C_R   0.366281 0.346037 0.585064 0.536160
O11   O     O_R   0.489720 0.254590 0.564810 -0.509534
O12   O     O_R   0.725220 0.304230 0.585080 -0.488627
C6    C     C_R   0.773608 0.380156 0.629679 0.537365
Cr1   Cr    Cr6+3 0.608340 0.611040 0.520430 1.027684
Cr2   Cr    Cr6+3 0.287650 0.601120 0.489350 1.051985
Cr3   Cr    Cr6+3 0.604040 0.287870 0.490280 1.077767
O13   O     O_3   0.500010 0.500010 0.500020 -0.313632
C7    C     C_1   0.342544 0.334869 0.275425 -0.053578
C8    C     C_1   0.331129 0.324528 0.204180 -0.050066
C9    C     C_3   0.760057 0.275548 0.203574 -0.116737
C10   C     C_3   0.707176 0.414688 0.259671 -0.162345
H1    H     H_    0.594302 0.475736 0.274509 0.110597
H2    H     H_    0.690605 0.233986 0.165686 0.147361
C11   C     C_3   0.828457 0.338873 0.324431 0.056035
C12   C     C_3   0.879240 0.201634 0.269237 0.221455
C13   C     C_3   0.983755 0.239640 0.236856 -0.133265
C14   C     C_3   0.929373 0.380934 0.292522 -0.147301
C15   C     C_3   0.808046 0.458568 0.227559 -0.125629
C16   C     C_3   0.860908 0.319391 0.172835 0.019653
H3    H     H_    0.096893 0.168348 0.223568 0.104412
H4    H     H_    0.998719 0.422691 0.330343 0.137577
H5    H     H_    0.778651 0.563563 0.207212 0.146337
C17   C     C_3   0.435734 0.687670 0.187975 -0.156156
C18   C     C_3   0.316556 0.692276 0.233007 -0.133395
H6    H     H_    0.285664 0.606430 0.231001 0.123404
H7    H     H_    0.502057 0.600114 0.144539 0.116247
C19   C     C_3   0.370848 0.756790 0.308737 0.049551
C20   C     C_3   0.490969 0.751926 0.265632 -0.123381
C21   C     C_3   0.387435 0.904129 0.242152 -0.131208
C22   C     C_3   0.269110 0.908395 0.287267 -0.087822
C23   C     C_3   0.213613 0.844314 0.210998 -0.070323
C24   C     C_3   0.333155 0.838384 0.166616 0.040570
H8    H     H_    0.602660 0.718692 0.293180 0.145638
H9    H     H_    0.416184 0.991660 0.243620 0.144006
H10   H     H_    0.207165 0.998255 0.330675 0.169282
H11   H     H_    0.099393 0.881493 0.187113 0.189120
C25   C     C_3   0.460546 0.251650 0.773179 -0.110322
C26   C     C_3   0.408153 0.392048 0.735330 -0.114535
H12   H     H_    0.475533 0.444244 0.730999 0.100347
H13   H     H_    0.569574 0.190808 0.803755 0.132638
C27   C     C_3   0.336135 0.335201 0.663319 0.054308
C28   C     C_3   0.388628 0.195610 0.700564 -0.109191
C29   C     C_3   0.246435 0.264710 0.740962 -0.106362
C30   C     C_3   0.194225 0.405329 0.702517 -0.118100
C31   C     C_3   0.266050 0.461064 0.776075 -0.127928
C32   C     C_3   0.319244 0.320799 0.812847 0.052349
H14   H     H_    0.436887 0.087554 0.667963 0.141180
H15   H     H_    0.179486 0.212175 0.745597 0.121707
H16   H     H_    0.085816 0.466149 0.671322 0.137244
H17   H     H_    0.217943 0.568760 0.809066 0.130371
C33   C     C_1   0.817089 0.342458 0.709689 -0.043988
C34   C     C_1   0.843609 0.314978 0.778102 -0.045526
C35   C     C_1   0.357731 0.765299 0.714465 -0.048546
C36   C     C_1   0.326605 0.811683 0.782084 -0.047890
O14   O     O_R   0.171830 0.913880 0.057510 -0.525894
O15   O     O_R   0.940690 0.186050 0.054730 -0.501448
C37   C     C_R   0.894416 0.309234 0.091738 0.544622
O16   O     O_R   0.920470 0.405720 0.075010 -0.510691
O17   O     O_R   0.196690 0.370460 0.084120 -0.495639
C38   C     C_R   0.319075 0.298757 0.120433 0.536983
O18   O     O_R   0.412990 0.180750 0.091610 -0.507542
O19   O     O_R   0.366620 0.943130 0.065760 -0.497938
C39   C     C_R   0.295038 0.890616 0.088352 0.544367
O20   O     O_R   0.160510 0.906330 0.879210 -0.508739
O21   O     O_R   0.930190 0.179050 0.889450 -0.496470
C40   C     C_R   0.884865 0.299306 0.860961 0.541270
O22   O     O_R   0.909140 0.398170 0.896710 -0.507319
O23   O     O_R   0.186190 0.363460 0.918830 -0.500094
C41   C     C_R   0.308709 0.293633 0.891901 0.540389
O24   O     O_R   0.401670 0.173200 0.913310 -0.517187
O25   O     O_R   0.356120 0.936130 0.900470 -0.493324
C42   C     C_R   0.282633 0.880185 0.859731 0.544022
Cr4   Cr    Cr6+3 0.054020 0.052700 0.970850 1.030929
Cr5   Cr    Cr6+3 0.059230 0.375120 0.993390 1.035052
Cr6   Cr    Cr6+3 0.374950 0.061200 0.992340 1.037660
O26   O     O_3   0.162740 0.163010 0.985530 -0.262121
N1    N     N_R   0.911685 0.065121 0.295566 0.063074
O27   O     O_R   0.853577 0.989426 0.254516 -0.349505
O28   O     O_R   0.974029 0.032534 0.367133 -0.335561

loop_
_geom_bond_atom_site_label_1
_geom_bond_atom_site_label_2
_geom_bond_distance
_ccdc_geom_bond_type
C21   H9    1.110446 S    
O19   C39   1.262545 A    
C1    C19   1.446581 S    
O11   Cr3   2.046148 S    
O14   C39   1.250194 A    
C38   O18   1.260091 A    
O14   Cr4   2.064437 S    
O20   C42   1.271249 A    
C40   O22   1.252808 A    
C28   C29   1.542601 S    
C28   H14   1.110304 S    
O4    Cr2   1.945212 S    
C26   H12   1.110820 S    
C21   C22   1.541878 S    
C9    H2    1.110203 S    
C4    C35   1.430513 S    
O8    Cr1   1.935447 S    
C10   H1    1.103320 S    
O22   Cr5   2.056658 S    
O4    C2    1.268279 A    
C14   H4    1.110195 S    
O17   Cr5   1.938939 S    
C11   C14   1.529974 S    
C25   C32   1.528533 S    
C17   C18   1.547352 S    
O21   C40   1.284919 A    
C5    O11   1.265578 A    
C9    C12   1.532543 S    
C27   C28   1.526238 S    
O23   C41   1.266007 A    
O6    C3    1.263676 A    
C7    C8    1.186282 T    
Cr5   O26   1.990449 S    
C20   H8    1.108027 S    
C36   C42   1.430579 S    
C25   H13   1.110404 S    
C3    C11   1.439979 S    
C9    C16   1.532591 S    
C29   C32   1.539540 S    
C33   C34   1.196322 T    
C30   C31   1.550536 S    
Cr3   O13   1.990363 S    
O20   Cr4   2.058925 S    
C26   C31   1.544912 S    
O12   C6    1.259352 A    
C18   C19   1.528358 S    
O23   Cr5   1.927813 S    
O19   Cr6   1.939544 S    
O1    Cr1   2.052678 S    
O17   C38   1.266772 A    
O10   Cr2   1.940939 S    
Cr1   O13   1.975037 S    
O1    C3    1.269200 A    
C41   O24   1.261224 A    
C17   H7    1.110093 S    
C12   N1    1.458054 S    
O25   Cr6   1.943297 S    
C18   H6    1.107094 S    
O25   C42   1.263269 A    
C35   C36   1.203612 T    
C29   C30   1.546639 S    
O5    Cr3   2.059039 S    
C23   H11   1.108787 S    
C15   H5    1.109554 S    
C31   C32   1.527275 S    
C19   C22   1.525119 S    
C20   C21   1.543440 S    
C11   C12   1.517640 S    
C10   C15   1.544563 S    
C13   C14   1.552165 S    
Cr4   O26   1.974674 S    
O7    Cr1   2.061751 S    
O8    C4    1.308276 A    
N1    O28   1.300626 A    
C15   C16   1.527994 S    
C30   H16   1.110081 S    
C13   C16   1.547691 S    
C17   C24   1.518817 S    
C18   C23   1.533475 S    
Cr2   O13   1.971511 S    
C31   H17   1.110075 S    
C34   C40   1.414383 S    
C13   H3    1.108510 S    
C19   C20   1.535313 S    
C1    O3    1.292365 A    
C16   C37   1.443409 S    
C25   C26   1.539087 S    
C26   C27   1.540332 S    
C29   H15   1.110964 S    
C23   C24   1.537996 S    
O9    Cr2   2.062960 S    
O2    Cr1   1.944402 S    
C37   O16   1.267233 A    
C32   C41   1.441594 S    
O6    Cr3   1.927598 S    
O24   Cr6   2.055729 S    
C21   C24   1.532644 S    
C8    C38   1.399718 S    
C2    O5    1.262852 A    
C6    C33   1.416927 S    
C27   C30   1.529252 S    
C5    C27   1.440777 S    
O2    C1    1.287457 A    
C9    C10   1.539761 S    
O16   Cr5   2.046486 S    
C17   C20   1.554967 S    
O21   Cr4   1.944441 S    
C14   C15   1.544891 S    
Cr6   O26   1.971129 S    
C12   C13   1.539025 S    
C22   H10   1.107100 S    
O7    C6    1.278291 A    
C2    C7    1.399738 S    
N1    O27   1.300872 A    
O12   Cr3   1.938700 S    
C25   C28   1.542090 S    
O15   Cr4   1.939254 S    
O3    Cr2   2.061410 S    
C22   C23   1.538498 S    
O15   C37   1.264379 A    
C4    O9    1.285606 A    
C10   C11   1.537608 S    
O10   C5    1.268346 A    
C24   C39   1.441159 S    
O18   Cr6   2.062556 S    
