data_mof_unit_1114.cif
_audit_creation_date              2012-12-10T19:45:03-0500
_audit_creation_method            fapswitch 2.2
_symmetry_space_group_name_H-M    P1
_symmetry_Int_Tables_number       1
_space_group_crystal_system       triclinic
_cell_length_a                    15.06261
_cell_length_b                    10.810965
_cell_length_c                    13.688197
_cell_angle_alpha                 90.41257
_cell_angle_beta                  89.726682
_cell_angle_gamma                 89.91189
_cell_volume                      2228.91856967

loop_
_atom_site_label
_atom_site_type_symbol
_atom_type_description
_atom_site_fract_x
_atom_site_fract_y
_atom_site_fract_z
_atom_type_partial_charge
C1    C     C_R   0.500096 0.262404 0.499515 0.847933
C2    C     C_R   0.632329 0.867174 0.611770 0.053004
C3    C     C_R   0.377854 0.167924 0.288683 0.093358
C4    C     C_R   0.622146 0.832076 0.711317 0.093354
C5    C     C_R   0.307862 0.231962 0.243453 -0.173805
C6    C     C_R   0.692139 0.768039 0.756547 -0.173806
C7    C     C_R   0.229532 0.258742 0.294286 -0.140660
C8    C     C_R   0.770468 0.741258 0.705713 -0.140660
C9    C     C_R   0.435026 0.934752 0.445483 -0.017642
C10   C     C_R   0.564973 0.065248 0.554517 -0.017639
C11   C     C_R   0.498536 0.871570 0.501915 -0.133038
C12   C     C_R   0.499904 0.737596 0.500485 0.847939
C13   C     C_R   0.501464 0.128430 0.498085 -0.133038
C14   C     C_R   0.562603 0.935838 0.557485 -0.029990
C15   C     C_R   0.437396 0.064162 0.442514 -0.029989
C16   C     C_R   0.328503 0.500908 0.500235 0.871997
C17   C     C_R   0.671497 0.499092 0.499765 0.871994
C18   C     C_R   0.561758 0.431515 0.792588 0.024350
C19   C     C_R   0.438242 0.568486 0.207412 0.024348
C20   C     C_R   0.438261 0.568456 0.794012 0.016484
C21   C     C_R   0.561739 0.431544 0.205988 0.016484
C22   C     C_R   0.436684 0.569934 0.897107 0.015123
C23   C     C_R   0.045505 0.445688 0.672513 -0.199129
C24   C     C_R   0.563316 0.430066 0.102893 0.015123
C25   C     C_R   0.499997 0.499983 0.948172 0.100655
C26   C     C_R   0.500003 0.500017 0.051828 0.100656
C27   C     C_R   0.563289 0.429973 0.895637 -0.004527
C28   C     C_R   0.436711 0.570027 0.104363 -0.004527
C29   C     C_R   0.373707 0.639599 0.950121 -0.197729
C30   C     C_R   0.626293 0.360401 0.049878 -0.197729
C31   C     C_R   0.373754 0.639715 0.052820 -0.185160
C32   C     C_R   0.626246 0.360285 0.947180 -0.185159
C33   C     C_R   0.814909 0.524397 0.413268 -0.264098
C34   C     C_R   0.954495 0.554311 0.327487 -0.199128
C35   C     C_R   0.185091 0.475602 0.586732 -0.264099
C36   C     C_R   0.768259 0.496900 0.499271 -0.043749
C37   C     C_R   0.231741 0.503100 0.500729 -0.043749
C38   C     C_R   0.814194 0.468760 0.585179 -0.197000
C39   C     C_R   0.185806 0.531240 0.414821 -0.197000
C40   C     C_R   0.906635 0.470086 0.586140 0.087192
C41   C     C_R   0.093365 0.529914 0.413860 0.087192
C42   C     C_R   0.953483 0.498948 0.499766 0.061266
C43   C     C_R   0.046516 0.501052 0.500233 0.061266
C44   C     C_R   0.907387 0.525831 0.412946 0.104114
C45   C     C_R   0.219661 0.222722 0.391222 -0.112493
C46   C     C_R   0.092613 0.474169 0.587054 0.104114
C47   C     C_R   0.952959 0.443706 0.672066 -0.214800
C48   C     C_R   0.047041 0.556294 0.327934 -0.214801
C49   C     C_2   0.363394 0.866148 0.393576 0.838344
C50   C     C_2   0.636605 0.133852 0.606424 0.838349
C51   C     C_2   0.458770 0.138585 0.229516 0.858506
C52   C     C_2   0.541231 0.861416 0.770484 0.858508
C53   C     C_R   0.780339 0.777278 0.608777 -0.112492
C54   C     C_R   0.288480 0.161111 0.438205 -0.185023
C55   C     C_R   0.711520 0.838889 0.561795 -0.185022
C56   C     C_R   0.367671 0.132826 0.388230 0.053009
Cu1   Cu    Cu3+1 0.500010 0.499980 0.597420 0.973932
Cu2   Cu    Cu3+1 0.499990 0.500020 0.402580 0.973932
H1    H     H_    0.779325 0.546288 0.346897 0.157732
H2    H     H_    0.675423 0.305684 0.908092 0.142878
H3    H     H_    0.778045 0.446708 0.651508 0.152901
H4    H     H_    0.221955 0.553292 0.348492 0.152902
H5    H     H_    0.917614 0.421675 0.738840 0.140691
H6    H     H_    0.082386 0.578325 0.261160 0.140691
H7    H     H_    0.080233 0.424912 0.739592 0.145645
H8    H     H_    0.919767 0.575088 0.260408 0.145645
H9    H     H_    0.176291 0.307744 0.258360 0.138012
H10   H     H_    0.823710 0.692257 0.741639 0.138012
H11   H     H_    0.158758 0.243505 0.430346 0.148550
H12   H     H_    0.220675 0.453712 0.653103 0.157732
H13   H     H_    0.841242 0.756494 0.569653 0.148550
H14   H     H_    0.279937 0.134512 0.513824 0.146627
H15   H     H_    0.720062 0.865488 0.486175 0.146628
H16   H     H_    0.313389 0.261491 0.168252 0.171034
H17   H     H_    0.686612 0.738510 0.831748 0.171035
H18   H     H_    0.297162 0.835932 0.267952 0.317124
H19   H     H_    0.702834 0.164073 0.732049 0.317123
H20   H     H_    0.516778 0.134973 0.096178 0.345413
H21   H     H_    0.483223 0.865027 0.903822 0.345413
H22   H     H_    0.609835 0.377994 0.751131 0.143098
H23   H     H_    0.390165 0.622006 0.248869 0.143098
H24   H     H_    0.390406 0.622384 0.753654 0.146303
H25   H     H_    0.609594 0.377616 0.246346 0.146303
H26   H     H_    0.324554 0.694222 0.912168 0.147330
H27   H     H_    0.675446 0.305778 0.087832 0.147330
H28   H     H_    0.324577 0.694316 0.091908 0.142879
N1    N     N_R   0.499960 0.499900 0.743810 -0.197921
N2    N     N_R   0.500040 0.500100 0.256190 -0.197922
O1    O     O_R   0.500000 0.319630 0.582270 -0.578819
O2    O     O_R   0.347566 0.887996 0.294657 -0.763853
O3    O     O_2   0.681706 0.209195 0.562285 -0.621690
O4    O     O_R   0.652430 0.112010 0.705344 -0.763853
O5    O     O_2   0.525472 0.096814 0.267745 -0.590944
O6    O     O_R   0.458589 0.159038 0.128697 -0.773644
O7    O     O_2   0.474528 0.903187 0.732256 -0.590943
O8    O     O_R   0.541412 0.840962 0.871303 -0.773644
O9    O     O_R   0.500000 0.680370 0.417730 -0.578819
O10   O     O_R   0.499990 0.319660 0.417730 -0.577502
O11   O     O_R   0.500010 0.680340 0.582270 -0.577501
O12   O     O_R   0.370260 0.499960 0.582280 -0.598408
O13   O     O_R   0.629740 0.500040 0.417720 -0.598408
O14   O     O_R   0.370250 0.499990 0.417740 -0.587983
O15   O     O_R   0.629750 0.500010 0.582260 -0.587984
O16   O     O_2   0.318296 0.790800 0.437715 -0.621690

loop_
_geom_bond_atom_site_label_1
_geom_bond_atom_site_label_2
_ccdc_geom_bond_type
C40   C47   A    
C38   C40   A    
H19   O4    S    
C22   C29   A    
C20   H24   S    
Cu2   O10   S    
C49   O2    S    
C34   H8    S    
C49   O16   D    
C6    H17   S    
C39   C41   A    
Cu1   O1    S    
C4    C52   S    
C7    C45   A    
C35   C37   A    
C24   C26   A    
C2    C55   A    
C47   H5    S    
C11   C14   A    
C48   H6    S    
Cu1   O11   S    
C20   N1    A    
C33   C36   A    
C52   O7    D    
C5    H16   S    
C17   O13   A    
C12   O11   A    
C21   H25   S    
C35   H12   S    
C22   C25   A    
Cu2   O14   S    
C17   C36   S    
C16   C37   S    
C38   H3    S    
C40   C42   A    
C21   N2    A    
C33   H1    S    
C23   C46   A    
C41   C43   A    
Cu2   O9    S    
C42   C44   A    
C53   C55   A    
Cu1   O15   S    
C54   C56   A    
C23   C47   A    
C45   H11   S    
C34   C44   A    
C29   H26   S    
C4    C6    A    
C19   N2    A    
C10   C14   A    
C5    C7    A    
C3    C51   S    
C16   O12   A    
C6    C8    A    
C54   H14   S    
C25   C26   A    
Cu1   O12   S    
Cu1   N1    S    
C1    O10   A    
C2    C4    A    
C3    C56   A    
C29   C31   A    
C9    C49   S    
Cu2   O13   S    
C30   H27   S    
C19   C28   A    
C9    C11   A    
C12   O9    A    
C51   O5    D    
C50   O4    S    
C20   C22   A    
C45   C54   A    
C8    H10   S    
C13   C15   A    
C1    C13   S    
C42   C43   A    
C32   H2    S    
C10   C50   S    
C16   O14   A    
C39   H4    S    
C1    O1    A    
C27   C32   A    
C33   C44   A    
C28   C31   A    
C18   C27   A    
C3    C5    A    
C10   C13   A    
Cu2   N2    S    
C8    C53   A    
C11   C12   S    
C25   C27   A    
C26   C28   A    
C18   N1    A    
C15   C56   S    
C23   H7    S    
C36   C38   A    
C17   O15   A    
H21   O8    S    
C37   C39   A    
C30   C32   A    
Cu1   Cu2   S    
H20   O6    S    
C41   C48   A    
C52   O8    S    
C9    C15   A    
C2    C14   S    
C43   C46   A    
C24   C30   A    
C51   O6    S    
C7    H9    S    
C55   H15   S    
C50   O3    D    
C34   C48   A    
C18   H22   S    
C21   C24   A    
C31   H28   S    
C19   H23   S    
C35   C46   A    
H18   O2    S    
C53   H13   S    
