data_mof_unit_2437.cif
_audit_creation_date              2012-12-11T18:45:05-0500
_audit_creation_method            fapswitch 2.2
_symmetry_space_group_name_H-M    P1
_symmetry_Int_Tables_number       1
_space_group_crystal_system       triclinic
_cell_length_a                    8.223851
_cell_length_b                    14.293684
_cell_length_c                    18.739994
_cell_angle_alpha                 97.357192
_cell_angle_beta                  91.178472
_cell_angle_gamma                 91.609009
_cell_volume                      2183.22382154

loop_
_atom_site_label
_atom_site_type_symbol
_atom_type_description
_atom_site_fract_x
_atom_site_fract_y
_atom_site_fract_z
_atom_type_partial_charge
Ba1   Ba    Ba6+2 0.843240 0.541620 0.463500 1.682119
Ba2   Ba    Ba6+2 0.346570 0.458460 0.536510 1.667055
C1    C     C_3   0.622580 0.882092 0.279163 -0.205909
C2    C     C_R   0.910605 0.409463 0.097343 0.015171
C3    C     C_R   0.754684 0.371497 0.075199 -0.055139
C4    C     C_3   0.087010 0.732394 0.258250 0.347168
C5    C     C_R   0.691066 0.379420 0.006786 -0.108108
C6    C     C_R   0.782943 0.422905 0.957625 0.033818
C7    C     C_R   0.936627 0.463946 0.979004 0.026858
C8    C     C_R   0.724266 0.423787 0.887080 -0.113399
C9    C     C_R   0.819957 0.460826 0.835280 -0.021645
C10   C     C_R   0.973451 0.504347 0.856588 0.049612
C11   C     C_R   0.029844 0.506899 0.929059 0.006185
C12   C     C_3   0.606014 0.784056 0.302784 0.299106
C13   C     C_R   0.768010 0.454008 0.762477 -0.019192
C14   C     C_R   0.868696 0.489349 0.712135 -0.280199
C15   C     C_R   0.016143 0.537410 0.732282 0.013503
C16   C     C_3   0.056954 0.754335 0.181849 -0.328234
C17   C     C_R   0.069499 0.546290 0.805993 -0.036839
C18   C     C_R   0.150477 0.502732 0.071859 0.003909
C19   C     C_R   0.210229 0.501525 0.143417 0.016498
C20   C     C_R   0.121616 0.451300 0.191999 -0.078422
C21   C     C_R   0.984137 0.394405 0.163963 -0.020737
C22   C     C_R   0.214189 0.596282 0.831268 -0.030817
C23   C     C_3   0.444437 0.235351 0.318108 0.235337
C24   C     C_R   0.272819 0.595675 0.902210 0.015171
C25   C     C_R   0.181301 0.550178 0.951208 0.010680
C26   C     C_R   0.241486 0.548335 0.022478 0.028691
C27   C     C_R   0.423705 0.638832 0.924658 -0.051950
C28   C     C_3   0.170377 0.751378 0.610552 0.272258
C29   C     C_R   0.484276 0.636129 0.994584 -0.049423
C30   C     C_R   0.393812 0.591400 0.043936 0.019619
C31   C     C_R   0.361503 0.548047 0.165300 -0.039841
C32   C     C_R   0.453014 0.590368 0.114459 -0.105765
C33   C     C_R   0.415870 0.551908 0.237639 0.059874
C34   C     C_3   0.387866 0.137295 0.281894 -0.269688
C35   C     C_R   0.316603 0.514031 0.287406 -0.235311
C36   C     C_R   0.174465 0.460726 0.266368 -0.005653
C37   C     C_R   0.698272 0.938298 0.539431 0.027707
C38   C     C_R   0.512888 0.800115 0.496681 0.051884
C39   C     C_R   0.370089 0.765648 0.459484 -0.290417
C40   C     C_3   0.126223 0.855120 0.620730 -0.293401
C41   C     C_R   0.265913 0.826450 0.429889 0.022282
C42   C     C_R   0.310242 0.921468 0.431762 -0.161321
C43   C     C_R   0.456480 0.957280 0.466235 -0.033017
C44   C     C_R   0.557709 0.897732 0.501061 -0.036692
C45   C     C_3   0.104208 0.275483 0.744357 0.327796
C46   C     C_R   0.640238 0.092743 0.504783 -0.018422
C47   C     C_R   0.742223 0.034284 0.540108 0.011214
C48   C     C_R   0.683703 0.189446 0.506552 0.047533
C49   C     C_R   0.824260 0.226715 0.543871 -0.276511
C50   C     C_R   0.931222 0.168214 0.574373 -0.011694
C51   C     C_R   0.889226 0.072336 0.573770 -0.096991
C52   C     C_3   0.003538 0.251787 0.392369 0.261746
C53   C     C_R   0.498391 0.052999 0.468391 -0.037162
C54   C     C_3   0.017441 0.143980 0.385316 -0.194020
C55   C     C_3   0.717140 0.707761 0.680921 0.264706
C56   C     C_3   0.075955 0.242498 0.817747 -0.283562
C57   C     C_3   0.706554 0.754632 0.758826 -0.245778
C58   C     C_2   0.241395 0.913970 0.672923 0.952283
C59   C     C_2   0.948298 0.092844 0.315717 0.928435
C60   C     C_2   0.839813 0.727147 0.806599 0.400475
C61   C     C_2   0.502669 0.892754 0.219682 0.536996
C62   C     C_2   0.482656 0.298991 0.261866 0.873059
C63   C     C_2   0.232177 0.232613 0.858812 0.970816
C64   C     C_2   0.724198 0.065851 0.758314 0.445649
C65   C     C_2   0.957243 0.301166 0.188887 0.563947
C66   C     C_3   0.652465 0.231523 0.743738 0.241564
C67   C     C_3   0.595631 0.127945 0.734171 -0.172984
C68   C     C_R   0.998097 0.460198 0.049940 0.001567
H1    H     H_    0.681788 0.783819 0.352438 0.100057
H2    H     H_    0.599387 0.936393 0.325382 0.026502
H3    H     H_    0.716270 0.832500 0.760084 0.155272
H4    H     H_    0.585655 0.737043 0.779940 0.117616
H5    H     H_    0.476923 0.769782 0.315149 -0.101061
H6    H     H_    0.345421 0.267534 0.350601 -0.025400
H7    H     H_    0.368227 0.088191 0.322138 0.084032
H8    H     H_    0.272793 0.142374 0.250892 0.127786
H9    H     H_    0.481371 0.106878 0.244485 0.181774
H10   H     H_    0.748772 0.894047 0.261486 0.160785
H11   H     H_    0.114205 0.700739 0.143004 0.069619
H12   H     H_    0.126892 0.881598 0.567624 -0.022208
H13   H     H_    0.184720 0.339687 0.750412 0.072936
H14   H     H_    0.984248 0.294890 0.723462 -0.104281
H15   H     H_    0.000390 0.293765 0.850687 -0.018177
H16   H     H_    0.007604 0.173791 0.809550 0.098054
H17   H     H_    0.729014 0.247779 0.793488 -0.010897
H18   H     H_    0.724939 0.242851 0.695935 -0.028486
H19   H     H_    0.563245 0.106481 0.676464 0.155492
H20   H     H_    0.028765 0.662393 0.262917 0.071588
H21   H     H_    0.485773 0.118628 0.766221 0.176219
H22   H     H_    0.678291 0.337176 0.110732 0.185484
H23   H     H_    0.000944 0.861659 0.641382 0.102781
H24   H     H_    0.571051 0.349176 0.991767 0.146992
H25   H     H_    0.828408 0.482580 0.656347 0.071253
H26   H     H_    0.605541 0.392387 0.872587 0.139605
H27   H     H_    0.284896 0.634706 0.796071 0.107182
H28   H     H_    0.495520 0.674139 0.887857 0.121276
H29   H     H_    0.601808 0.669547 0.010180 0.116740
H30   H     H_    0.570379 0.623950 0.129101 0.110308
H31   H     H_    0.220345 0.729523 0.267754 -0.079618
H32   H     H_    0.356175 0.521284 0.343308 0.061105
H33   H     H_    0.334221 0.691961 0.457801 0.064851
H34   H     H_    0.877162 0.271190 0.401594 0.044326
H35   H     H_    0.228875 0.967549 0.407744 0.092026
H36   H     H_    0.972126 0.027717 0.598242 0.090865
H37   H     H_    0.857231 0.300572 0.543983 0.055698
H38   H     H_    0.775802 0.896382 0.568747 0.111299
H39   H     H_    0.416728 0.096169 0.442355 0.085990
H40   H     H_    0.924299 0.753504 0.169465 0.158076
H41   H     H_    0.110027 0.824993 0.175599 0.135928
H42   H     H_    0.299725 0.744544 0.597142 -0.005862
H43   H     H_    0.093734 0.716161 0.565008 0.070690
H44   H     H_    0.312512 0.998318 0.600019 0.274637
H45   H     H_    0.079880 0.282298 0.439669 0.051581
H46   H     H_    0.983563 0.997920 0.228519 0.321683
H47   H     H_    0.965810 0.739440 0.793604 0.060289
H48   H     H_    0.373315 0.890000 0.229724 -0.005828
H49   H     H_    0.588365 0.399100 0.334437 0.287807
H50   H     H_    0.281131 0.372886 0.874793 0.259112
H51   H     H_    0.764644 0.074490 0.814305 0.033924
H52   H     H_    0.061794 0.258684 0.196816 0.008195
H53   H     H_    0.953590 0.116046 0.429687 -0.031291
H54   H     H_    0.147056 0.127125 0.391239 0.035893
H55   H     H_    0.843521 0.712617 0.662647 0.007413
H56   H     H_    0.673756 0.632933 0.676828 0.007514
O1    O     O_2   0.887710 0.436190 0.327560 -0.413996
O2    O     O_2   0.270888 0.171911 0.565504 -0.480866
O3    O     O_3   0.174965 0.203067 0.698165 -0.552319
O4    O     O_3   0.135370 0.443490 0.416520 -0.501299
O5    O     O_3   0.551980 0.615210 0.532020 -0.475482
O6    O     O_2   0.394410 0.269100 0.474240 -0.481214
O7    O     O_3   0.588014 0.225541 0.358380 -0.617319
O8    O     O_2   0.428315 0.462433 0.757187 -0.497688
O9    O     O_3   0.515621 0.288324 0.750217 -0.556994
O10   O     O_3   0.634420 0.609440 0.364670 -0.488371
O11   O     O_2   0.757666 0.542973 0.240012 -0.446253
O12   O     O_3   0.616080 0.757972 0.640014 -0.616239
O13   O     O_3   0.053857 0.285374 0.329267 -0.658377
O14   O     O_3   0.661092 0.716424 0.248225 -0.616841
O15   O     O_2   0.795290 0.730930 0.525800 -0.493004
O16   O     O_3   0.044470 0.660110 0.398750 -0.494334
O17   O     O_2   0.930322 0.829732 0.440242 -0.500246
O18   O     O_2   0.252688 0.897645 0.735178 -0.524217
O19   O     O_R   0.333697 0.988536 0.651829 -0.734329
O20   O     O_2   0.808300 0.105088 0.296979 -0.567586
O21   O     O_R   0.042870 0.028141 0.273993 -0.778504
O22   O     O_2   0.807891 0.694059 0.861701 -0.583358
O23   O     O_3   0.019379 0.803064 0.306796 -0.581116
O24   O     O_2   0.549401 0.905359 0.160163 -0.539101
O25   O     O_2   0.437148 0.278026 0.199210 -0.606542
O26   O     O_R   0.572489 0.382640 0.280625 -0.704642
O27   O     O_2   0.273935 0.154536 0.870283 -0.542005
O28   O     O_R   0.327848 0.311692 0.886410 -0.748607
O29   O     O_2   0.781617 0.004261 0.715969 -0.592884
O30   O     O_2   0.821983 0.270877 0.201025 -0.516671
O31   O     O_2   0.301980 0.563840 0.672490 -0.447449
O32   O     O_3   0.054330 0.556590 0.583490 -0.503633
O33   O     O_3   0.555270 0.390630 0.635330 -0.451388
O34   O     O_3   0.143615 0.714015 0.674985 -0.634290
O35   O     O_3   0.637720 0.384870 0.467990 -0.482551
O36   O     O_3   0.145220 0.339960 0.601250 -0.479836
P1    P     P_3+3 0.061800 0.409390 0.339760 0.988963
P2    P     P_3+3 0.622760 0.718740 0.547830 0.990006
P3    P     P_3+3 0.065521 0.780960 0.394554 0.947549
P4    P     P_3+3 0.127890 0.590690 0.660240 0.969828
P5    P     P_3+3 0.130687 0.219247 0.608782 0.997870
P6    P     P_3+3 0.617054 0.603798 0.271486 0.987656
P7    P     P_3+3 0.575795 0.265858 0.451063 0.938613
P8    P     P_3+3 0.568918 0.400314 0.728480 0.979866

loop_
_geom_bond_atom_site_label_1
_geom_bond_atom_site_label_2
_ccdc_geom_bond_type
O4    P1    S    
O14   P6    S    
C46   C53   A    
C65   H52   S    
O33   P8    S    
C40   H23   S    
C12   H1    S    
C40   H12   S    
C59   O20   D    
Ba2   O36   S    
C2    C68   A    
C5    C6    A    
C43   C44   A    
C50   C51   A    
C28   O34   S    
C10   C11   A    
C24   C25   A    
C35   C36   A    
C27   H28   S    
C62   O26   S    
C54   H54   S    
C52   H34   S    
Ba1   O32   S    
C33   C35   A    
C22   C24   A    
C38   P2    S    
C15   P4    S    
C50   P5    S    
C55   H55   S    
C35   H32   S    
C47   C51   A    
C55   C57   S    
C64   C67   S    
C19   C31   A    
C13   C14   A    
C20   C36   A    
C16   H11   S    
Ba1   Ba2   S    
O9    P8    S    
C21   C65   S    
O7    P7    S    
O17   P3    D    
C60   H47   S    
C7    C11   A    
Ba1   O16   S    
C31   C33   A    
C66   C67   S    
C4    O23   S    
C9    C13   A    
C51   H36   S    
C29   C30   A    
Ba1   P2    S    
C14   C15   A    
C57   C60   S    
O2    P5    D    
Ba2   O6    S    
O34   P4    S    
Ba1   O10   S    
C23   O7    S    
Ba2   P4    S    
O35   P7    S    
C46   C48   A    
Ba1   O35   S    
C60   O22   D    
C19   C20   A    
C53   H39   S    
C39   C41   A    
C18   C68   A    
C67   H19   S    
C1    H10   S    
C56   H16   S    
Ba2   O35   S    
Ba2   O5    S    
C41   P3    S    
C37   H38   S    
C4    C16   S    
C52   C54   S    
O3    P5    S    
C62   O25   D    
C49   C50   A    
C54   H53   S    
C16   H40   S    
C26   C30   A    
O23   P3    S    
C7    C68   A    
Ba1   O4    S    
C40   C58   S    
C55   H56   S    
C3    C5    A    
C61   H48   S    
C6    C7    A    
C18   C26   A    
C42   H35   S    
C39   H33   S    
C13   P8    S    
C28   H42   S    
C65   O30   D    
C23   C62   S    
C30   C32   A    
C38   C44   A    
C41   C42   A    
C61   O24   D    
C63   O28   S    
C56   C63   S    
C32   H30   S    
C52   O13   S    
C8    H26   S    
Ba2   O32   S    
C52   H45   S    
H50   O28   S    
C48   C49   A    
C64   H51   S    
C45   H14   S    
C16   H41   S    
C57   H4    S    
C43   C53   A    
C1    C12   S    
C4    H31   S    
C37   C44   A    
C6    C8    A    
C38   C39   A    
C37   C47   A    
C45   O3    S    
C45   H13   S    
C66   H18   S    
O6    P7    D    
Ba2   O33   S    
C56   H15   S    
Ba2   O4    S    
C42   C43   A    
O32   P4    S    
C33   P6    S    
C63   O27   D    
H49   O26   S    
C2    C21   A    
C5    H24   S    
C57   H3    S    
O15   P2    D    
C36   P1    S    
C14   H25   S    
O1    P1    D    
C54   C59   S    
C66   O9    S    
C28   C40   S    
Ba1   O1    S    
H44   O19   S    
C12   O14   S    
C2    C3    A    
Ba1   O5    S    
C34   H9    S    
O31   P4    D    
H46   O21   S    
C9    C10   A    
C1    C61   S    
O10   P6    S    
C58   O19   S    
C34   H7    S    
C23   H6    S    
C12   H5    S    
O13   P1    S    
C1    H2    S    
C59   O21   S    
C27   C29   A    
C29   H29   S    
C34   H8    S    
C58   O18   D    
O16   P3    S    
C64   O29   D    
O5    P2    S    
Ba2   O31   S    
C46   C47   A    
C10   C17   A    
C15   C17   A    
C31   C32   A    
C55   O12   S    
C17   C22   A    
C48   P7    S    
C22   H27   S    
C3    H22   S    
Ba1   O15   S    
C8    C9    A    
C23   C34   S    
O36   P5    S    
C4    H20   S    
C18   C19   A    
Ba1   P1    S    
C24   C27   A    
C49   H37   S    
O8    P8    D    
C25   C26   A    
C66   H17   S    
C20   C21   A    
C11   C25   A    
O12   P2    S    
C67   H21   S    
O11   P6    D    
C45   C56   S    
C28   H43   S    
