data_mof_unit_3442.cif
_audit_creation_date              2012-12-10T20:53:05-0500
_audit_creation_method            fapswitch 2.2
_symmetry_space_group_name_H-M    P1
_symmetry_Int_Tables_number       1
_space_group_crystal_system       triclinic
_cell_length_a                    18.360461
_cell_length_b                    18.359962
_cell_length_c                    18.360414
_cell_angle_alpha                 59.859972
_cell_angle_beta                  59.861059
_cell_angle_gamma                 59.859477
_cell_volume                      4362.57177558

loop_
_atom_site_label
_atom_site_type_symbol
_atom_type_description
_atom_site_fract_x
_atom_site_fract_y
_atom_site_fract_z
_atom_type_partial_charge
C1    C     C_R   0.389928 0.110079 0.110251 0.483903
C2    C     C_R   0.380815 0.805328 0.779740 -0.093622
C3    C     C_R   0.035533 0.551082 0.909829 -0.026150
C4    C     C_R   0.448950 0.090179 0.964471 -0.026096
C5    C     C_R   0.551043 0.909819 0.035528 -0.026101
C6    C     C_R   0.945936 0.945991 0.553807 0.027770
C7    C     C_R   0.054063 0.054009 0.446193 0.027774
C8    C     C_R   0.945982 0.553802 0.945947 0.027760
C9    C     C_R   0.054015 0.446199 0.054056 0.027762
C10   C     C_R   0.553804 0.945948 0.945979 0.027804
C11   C     C_R   0.446199 0.054053 0.054018 0.027805
C12   C     C_R   0.194692 0.220178 0.619335 -0.093701
C13   C     C_R   0.805304 0.779892 0.380563 -0.093752
C14   C     C_R   0.177683 0.577930 0.284616 -0.063627
C15   C     C_R   0.822322 0.422045 0.715377 -0.063656
C16   C     C_R   0.577683 0.284705 0.177901 -0.063530
C17   C     C_R   0.422307 0.715331 0.822119 -0.063497
C18   C     C_R   0.284688 0.177812 0.577838 -0.063645
C19   C     C_R   0.715305 0.822251 0.422060 -0.063741
C20   C     C_R   0.088049 0.585399 0.314566 0.052999
C21   C     C_R   0.610072 0.889920 0.889750 0.483897
C22   C     C_R   0.911945 0.414600 0.685432 0.052985
C23   C     C_R   0.585353 0.314598 0.088214 0.053054
C24   C     C_R   0.414640 0.685409 0.911813 0.053055
C25   C     C_R   0.314591 0.088164 0.585363 0.053037
C26   C     C_R   0.685414 0.911861 0.414629 0.053000
C27   C     C_R   0.041243 0.634799 0.253818 -0.078966
C28   C     C_R   0.958740 0.365224 0.746186 -0.078953
C29   C     C_R   0.634962 0.253817 0.041429 -0.079043
C30   C     C_R   0.365034 0.746171 0.958624 -0.079056
C31   C     C_R   0.253812 0.041385 0.634828 -0.078970
C32   C     C_R   0.110102 0.110227 0.389927 0.483924
C33   C     C_R   0.746206 0.958611 0.365255 -0.078906
C34   C     C_R   0.083727 0.676300 0.163960 -0.101010
C35   C     C_R   0.916255 0.323725 0.836042 -0.100999
C36   C     C_R   0.676475 0.163989 0.083983 -0.101079
C37   C     C_R   0.323521 0.836008 0.916091 -0.101072
C38   C     C_R   0.163974 0.083906 0.676342 -0.101040
C39   C     C_R   0.836046 0.916096 0.323740 -0.101014
C40   C     C_R   0.173014 0.668591 0.134365 -0.101386
C41   C     C_R   0.826979 0.331408 0.865632 -0.101391
C42   C     C_R   0.668570 0.134452 0.173320 -0.101392
C43   C     C_R   0.889897 0.889773 0.610073 0.483920
C44   C     C_R   0.331424 0.865573 0.826747 -0.101387
C45   C     C_R   0.134429 0.173204 0.668585 -0.101400
C46   C     C_R   0.865581 0.826836 0.331405 -0.101427
C47   C     C_R   0.988040 0.591072 0.464632 -0.157666
C48   C     C_R   0.011951 0.408929 0.535366 -0.157692
C49   C     C_R   0.591060 0.464636 0.988081 -0.157649
C50   C     C_R   0.408939 0.535364 0.011921 -0.157659
C51   C     C_R   0.464643 0.988094 0.591056 -0.157723
C52   C     C_R   0.535358 0.011916 0.408942 -0.157720
C53   C     C_R   0.944484 0.552448 0.555089 0.022303
C54   C     C_R   0.110240 0.389929 0.110089 0.483925
C55   C     C_R   0.055511 0.447552 0.444910 0.022290
C56   C     C_R   0.552455 0.555083 0.944467 0.022298
C57   C     C_R   0.447545 0.444917 0.055535 0.022294
C58   C     C_R   0.555089 0.944488 0.552449 0.022281
C59   C     C_R   0.444912 0.055522 0.447549 0.022278
C60   C     C_R   0.956458 0.460131 0.590937 -0.033552
C61   C     C_R   0.043535 0.539869 0.409062 -0.033546
C62   C     C_R   0.460150 0.590927 0.956400 -0.033501
C63   C     C_R   0.539848 0.409074 0.043606 -0.033501
C64   C     C_R   0.590928 0.956420 0.460146 -0.033554
C65   C     C_R   0.889759 0.610071 0.889912 0.483925
C66   C     C_R   0.409074 0.043594 0.539850 -0.033540
C67   C     C_R   0.110858 0.390426 0.389756 0.503230
C68   C     C_R   0.889141 0.609574 0.610244 0.503245
C69   C     C_R   0.390423 0.389758 0.110868 0.503225
C70   C     C_R   0.609577 0.610241 0.889133 0.503228
C71   C     C_R   0.389756 0.110862 0.390424 0.503208
C72   C     C_R   0.610244 0.889141 0.609575 0.503218
C73   C     C_R   0.180438 0.927299 0.399640 -0.063921
C74   C     C_R   0.819561 0.072702 0.600359 -0.063919
C75   C     C_R   0.927303 0.399706 0.180472 -0.063954
C76   C     C_R   0.220011 0.619409 0.194601 -0.093679
C77   C     C_R   0.072699 0.600283 0.819527 -0.063948
C78   C     C_R   0.399785 0.180494 0.927305 -0.063866
C79   C     C_R   0.600190 0.819501 0.072698 -0.063869
C80   C     C_R   0.215370 0.838721 0.403416 0.264608
C81   C     C_R   0.784629 0.161280 0.596583 0.264612
C82   C     C_R   0.838718 0.403510 0.215432 0.264579
C83   C     C_R   0.161285 0.596476 0.784567 0.264585
C84   C     C_R   0.403650 0.215461 0.838715 0.264627
C85   C     C_R   0.596331 0.784530 0.161283 0.264630
C86   C     C_R   0.161639 0.785238 0.456800 -0.038665
C87   C     C_R   0.779993 0.380565 0.805391 -0.093696
C88   C     C_R   0.838361 0.214761 0.543201 -0.038664
C89   C     C_R   0.785223 0.456887 0.161708 -0.038591
C90   C     C_R   0.214777 0.543104 0.838292 -0.038597
C91   C     C_R   0.457018 0.161733 0.785229 -0.038606
C92   C     C_R   0.542981 0.838268 0.214759 -0.038626
C93   C     C_R   0.072957 0.819981 0.506565 -0.113259
C94   C     C_R   0.927043 0.180018 0.493437 -0.113252
C95   C     C_R   0.819965 0.506617 0.073007 -0.113284
C96   C     C_R   0.180034 0.493380 0.926992 -0.113285
C97   C     C_R   0.506696 0.073024 0.819976 -0.113310
C98   C     C_R   0.619177 0.194716 0.220300 -0.093631
C99   C     C_R   0.493314 0.926982 0.180015 -0.113329
C100  C     C_R   0.035655 0.910043 0.503103 0.004985
C101  C     C_R   0.964344 0.089958 0.496897 0.004991
C102  C     C_R   0.910032 0.503132 0.035682 0.004918
C103  C     C_R   0.089966 0.496868 0.964319 0.004926
C104  C     C_R   0.503169 0.035690 0.910037 0.004954
C105  C     C_R   0.496834 0.964312 0.089959 0.004957
C106  C     C_R   0.090155 0.964467 0.448881 -0.026135
C107  C     C_R   0.909844 0.035534 0.551118 -0.026135
C108  C     C_R   0.964466 0.448916 0.090173 -0.026154
Cl1   Cl    Cl    0.327266 0.794520 0.341392 -0.575406
Cl2   Cl    Cl    0.672732 0.205480 0.658607 -0.575434
Cl3   Cl    Cl    0.794534 0.341521 0.327354 -0.575363
Cl4   Cl    Cl    0.205478 0.658447 0.672637 -0.575344
Cl5   Cl    Cl    0.341734 0.327404 0.794514 -0.575422
Cl6   Cl    Cl    0.658198 0.672566 0.205505 -0.575400
H1    H     H_    0.811300 0.283741 0.539633 0.168710
H2    H     H_    0.338592 0.562974 0.019688 0.140936
H3    H     H_    0.437037 0.980330 0.661402 0.140964
H4    H     H_    0.562964 0.019678 0.338597 0.140972
H5    H     H_    0.225011 0.966038 0.358274 0.144129
H6    H     H_    0.774987 0.033963 0.641724 0.144123
H7    H     H_    0.966053 0.358346 0.225038 0.144139
H8    H     H_    0.033951 0.641640 0.774960 0.144133
H9    H     H_    0.358432 0.225075 0.966045 0.144117
H10   H     H_    0.641527 0.774926 0.033958 0.144098
H11   H     H_    0.034449 0.775198 0.548060 0.132064
H12   H     H_    0.188700 0.716257 0.460370 0.168721
H13   H     H_    0.965551 0.224800 0.451943 0.132061
H14   H     H_    0.775178 0.548107 0.034503 0.132071
H15   H     H_    0.224817 0.451897 0.965498 0.132066
H16   H     H_    0.548187 0.034526 0.775192 0.131988
H17   H     H_    0.451836 0.965484 0.224797 0.131991
H18   H     H_    0.205681 0.700543 0.064708 0.109466
H19   H     H_    0.794310 0.299455 0.935288 0.109462
H20   H     H_    0.700534 0.064817 0.206039 0.109492
H21   H     H_    0.299461 0.935215 0.794044 0.109482
H22   H     H_    0.064788 0.205898 0.700553 0.109506
H23   H     H_    0.283764 0.539512 0.811210 0.168850
H24   H     H_    0.935224 0.794146 0.299436 0.109508
H25   H     H_    0.289284 0.613110 0.171532 0.111958
H26   H     H_    0.710728 0.386844 0.828455 0.111974
H27   H     H_    0.612732 0.171690 0.289610 0.112004
H28   H     H_    0.387259 0.828376 0.710424 0.111974
H29   H     H_    0.171658 0.289459 0.613002 0.111969
H30   H     H_    0.828329 0.710639 0.386823 0.111977
H31   H     H_    0.214670 0.539564 0.330752 0.108816
H32   H     H_    0.785343 0.460391 0.669237 0.108838
H33   H     H_    0.539160 0.330865 0.214872 0.108756
H34   H     H_    0.716237 0.460476 0.188788 0.168862
H35   H     H_    0.460831 0.669186 0.785126 0.108750
H36   H     H_    0.330848 0.214779 0.539425 0.108791
H37   H     H_    0.669135 0.785308 0.460401 0.108840
H38   H     H_    0.972303 0.640424 0.275936 0.109453
H39   H     H_    0.027673 0.359616 0.724071 0.109482
H40   H     H_    0.640744 0.275887 0.972448 0.109459
H41   H     H_    0.359255 0.724080 0.027610 0.109460
H42   H     H_    0.275893 0.972433 0.640500 0.109490
H43   H     H_    0.724132 0.027535 0.359654 0.109525
H44   H     H_    0.047538 0.714161 0.117207 0.118429
H45   H     H_    0.539347 0.811182 0.283740 0.168820
H46   H     H_    0.952436 0.285884 0.882799 0.118439
H47   H     H_    0.714501 0.117212 0.047807 0.118417
H48   H     H_    0.285496 0.882770 0.952289 0.118424
H49   H     H_    0.117199 0.047735 0.714257 0.118422
H50   H     H_    0.882832 0.952244 0.285897 0.118435
H51   H     H_    0.460649 0.188821 0.716246 0.168820
H52   H     H_    0.980241 0.661430 0.437017 0.140972
H53   H     H_    0.019747 0.338572 0.562981 0.140970
H54   H     H_    0.661407 0.437027 0.980316 0.140938
O1    O     O_3   0.250000 0.250000 0.250000 -0.446594
O2    O     O_R   0.865800 0.694910 0.573470 -0.549973
O3    O     O_R   0.305090 0.426530 0.134200 -0.549996
O4    O     O_R   0.694910 0.573470 0.865800 -0.549991
O5    O     O_R   0.426530 0.134200 0.305090 -0.549998
O6    O     O_R   0.573470 0.865800 0.694910 -0.549999
O7    O     O_R   0.134190 0.426530 0.134200 -0.543965
O8    O     O_R   0.865810 0.573470 0.865800 -0.543966
O9    O     O_R   0.426530 0.134200 0.134190 -0.543925
O10   O     O_R   0.573470 0.865800 0.865810 -0.543918
O11   O     O_R   0.134200 0.134190 0.426530 -0.543966
O12   O     O_3   0.750000 0.750000 0.750000 -0.446595
O13   O     O_R   0.865800 0.865810 0.573470 -0.543982
O14   O     O_R   0.426530 0.305080 0.134210 -0.528615
O15   O     O_R   0.573470 0.694920 0.865790 -0.528614
O16   O     O_R   0.305080 0.134210 0.426530 -0.528627
O17   O     O_R   0.694920 0.865790 0.573470 -0.528627
O18   O     O_R   0.134210 0.426530 0.305080 -0.528637
O19   O     O_R   0.865790 0.573470 0.694920 -0.528638
O20   O     O_R   0.305080 0.134200 0.134200 -0.536464
O21   O     O_R   0.694920 0.865800 0.865800 -0.536464
O22   O     O_R   0.134200 0.134200 0.305080 -0.536478
O23   O     O_R   0.865800 0.865800 0.694920 -0.536475
O24   O     O_R   0.134200 0.305080 0.134200 -0.536458
O25   O     O_R   0.865800 0.694920 0.865800 -0.536459
O26   O     O_R   0.134200 0.305090 0.426530 -0.549985
Zn1   Zn    Zn3+2 0.206620 0.206630 0.380140 0.935793
Zn2   Zn    Zn3+2 0.793380 0.793370 0.619860 0.935790
Zn3   Zn    Zn3+2 0.206630 0.380140 0.206620 0.935797
Zn4   Zn    Zn3+2 0.793370 0.619860 0.793380 0.935805
Zn5   Zn    Zn3+2 0.380140 0.206620 0.206630 0.935828
Zn6   Zn    Zn3+2 0.619860 0.793380 0.793370 0.935835
Zn7   Zn    Zn3+2 0.206620 0.206620 0.206620 0.946473
Zn8   Zn    Zn3+2 0.793380 0.793380 0.793380 0.946470

loop_
_geom_bond_atom_site_label_1
_geom_bond_atom_site_label_2
_ccdc_geom_bond_type
C25   C31   A    
C89   H34   S    
C101  C107  A    
C27   H38   S    
C73   H5    S    
C86   H12   S    
C36   C42   A    
C1    C11   S    
C75   C82   A    
C87   H26   S    
C58   C72   S    
C41   H19   S    
C31   H42   S    
O1    Zn1   S    
O11   Zn1   S    
C94   H13   S    
C9    C108  A    
C29   H40   S    
C29   C36   A    
C33   C39   A    
C82   C89   A    
C54   O24   A    
C92   H45   S    
C34   C40   A    
C23   C29   A    
O1    Zn3   S    
C85   Cl6   S    
C86   C93   A    
C97   H16   S    
O12   Zn8   S    
C42   C98   A    
C59   C66   A    
C22   C60   S    
C13   C46   A    
C1    O20   A    
O5    Zn5   S    
C77   C83   A    
C4    C104  A    
O20   Zn7   S    
C69   O3    A    
C13   H30   S    
C20   C61   S    
C19   C26   A    
C53   C68   S    
C70   O4    A    
C35   H46   S    
O7    Zn3   S    
C38   C45   A    
C80   C86   A    
C77   H8    S    
C74   C107  A    
C25   C66   S    
C68   O2    A    
C95   H14   S    
C85   C92   A    
C15   C22   A    
C94   C101  A    
C2    C44   A    
C80   Cl1   S    
C11   C105  A    
C19   H37   S    
O24   Zn7   S    
O18   Zn3   S    
O4    Zn4   S    
O23   Zn8   S    
C72   O6    A    
C5    C79   A    
C67   O26   A    
C26   C64   S    
O12   Zn2   S    
C95   C102  A    
C9    C103  A    
C69   O14   A    
O1    Zn5   S    
C44   H21   S    
C23   C63   S    
O26   Zn1   S    
C40   H18   S    
C48   C55   A    
C43   O23   A    
C8    C65   S    
C27   C34   A    
C22   C28   A    
C71   O5    A    
C2    C17   A    
C18   C25   A    
C1    O9    A    
C12   H29   S    
C99   C105  A    
C53   C60   A    
C33   H43   S    
C48   C60   A    
C65   O25   A    
C49   C63   A    
C10   C21   S    
C58   C64   A    
C41   C87   A    
C88   C94   A    
C17   C24   A    
C13   C19   A    
O19   Zn4   S    
C97   C104  A    
C14   C20   A    
C28   C35   A    
C49   H54   S    
C3    C8    A    
C52   C64   A    
C47   H52   S    
C5    C105  A    
C43   O13   A    
O16   Zn1   S    
O25   Zn8   S    
C40   C76   A    
C30   C37   A    
C51   C66   A    
C14   C76   A    
C54   O7    A    
C89   C95   A    
C4    C78   A    
O12   Zn6   S    
C52   C59   A    
C26   C33   A    
C21   O21   A    
C14   H31   S    
C6    C107  A    
C7    C106  A    
C32   O22   A    
C32   O11   A    
C51   C58   A    
C91   C97   A    
C4    C11   A    
C102  C108  A    
C78   H9    S    
C93   C100  A    
C39   C46   A    
C21   O10   A    
C34   H44   S    
C30   H41   S    
C84   C91   A    
C93   H11   S    
C16   C23   A    
C56   C70   S    
C6    C43   S    
C16   H33   S    
C98   H27   S    
O9    Zn5   S    
C28   H39   S    
C2    H28   S    
C56   C62   A    
C74   C81   A    
C3    C77   A    
C79   C85   A    
C90   H23   S    
C15   C87   A    
C76   H25   S    
C3    C103  A    
C83   C90   A    
O10   Zn6   S    
C38   H49   S    
C45   H22   S    
C24   C62   S    
C7    C32   S    
C75   H7    S    
C50   C57   A    
C100  C106  A    
C71   O16   A    
C91   H51   S    
C17   H35   S    
O14   Zn5   S    
C57   C63   A    
O8    Zn4   S    
C12   C45   A    
C47   C61   A    
C15   H32   S    
C55   C67   S    
C67   O18   A    
O22   Zn7   S    
C90   C96   A    
C20   C27   A    
C99   H17   S    
O21   Zn8   S    
O13   Zn2   S    
C49   C56   A    
C74   H6    S    
C79   H10   S    
O6    Zn6   S    
O15   Zn6   S    
C31   C38   A    
C46   H24   S    
C42   H20   S    
C82   Cl3   S    
C37   C44   A    
C10   C104  A    
C5    C10   A    
C65   O8    A    
C84   Cl5   S    
O2    Zn2   S    
C16   C98   A    
C73   C106  A    
C36   H47   S    
C48   H53   S    
C88   H1    S    
C50   C62   A    
C47   C53   A    
C55   C61   A    
C51   H3    S    
C73   C80   A    
C6    C100  A    
C50   H2    S    
C35   C41   A    
C24   C30   A    
C72   O17   A    
C81   C88   A    
O12   Zn4   S    
O1    Zn7   S    
C68   O19   A    
C78   C84   A    
C70   O15   A    
C75   C108  A    
C81   Cl2   S    
O3    Zn3   S    
C7    C101  A    
C96   C103  A    
C12   C18   A    
C83   Cl4   S    
C37   H48   S    
C9    C54   S    
O17   Zn2   S    
C57   C69   S    
C39   H50   S    
C18   H36   S    
C8    C102  A    
C92   C99   A    
C59   C71   S    
C96   H15   S    
C52   H4    S    
