data_mof_unit_1069.cif
_audit_creation_date              2012-12-10T20:31:50-0500
_audit_creation_method            fapswitch 2.2
_symmetry_space_group_name_H-M    P1
_symmetry_Int_Tables_number       1
_space_group_crystal_system       triclinic
_cell_length_a                    21.264718
_cell_length_b                    21.446875
_cell_length_c                    21.596627
_cell_angle_alpha                 91.353445
_cell_angle_beta                  119.311179
_cell_angle_gamma                 119.155179
_cell_volume                      7041.95727946

loop_
_atom_site_label
_atom_site_type_symbol
_atom_type_description
_atom_site_fract_x
_atom_site_fract_y
_atom_site_fract_z
_atom_type_partial_charge
C1    C     C_R   0.500126 0.413251 0.413139 0.893484
C2    C     C_R   0.240149 0.750012 0.929499 -0.138856
C3    C     C_R   0.641275 0.349213 0.908192 -0.201733
C4    C     C_R   0.619840 0.401913 0.896498 -0.132437
C5    C     C_R   0.674692 0.473179 0.952330 -0.099879
C6    C     C_R   0.675387 0.242758 0.988251 -0.232171
C7    C     C_R   0.687365 0.184703 0.999708 -0.077278
C8    C     C_R   0.762849 0.191870 0.013322 0.006785
C9    C     C_R   0.755313 0.737891 0.806509 -0.323886
C10   C     C_R   0.824226 0.257455 0.012520 -0.235718
C11   C     C_R   0.811680 0.315236 0.999802 -0.093076
C12   C     C_R   0.737471 0.309217 0.989281 -0.015244
C13   C     C_R   0.177609 0.687404 0.932465 0.564789
C14   C     C_R   0.854199 0.147906 0.093992 -0.142780
C15   C     C_R   0.871063 0.092331 0.105560 -0.148558
C16   C     C_R   0.813168 0.020704 0.049455 -0.114501
C17   C     C_R   0.738335 0.004562 0.981697 -0.091929
C18   C     C_R   0.720974 0.059894 0.970039 -0.105052
C19   C     C_R   0.778671 0.131874 0.026300 0.125403
C20   C     C_R   0.240638 0.779487 0.231075 0.595538
C21   C     C_R   0.256866 0.146200 0.202858 0.114981
C22   C     C_R   0.247373 0.123775 0.259999 -0.154830
C23   C     C_R   0.168007 0.095137 0.252028 -0.129893
C24   C     C_R   0.187243 0.687228 0.001469 -0.230485
C25   C     C_R   0.097674 0.088385 0.186944 -0.108576
C26   C     C_R   0.106557 0.110188 0.129674 -0.125128
C27   C     C_R   0.185810 0.138819 0.137407 -0.160016
C28   C     C_R   0.257910 0.504223 0.118211 0.155824
C29   C     C_R   0.284308 0.572825 0.103792 -0.170406
C30   C     C_R   0.289412 0.579073 0.041894 -0.102119
C31   C     C_R   0.268049 0.516644 0.993933 -0.075245
C32   C     C_R   0.241481 0.447950 0.007829 -0.152230
C33   C     C_R   0.236210 0.441583 0.069686 -0.101735
C34   C     C_R   0.138130 0.626570 0.400863 0.103977
C35   C     C_R   0.818269 0.566426 0.814977 -0.220617
C36   C     C_R   0.193151 0.630163 0.474181 -0.177728
C37   C     C_R   0.228649 0.687737 0.537268 -0.149034
C38   C     C_R   0.210068 0.742359 0.527524 -0.137767
C39   C     C_R   0.156245 0.739656 0.454748 -0.118757
C40   C     C_R   0.120438 0.682078 0.391550 -0.089619
C41   C     C_R   0.945458 0.515664 0.293191 0.090730
C42   C     C_R   0.944040 0.503850 0.356321 -0.086349
C43   C     C_R   0.888917 0.511634 0.368337 -0.037596
C44   C     C_R   0.834443 0.530570 0.317148 -0.075060
C45   C     C_R   0.835460 0.542248 0.254167 -0.119235
C46   C     C_R   0.259244 0.750698 0.068534 -0.040857
C47   C     C_R   0.891163 0.535289 0.242431 -0.172154
C48   C     C_R   0.463939 0.531632 0.698860 0.127394
C49   C     C_R   0.522683 0.510788 0.719252 -0.103901
C50   C     C_R   0.496484 0.436935 0.718537 -0.122944
C51   C     C_R   0.411649 0.383455 0.698413 -0.134522
C52   C     C_R   0.352669 0.403665 0.678224 -0.132486
C53   C     C_R   0.378422 0.477336 0.677999 -0.146493
C54   C     C_R   0.335631 0.797464 0.368374 0.150689
C55   C     C_R   0.337956 0.856729 0.401132 -0.101718
C56   C     C_R   0.360938 0.871823 0.475104 -0.177774
C57   C     C_R   0.161340 0.750623 0.797928 -0.054496
C58   C     C_R   0.381541 0.827929 0.516908 -0.014164
C59   C     C_R   0.379555 0.769027 0.484998 -0.046909
C60   C     C_R   0.357798 0.754395 0.411458 -0.185642
C61   C     C_R   0.734419 0.341711 0.636643 0.113442
C62   C     C_R   0.668124 0.304393 0.558735 -0.160204
C63   C     C_R   0.684085 0.332130 0.506538 -0.119709
C64   C     C_R   0.765545 0.398137 0.531632 -0.117324
C65   C     C_R   0.831352 0.436291 0.609035 -0.135673
C66   C     C_R   0.816125 0.408098 0.661457 -0.127577
C67   C     C_R   0.687400 0.186244 0.632699 0.160832
C68   C     C_R   0.148972 0.746108 0.727730 -0.157767
C69   C     C_R   0.758595 0.208979 0.627975 -0.118597
C70   C     C_R   0.749118 0.162045 0.573431 -0.126507
C71   C     C_R   0.668867 0.092008 0.523637 -0.087143
C72   C     C_R   0.597929 0.068720 0.528322 -0.123475
C73   C     C_R   0.607044 0.115557 0.582638 -0.093859
C74   C     C_R   0.203767 0.738446 0.715149 -0.119528
C75   C     C_R   0.271202 0.735556 0.772792 -0.113356
C76   C     C_R   0.284225 0.740626 0.843310 -0.137938
C77   C     C_R   0.776811 0.779462 0.762946 0.632566
C78   C     C_R   0.229269 0.748150 0.856208 0.189641
C79   C     C_R   0.811159 0.498074 0.814113 -0.096623
C80   C     C_R   0.741748 0.431179 0.750113 0.034721
C81   C     C_R   0.679906 0.434778 0.687739 -0.233533
C82   C     C_R   0.687924 0.503375 0.688059 -0.094413
C83   C     C_R   0.757659 0.570342 0.751875 0.056332
C84   C     C_R   0.719093 0.310636 0.692294 -0.087096
C85   C     C_R   0.696650 0.235902 0.690021 -0.132412
C86   C     C_R   0.683452 0.207921 0.743803 0.647130
C87   C     C_R   0.620622 0.502018 0.621622 0.874478
C88   C     C_R   0.222347 0.767981 0.158588 -0.182502
C89   C     C_R   0.693205 0.253062 0.799535 -0.233648
C90   C     C_R   0.715491 0.326255 0.802249 -0.265969
C91   C     C_R   0.727492 0.355648 0.748849 0.080954
C92   C     C_R   0.419900 0.110675 0.123654 -0.237264
C93   C     C_R   0.498672 0.134422 0.132838 -0.079645
C94   C     C_R   0.576564 0.204319 0.185462 -0.199354
C95   C     C_R   0.576315 0.252159 0.229804 -0.012199
C96   C     C_R   0.497322 0.227504 0.222659 -0.019371
C97   C     C_R   0.418970 0.156405 0.169430 0.135949
C98   C     C_R   0.653264 0.323932 0.280948 0.617321
C99   C     C_R   0.273305 0.755941 0.143319 0.063473
C100  C     C_R   0.502147 0.586681 0.589186 0.871121
C101  C     C_R   0.652084 0.371085 0.325049 -0.345901
C102  C     C_R   0.574949 0.346120 0.320129 0.017229
C103  C     C_R   0.496942 0.273729 0.269007 0.035240
C104  C     C_R   0.418956 0.247633 0.264491 0.073433
C105  C     C_R   0.340552 0.176182 0.210827 -0.012508
C106  C     C_R   0.341253 0.131758 0.163100 -0.260011
C107  C     C_R   0.575151 0.391937 0.366745 -0.223314
C108  C     C_R   0.499212 0.365558 0.363980 -0.057916
C109  C     C_R   0.421597 0.294442 0.313109 -0.282130
C110  C     C_R   0.345625 0.759385 0.202539 -0.219625
C111  C     C_R   0.525084 0.565163 0.260559 -0.133722
C112  C     C_R   0.379911 0.497809 0.378357 0.887331
C113  C     C_R   0.461347 0.565459 0.264183 -0.086974
C114  C     C_R   0.385994 0.496740 0.247047 0.122873
C115  C     C_R   0.374739 0.427815 0.225769 -0.191376
C116  C     C_R   0.437713 0.427707 0.220612 -0.112956
C117  C     C_R   0.513200 0.496313 0.238658 -0.096856
C118  C     C_R   0.252097 0.498001 0.183995 -0.057858
C119  C     C_R   0.186154 0.497941 0.185842 -0.125164
C120  C     C_R   0.184803 0.496429 0.250832 0.004523
C121  C     C_R   0.364436 0.771209 0.275079 -0.267979
C122  C     C_R   0.248253 0.493688 0.312050 -0.260393
C123  C     C_R   0.313409 0.495077 0.310805 -0.080592
C124  C     C_R   0.795918 0.754623 0.718135 0.585889
C125  C     C_R   0.316363 0.496671 0.247417 -0.058338
C126  C     C_R   0.155333 0.558561 0.322356 -0.208625
C127  C     C_R   0.099121 0.564620 0.334193 0.016277
C128  C     C_R   0.007168 0.511771 0.282475 0.018304
C129  C     C_R   0.973899 0.453385 0.220853 -0.177046
C130  C     C_R   0.030868 0.447708 0.209996 -0.113205
C131  C     C_R   0.122083 0.501303 0.259846 0.125274
C132  C     C_R   0.312568 0.781849 0.290327 -0.031145
C133  C     C_R   0.496516 0.801304 0.882879 -0.230766
C134  C     C_R   0.502232 0.866011 0.867847 -0.086729
C135  C     C_R   0.514386 0.887529 0.812175 -0.239809
C136  C     C_R   0.791570 0.687295 0.715576 -0.290940
C137  C     C_R   0.522704 0.844472 0.771543 0.047885
C138  C     C_R   0.511838 0.776346 0.783227 -0.014410
C139  C     C_R   0.498330 0.754612 0.839105 -0.002142
C140  C     C_R   0.542577 0.868780 0.720202 -0.314303
C141  C     C_R   0.549042 0.824660 0.678543 0.632110
C142  C     C_R   0.531705 0.754072 0.685615 -0.002599
C143  C     C_R   0.322218 0.811943 0.065306 -0.236801
C144  C     C_R   0.513641 0.729779 0.738557 -0.033246
C145  C     C_R   0.496371 0.658851 0.746369 0.009813
C146  C     C_R   0.485436 0.639278 0.803922 -0.318800
C147  C     C_R   0.486870 0.686852 0.850088 0.605316
C148  C     C_R   0.766079 0.643437 0.756523 0.020470
C149  C     C_R   0.530619 0.706905 0.639683 -0.202794
C150  C     C_R   0.507801 0.634622 0.643017 -0.149450
C151  C     C_R   0.490430 0.609453 0.696456 -0.023380
C152  C     C_R   0.877236 0.380213 0.997814 0.858789
C153  C     C_R   0.878646 0.498975 0.880032 0.889527
C154  C     C_R   0.312924 0.811859 0.996925 -0.164006
C155  C     C_R   0.121685 0.620337 0.001661 0.945287
C156  C     C_R   0.119810 0.499264 0.120075 0.857162
C157  C     C_R   0.379589 0.878406 0.998089 0.903475
C158  C     C_R   0.499406 0.086421 0.086316 0.885927
C159  C     C_R   0.620498 0.118597 0.999015 0.865606
C160  C     C_R   0.751360 0.670807 0.804296 -0.304146
C161  C     C_R   0.500402 0.913396 0.913743 0.873927
C162  C     C_R   0.749973 0.491061 0.020706 -0.144805
C163  C     C_R   0.771004 0.438048 0.032822 -0.070748
C164  C     C_R   0.718766 0.367734 0.975613 0.100811
F1    F     F_    0.779948 0.844210 0.764798 -0.612045
F2    F     F_    0.662963 0.137150 0.743342 -0.674405
F3    F     F_    0.729370 0.348324 0.288130 -0.684527
F4    F     F_    0.818388 0.795603 0.676895 -0.630126
F5    F     F_    0.570340 0.850246 0.630184 -0.649368
F6    F     F_    0.475185 0.665717 0.904429 -0.682192
F7    F     F_    0.187655 0.787717 0.242997 -0.696849
F8    F     F_    0.106869 0.626779 0.867878 -0.671054
H1    H     H_    0.682990 0.230948 0.840664 0.177845
H2    H     H_    0.583315 0.618248 0.274098 0.129690
H3    H     H_    0.470369 0.618964 0.280019 0.122281
H4    H     H_    0.316541 0.374328 0.211795 0.127287
H5    H     H_    0.428105 0.374446 0.202729 0.147685
H6    H     H_    0.248515 0.492642 0.362435 0.149968
H7    H     H_    0.225668 0.598870 0.362148 0.134777
H8    H     H_    0.807061 0.668860 0.681079 0.189621
H9    H     H_    0.903708 0.411238 0.181949 0.149681
H10   H     H_    0.003958 0.401495 0.162950 0.111884
H11   H     H_    0.488197 0.786627 0.927286 0.193702
H12   H     H_    0.722856 0.360493 0.845812 0.157361
H13   H     H_    0.520677 0.939129 0.802755 0.152708
H14   H     H_    0.553406 0.922031 0.712513 0.199105
H15   H     H_    0.543647 0.725036 0.598389 0.217866
H16   H     H_    0.475942 0.587222 0.814037 0.187017
H17   H     H_    0.735168 0.639400 0.838720 0.179282
H18   H     H_    0.658038 0.513974 0.943127 0.132502
H19   H     H_    0.791338 0.545586 0.064707 0.121185
H20   H     H_    0.827335 0.451398 0.087000 0.132066
H21   H     H_    0.597654 0.293953 0.864536 0.140284
H22   H     H_    0.560141 0.387050 0.844508 0.132902
H23   H     H_    0.360167 0.055922 0.082168 0.142168
H24   H     H_    0.617644 0.236659 0.979699 0.163609
H25   H     H_    0.882131 0.263463 0.021633 0.156751
H26   H     H_    0.899835 0.203366 0.137737 0.127790
H27   H     H_    0.929188 0.104916 0.157909 0.127240
H28   H     H_    0.741512 0.757507 0.841896 0.196045
H29   H     H_    0.826516 0.977845 0.058341 0.132295
H30   H     H_    0.694210 0.949303 0.938124 0.153916
H31   H     H_    0.663439 0.047207 0.917034 0.114483
H32   H     H_    0.168766 0.769106 0.114362 0.169379
H33   H     H_    0.388625 0.754423 0.192821 0.155222
H34   H     H_    0.636488 0.221570 0.190430 0.193717
H35   H     H_    0.421207 0.774303 0.319868 0.171626
H36   H     H_    0.378129 0.861036 0.116348 0.172868
H37   H     H_    0.872206 0.617309 0.864661 0.167248
H38   H     H_    0.118040 0.755896 0.806902 0.133046
H39   H     H_    0.096561 0.748053 0.682930 0.135330
H40   H     H_    0.193583 0.734234 0.660598 0.127442
H41   H     H_    0.312853 0.728828 0.762504 0.141234
H42   H     H_    0.336018 0.737548 0.887433 0.121179
H43   H     H_    0.624668 0.383616 0.638641 0.156699
H44   H     H_    0.301405 0.128616 0.310564 0.132648
H45   H     H_    0.711857 0.426627 0.364012 0.154001
H46   H     H_    0.160988 0.078092 0.296260 0.130791
H47   H     H_    0.036259 0.066108 0.180818 0.118965
H48   H     H_    0.052009 0.104853 0.079288 0.144548
H49   H     H_    0.192044 0.155618 0.092735 0.136014
H50   H     H_    0.300196 0.620900 0.140343 0.119684
H51   H     H_    0.309621 0.632176 0.030994 0.136614
H52   H     H_    0.271889 0.521440 0.945938 0.147466
H53   H     H_    0.224723 0.399573 0.970542 0.135632
H54   H     H_    0.214810 0.387943 0.079559 0.120088
H55   H     H_    0.207877 0.588069 0.482409 0.126837
H56   H     H_    0.634919 0.447379 0.406482 0.157114
H57   H     H_    0.270971 0.690303 0.593678 0.130971
H58   H     H_    0.238284 0.787365 0.576318 0.122384
H59   H     H_    0.142549 0.782373 0.447306 0.131369
H60   H     H_    0.079155 0.680807 0.335456 0.145200
H61   H     H_    0.986159 0.489373 0.396442 0.123294
H62   H     H_    0.888217 0.502766 0.417191 0.118394
H63   H     H_    0.791725 0.536509 0.326425 0.109091
H64   H     H_    0.793887 0.557607 0.214934 0.128918
H65   H     H_    0.893962 0.547392 0.195204 0.119546
H66   H     H_    0.587558 0.550927 0.733279 0.115432
H67   H     H_    0.363124 0.277143 0.310645 0.170857
H68   H     H_    0.541774 0.421075 0.732834 0.133548
H69   H     H_    0.391456 0.326267 0.697999 0.124582
H70   H     H_    0.286802 0.362098 0.662246 0.133652
H71   H     H_    0.331836 0.492098 0.661364 0.130247
H72   H     H_    0.323508 0.892159 0.370047 0.160633
H73   H     H_    0.362758 0.917568 0.500026 0.131288
H74   H     H_    0.398377 0.839249 0.573841 0.122644
H75   H     H_    0.394682 0.734524 0.517148 0.128641
H76   H     H_    0.357331 0.708929 0.387871 0.128044
H77   H     H_    0.604496 0.253479 0.538491 0.128029
H78   H     H_    0.281258 0.077006 0.121941 0.158320
H79   H     H_    0.633334 0.302029 0.446695 0.152075
H80   H     H_    0.777968 0.419629 0.491257 0.129599
H81   H     H_    0.894454 0.487342 0.628409 0.151023
H82   H     H_    0.868183 0.437500 0.721258 0.169310
H83   H     H_    0.821273 0.262901 0.666496 0.133453
H84   H     H_    0.804057 0.179919 0.569849 0.138738
H85   H     H_    0.661688 0.055741 0.481496 0.137340
H86   H     H_    0.535834 0.014434 0.489791 0.141554
H87   H     H_    0.551364 0.097062 0.585324 0.135199
H88   H     H_    0.562260 0.496069 0.235355 0.127702
O1    O     O_R   0.551770 0.485660 0.433950 -0.617900
O2    O     O_R   0.356610 0.908380 0.948360 -0.618910
O3    O     O_R   0.551760 0.066040 0.117810 -0.619052
O4    O     O_R   0.448310 0.382210 0.433960 -0.632473
O5    O     O_R   0.448290 0.066080 0.014430 -0.617947
O6    O     O_R   0.643290 0.091520 0.051640 -0.611347
O7    O     O_R   0.539830 0.091560 0.948260 -0.627594
O8    O     O_R   0.551610 0.933820 0.985570 -0.618607
O9    O     O_R   0.448150 0.933870 0.882190 -0.617411
O10   O     O_R   0.643350 0.551720 0.591610 -0.620907
O11   O     O_R   0.539890 0.448280 0.591620 -0.626412
O12   O     O_R   0.908390 0.371060 0.962700 -0.612191
O13   O     O_R   0.551690 0.617790 0.566040 -0.612292
O14   O     O_R   0.448230 0.514340 0.566050 -0.610158
O15   O     O_R   0.460110 0.551720 0.408380 -0.616785
O16   O     O_R   0.356650 0.448280 0.408390 -0.627062
O17   O     O_R   0.908320 0.445630 0.037270 -0.636618
O18   O     O_R   0.908320 0.537260 0.945670 -0.625699
O19   O     O_R   0.908390 0.462700 0.871100 -0.610417
O20   O     O_R   0.091570 0.628900 0.037300 -0.637234
O21   O     O_R   0.091640 0.554330 0.962730 -0.563166
O22   O     O_R   0.091560 0.537260 0.128900 -0.607499
O23   O     O_R   0.091630 0.462690 0.054330 -0.619698
O24   O     O_R   0.460070 0.908340 0.051740 -0.626268
Zn1   Zn    Zn3+2 0.569080 0.569070 0.500000 1.002329
Zn2   Zn    Zn3+2 0.430920 0.430930 0.500000 0.959276
Zn3   Zn    Zn3+2 0.999930 0.549770 0.049790 0.977790
Zn4   Zn    Zn3+2 0.000030 0.450190 0.950210 1.003995
Zn5   Zn    Zn3+2 0.569030 0.999920 0.069030 0.974145
Zn6   Zn    Zn3+2 0.430870 0.999980 0.930970 0.964955

loop_
_geom_bond_atom_site_label_1
_geom_bond_atom_site_label_2
_ccdc_geom_bond_type
C63   H79   S    
C46   C99   S    
C72   H86   S    
C119  C156  S    
C133  C134  A    
C22   H44   S    
C120  C131  S    
O13   Zn1   S    
C41   C42   A    
C68   C74   A    
C95   C96   A    
C86   F2    S    
C45   H64   S    
C89   H1    S    
C55   C56   A    
C92   H23   S    
C128  C129  A    
C6    H24   S    
C114  C115  A    
C95   C98   A    
C149  C150  A    
C7    C8    A    
C38   H58   S    
C54   C60   A    
C85   C86   A    
C116  C117  A    
C159  O6    A    
C4    H22   S    
C14   H26   S    
C139  C147  A    
C26   C27   A    
C126  C127  A    
O2    Zn6   S    
C101  H45   S    
C34   C40   A    
C142  C149  A    
C146  H16   S    
C36   C37   A    
C76   C78   A    
C160  H17   S    
C113  C114  A    
C69   C70   A    
C87   O10   A    
C6    C12   A    
C104  C109  A    
C80   C81   A    
C42   H61   S    
C123  C125  A    
C81   H43   S    
C7    C159  S    
C111  C117  A    
C161  O8    A    
C77   F1    S    
C82   C87   S    
C111  H2    S    
C79   C153  S    
C108  C109  A    
C60   H76   S    
C135  C137  A    
C18   C19   A    
C148  C160  A    
C2    C13   A    
C118  C119  A    
C104  C105  A    
C103  C104  A    
C87   O11   A    
C124  F4    S    
C61   C66   A    
C133  H11   S    
C13   F8    S    
C94   C95   A    
C163  C164  A    
O10   Zn1   S    
C57   H38   S    
C16   C17   A    
O4    Zn2   S    
C16   H29   S    
C65   H81   S    
C107  C108  A    
C112  O15   A    
C127  C128  A    
C18   H31   S    
O14   Zn2   S    
C118  C125  A    
C40   H60   S    
C29   C30   A    
C61   C62   A    
C112  O16   A    
C9    H28   S    
C137  C138  A    
C113  H3    S    
C15   C16   A    
O21   Zn4   S    
C109  H67   S    
C157  O2    A    
C21   C27   A    
C23   H46   S    
C59   C60   A    
C2    C154  A    
C158  O5    A    
C47   H65   S    
C21   C22   A    
C96   C97   A    
O3    Zn5   S    
C41   C128  S    
C51   H69   S    
C20   C132  A    
C14   C19   A    
C22   C23   A    
C162  H19   S    
C120  C122  A    
C92   C97   A    
C81   C82   A    
C6    C7    A    
O1    Zn1   S    
C45   C47   A    
C48   C53   A    
C86   C89   A    
C137  C140  A    
C89   C90   A    
C27   H49   S    
C8    C19   S    
C67   C85   S    
C74   C75   A    
C124  C136  A    
C26   H48   S    
C51   C52   A    
C158  O3    A    
C101  C102  A    
C66   H82   S    
C58   H74   S    
C84   C85   A    
C140  C141  A    
C112  C123  S    
C111  C113  A    
C33   H54   S    
C55   H72   S    
C44   H63   S    
C70   H84   S    
C17   H30   S    
C114  C125  S    
C35   C83   A    
C129  C130  A    
C34   C127  S    
C143  C154  A    
O16   Zn2   S    
O18   Zn3   S    
O17   Zn3   S    
C9    C160  A    
C100  C150  S    
C25   C26   A    
C63   C64   A    
C99   C110  A    
C75   H41   S    
C162  C163  A    
C83   C148  S    
C13   C24   A    
C100  O14   A    
C153  O18   A    
C67   C69   A    
O6    Zn5   S    
C155  O21   A    
C37   H57   S    
C75   C76   A    
C39   H59   S    
C37   C38   A    
C2    C78   S    
C52   H70   S    
C12   C164  S    
C1    O4    A    
C15   H27   S    
C24   C155  S    
C138  C139  A    
C143  H36   S    
C115  C116  A    
C30   C31   A    
C11   C12   A    
C107  H56   S    
C62   C63   A    
C141  F5    S    
C17   C18   A    
C41   C47   A    
C126  H7    S    
C50   C51   A    
C93   C94   A    
C3    H21   S    
C73   H87   S    
C88   H32   S    
C136  C148  A    
C3    C164  A    
C154  C157  S    
C157  O24   A    
C1    O1    A    
C67   C73   A    
C48   C49   A    
C84   C91   A    
C90   H12   S    
C28   C33   A    
C133  C139  A    
C36   H55   S    
C82   C83   A    
C43   C44   A    
C130  H10   S    
O5    Zn6   S    
C142  C144  A    
C79   C80   A    
C25   H47   S    
O12   Zn4   S    
C42   C43   A    
C121  H35   S    
C57   C68   A    
C93   C158  S    
O15   Zn1   S    
C10   H25   S    
C102  C107  A    
C145  C146  A    
C39   C40   A    
C70   C71   A    
C52   C53   A    
C69   H83   S    
O11   Zn2   S    
C146  C147  A    
C56   H73   S    
C62   H77   S    
C11   C152  S    
C122  H6    S    
C129  H9    S    
C54   C55   A    
C28   C29   A    
C32   C33   A    
C152  O12   A    
O23   Zn4   S    
C150  C151  A    
C57   C78   A    
C31   C32   A    
C44   C45   A    
C53   H71   S    
C49   H66   S    
C43   H62   S    
O24   Zn5   S    
C156  O23   A    
C119  C120  A    
C147  F6    S    
C149  H15   S    
C46   C143  A    
C145  C151  A    
C94   H34   S    
C71   H85   S    
C98   C101  A    
C54   C132  S    
C105  C106  A    
C136  H8    S    
C134  C135  A    
C134  C161  S    
C29   H50   S    
C100  O13   A    
C153  O19   A    
C140  H14   S    
C5    C162  A    
C106  H78   S    
C80   C91   S    
C50   H68   S    
C130  C131  A    
C9    C77   A    
O20   Zn3   S    
C24   C46   A    
O9    Zn6   S    
C110  C121  A    
C77   C124  A    
C138  C144  A    
C141  C142  A    
O19   Zn4   S    
C156  O22   A    
C115  H4    S    
C90   C91   A    
C38   C39   A    
C126  C131  A    
O7    Zn6   S    
C72   C73   A    
C4    C5    A    
C20   C88   A    
C64   C65   A    
C35   C79   A    
C92   C93   A    
C56   C58   A    
C61   C84   S    
C110  H33   S    
C34   C36   A    
C23   C25   A    
C35   H37   S    
C102  C103  A    
C30   H51   S    
C58   C59   A    
C88   C99   A    
C152  O17   A    
C48   C151  S    
C1    C108  S    
C31   H52   S    
C76   H42   S    
C64   H80   S    
C144  C145  A    
O22   Zn3   S    
C20   F7    S    
C71   C72   A    
C32   H53   S    
C98   F3    S    
C8    C10   A    
C49   C50   A    
C117  H88   S    
C96   C103  A    
C74   H40   S    
C10   C11   A    
C28   C118  S    
O8    Zn5   S    
C14   C15   A    
C59   H75   S    
C121  C132  A    
C155  O20   A    
C161  O9    A    
C122  C123  A    
C116  H5    S    
C68   H39   S    
C159  O7    A    
C65   C66   A    
C135  H13   S    
C21   C105  S    
C5    H18   S    
C3    C4    A    
C163  H20   S    
C97   C106  A    
