data_mof_unit_168.cif
_audit_creation_date              2012-12-11T14:36:09-0500
_audit_creation_method            fapswitch 2.2
_symmetry_space_group_name_H-M    P1
_symmetry_Int_Tables_number       1
_space_group_crystal_system       monoclinic
_cell_length_a                    14.549333
_cell_length_b                    16.001837
_cell_length_c                    6.95736
_cell_angle_alpha                 90.0
_cell_angle_beta                  80.980369
_cell_angle_gamma                 90.0
_cell_volume                      1599.75595483

loop_
_atom_site_label
_atom_site_type_symbol
_atom_type_description
_atom_site_fract_x
_atom_site_fract_y
_atom_site_fract_z
_atom_type_partial_charge
O1    O     O_R   0.337460 0.413110 0.524760 -0.536558
O2    O     O_R   0.662540 0.913110 0.475240 -0.536558
O3    O     O_R   0.348690 0.587910 0.191230 -0.544859
O4    O     O_R   0.651310 0.087910 0.808770 -0.544859
O5    O     O_R   0.166530 0.586890 0.082470 -0.537002
O6    O     O_R   0.833470 0.086890 0.917530 -0.537003
C1    C     C_R   0.370761 0.616403 0.353481 0.760508
C2    C     C_R   0.629238 0.116403 0.646520 0.760508
O7    O     O_R   0.348700 0.413830 0.191250 -0.544612
O8    O     O_R   0.651300 0.913830 0.808750 -0.544612
O9    O     O_R   0.166530 0.411570 0.082490 -0.536606
O10   O     O_R   0.833470 0.911570 0.917510 -0.536606
C3    C     C_R   0.370923 0.385379 0.353395 0.765676
C4    C     C_R   0.629077 0.885378 0.646605 0.765676
O11   O     O_R   0.337460 0.588430 0.524740 -0.538321
O12   O     O_R   0.662540 0.088430 0.475260 -0.538321
O13   O     O_3   0.192230 0.499460 0.407330 -0.383179
O14   O     O_3   0.807770 0.999460 0.592670 -0.383179
V1    V     V_3+5 0.263080 0.500100 0.108540 1.378360
V2    V     V_3+5 0.736920 0.000100 0.891460 1.378360
O15   O     O_R   0.155290 0.412090 0.756570 -0.549167
O16   O     O_R   0.844710 0.912090 0.243430 -0.549168
C5    C     C_R   0.133627 0.382280 0.933712 0.659796
C6    C     C_R   0.866372 0.882280 0.066288 0.659797
O17   O     O_R   0.155290 0.586170 0.756550 -0.548965
O18   O     O_R   0.844710 0.086170 0.243450 -0.548965
C7    C     C_R   0.132974 0.615250 0.932796 0.675988
C8    C     C_R   0.867026 0.115250 0.067204 0.675988
V3    V     V_3+5 0.240910 0.499900 0.616030 1.361025
V4    V     V_3+5 0.759090 0.999900 0.383970 1.361025
O19   O     O_3   0.311760 0.500540 0.867100 -0.366113
O20   O     O_3   0.688240 0.000540 0.132900 -0.366113
C9    C     C_3   0.088816 0.751870 0.111517 -0.313625
C10   C     C_3   0.911184 0.251870 0.888483 -0.313624
H1    H     H_    0.087817 0.725023 0.258415 0.150692
H2    H     H_    0.912183 0.225023 0.741585 0.150691
H3    H     H_    0.161399 0.773186 0.061134 0.124287
H4    H     H_    0.838601 0.273186 0.938866 0.124287
C11   C     C_3   0.022706 0.828661 0.127264 -0.404311
C12   C     C_3   0.977294 0.328661 0.872736 -0.404311
H5    H     H_    0.061393 0.883658 0.057971 0.126650
H6    H     H_    0.938607 0.383658 0.942029 0.126650
H7    H     H_    0.002146 0.846507 0.281474 0.144288
H8    H     H_    0.997854 0.346507 0.718526 0.144288
H9    H     H_    0.882199 0.729146 0.271391 0.154389
H10   H     H_    0.117801 0.229146 0.728609 0.154389
C13   C     C_3   0.959901 0.651258 0.040566 0.031292
C14   C     C_3   0.040099 0.151258 0.959434 0.031292
C15   C     C_3   0.054924 0.731975 0.773947 -0.404546
C16   C     C_3   0.945076 0.231975 0.226053 -0.404546
C17   C     C_3   0.060791 0.684947 0.967661 0.080308
C18   C     C_3   0.939209 0.184947 0.032339 0.080308
H11   H     H_    0.041814 0.686208 0.661711 0.148657
H12   H     H_    0.958186 0.186208 0.338289 0.148657
H13   H     H_    0.123429 0.761181 0.718237 0.127089
H14   H     H_    0.876571 0.261181 0.281763 0.127089
C19   C     C_3   0.936429 0.810461 0.026673 0.086710
C20   C     C_3   0.063571 0.310461 0.973327 0.086710
C21   C     C_3   0.893874 0.725673 0.111569 -0.313534
C22   C     C_3   0.106126 0.225673 0.888431 -0.313534
C23   C     C_3   0.977443 0.800673 0.802939 0.045016
C24   C     C_3   0.022556 0.300673 0.197061 0.045016
H15   H     H_    0.014764 0.860342 0.760113 0.085078
H16   H     H_    0.985236 0.360342 0.239887 0.085078
H17   H     H_    0.935169 0.626549 0.908468 0.100039
H18   H     H_    0.064831 0.126549 0.091532 0.100039
H19   H     H_    0.823732 0.714107 0.075042 0.109238
H20   H     H_    0.176268 0.214107 0.924958 0.109238
H21   H     H_    0.565116 0.807725 0.352182 0.154939
H22   H     H_    0.434884 0.307725 0.647818 0.154939
H23   H     H_    0.435416 0.693467 0.647998 0.156190
H24   H     H_    0.564584 0.193467 0.352002 0.156190
C25   C     C_2   0.440020 0.684256 0.343161 -0.346018
C26   C     C_2   0.559979 0.184256 0.656839 -0.346018
C27   C     C_2   0.465635 0.716805 0.505268 -0.131579
C28   C     C_2   0.534365 0.216805 0.494732 -0.131579
H25   H     H_    0.529407 0.793861 0.799345 0.125096
H26   H     H_    0.470593 0.293861 0.200655 0.125096
C29   C     C_2   0.559875 0.817501 0.657079 -0.349101
C30   C     C_2   0.440125 0.317501 0.342921 -0.349101
C31   C     C_2   0.534663 0.784596 0.494957 -0.132743
C32   C     C_2   0.465337 0.284596 0.505043 -0.132743
H27   H     H_    0.470343 0.708071 0.200956 0.124517
H28   H     H_    0.529657 0.208071 0.799044 0.124517
C33   C     C_3   0.909492 0.792491 0.650662 -0.324519
C34   C     C_3   0.818446 0.744040 0.705874 -0.740635
H29   H     H_    0.831037 0.678503 0.744075 0.203714
H30   H     H_    0.771443 0.774889 0.825285 0.225527
H31   H     H_    0.780875 0.742710 0.578821 0.195856
H32   H     H_    0.891948 0.855479 0.600797 0.208072
H33   H     H_    0.948029 0.763081 0.519572 0.154437
C35   C     C_3   0.090508 0.292491 0.349338 -0.324520
C36   C     C_3   0.181553 0.244040 0.294126 -0.740635
H34   H     H_    0.168963 0.178503 0.255925 0.203714
H35   H     H_    0.228557 0.274889 0.174715 0.225527
H36   H     H_    0.219125 0.242710 0.421179 0.195856
H37   H     H_    0.108051 0.355479 0.399203 0.208072
H38   H     H_    0.051970 0.263081 0.480428 0.154436
C37   C     C_3   0.947844 0.572517 0.173306 -0.377753
C38   C     C_3   0.971870 0.581257 0.377831 -0.715353
H39   H     H_    0.044530 0.601206 0.375791 0.239461
H40   H     H_    0.923519 0.624777 0.464736 0.212971
H41   H     H_    0.963699 0.519490 0.451377 0.194543
H42   H     H_    0.873992 0.552069 0.188249 0.171376
H43   H     H_    0.989689 0.520384 0.099122 0.157316
C39   C     C_3   0.052156 0.072517 0.826694 -0.377753
C40   C     C_3   0.028130 0.081257 0.622169 -0.715353
H44   H     H_    0.955470 0.101206 0.624209 0.239461
H45   H     H_    0.076481 0.124777 0.535264 0.212971
H46   H     H_    0.036301 0.019490 0.548623 0.194542
H47   H     H_    0.126008 0.052070 0.811751 0.171376
H48   H     H_    0.010311 0.020384 0.900878 0.157316

loop_
_geom_bond_atom_site_label_1
_geom_bond_atom_site_label_2
_ccdc_geom_bond_type
C20   C24   S    
C5    C20   S    
V4    O20   S    
C36   H34   S    
O11   V3    S    
C25   C27   D    
H24   C28   S    
V1    O19   S    
C33   H33   S    
C35   H38   S    
C1    C25   S    
C39   H48   S    
C33   C34   S    
O9    V1    S    
C16   H12   S    
C26   C28   D    
C10   C12   S    
O3    C1    A    
H26   C30   S    
C19   C21   S    
C39   C40   S    
C20   C22   S    
C11   C19   S    
C13   C37   S    
C23   H15   S    
O7    C3    A    
C38   H39   S    
C24   H16   S    
C21   H19   S    
O5    C7    A    
O7    V1    S    
O6    C8    A    
O8    V2    S    
C6    C19   S    
C15   C17   S    
C24   C35   S    
C16   C18   S    
C40   H44   S    
O3    V1    S    
O14   V4    S    
C10   H2    S    
O4    C2    A    
C12   H6    S    
C37   H42   S    
C3    C30   S    
C36   H35   S    
C40   H45   S    
O2    C4    A    
C2    C26   S    
C7    C17   S    
C35   H37   S    
C14   C22   S    
C39   H47   S    
H25   C29   S    
O17   V3    S    
C37   H43   S    
C14   C39   S    
C12   C20   S    
C34   H30   S    
C15   C23   S    
C11   H5    S    
O8    C4    A    
C28   C32   S    
C29   C31   D    
C34   H29   S    
C27   C31   S    
C11   H7    S    
C1    O11   A    
C15   H13   S    
O15   V3    S    
C38   H41   S    
C9    H3    S    
C9    C17   S    
C37   C38   S    
C14   C18   S    
O10   V2    S    
O1    V3    S    
C9    C11   S    
C4    C29   S    
C23   C33   S    
C30   C32   D    
O18   V4    S    
C36   H36   S    
O15   C5    A    
C16   C24   S    
C40   H46   S    
O16   C6    A    
O1    C3    A    
O13   V1    S    
C38   H40   S    
V2    O20   S    
H9    C21   S    
O16   V4    S    
H10   C22   S    
C10   H4    S    
O18   C8    A    
C26   H28   S    
C34   H31   S    
C13   C17   S    
C33   H32   S    
C19   C23   S    
O5    V1    S    
O17   C7    A    
O6    V2    S    
O10   C6    A    
C10   C18   S    
O2    V4    S    
V3    O19   S    
O13   V3    S    
H23   C27   S    
C8    C18   S    
C15   H11   S    
O9    C5    A    
C35   C36   S    
C9    H1    S    
C25   H27   S    
O14   V2    S    
H22   C32   S    
C16   H14   S    
H21   C31   S    
C13   C21   S    
O4    V2    S    
C12   H8    S    
C22   H20   S    
C2    O12   A    
C14   H18   S    
O12   V4    S    
C13   H17   S    
