data_mof_unit_358.cif
_audit_creation_date              2012-12-10T20:34:11-0500
_audit_creation_method            fapswitch 2.2
_symmetry_space_group_name_H-M    P1
_symmetry_Int_Tables_number       1
_space_group_crystal_system       triclinic
_cell_length_a                    9.920032
_cell_length_b                    10.706219
_cell_length_c                    13.612171
_cell_angle_alpha                 90.666525
_cell_angle_beta                  83.929658
_cell_angle_gamma                 88.280416
_cell_volume                      1436.78159639

loop_
_atom_site_label
_atom_site_type_symbol
_atom_type_description
_atom_site_fract_x
_atom_site_fract_y
_atom_site_fract_z
_atom_type_partial_charge
C1    C     C_R   0.499328 0.738654 0.490754 0.915896
C2    C     C_3   0.244372 0.946960 0.480317 0.710543
C3    C     C_R   0.916029 0.511896 0.586038 0.171489
C4    C     C_R   0.476702 0.499792 0.685360 0.900987
C5    C     C_R   0.938952 0.468320 0.417766 -0.157348
C6    C     C_R   0.082279 0.464040 0.417546 0.214459
C7    C     C_R   0.057682 0.510503 0.586893 0.154526
C8    C     C_3   0.045486 0.612401 0.664550 -0.064494
C9    C     C_3   0.892022 0.614227 0.660659 -0.474440
C10   C     C_R   0.502759 0.259845 0.495809 0.915466
C11   C     C_R   0.523526 0.499792 0.314631 0.890077
C12   C     C_1   0.460653 0.499165 0.788752 -0.183741
C13   C     C_1   0.541490 0.499110 0.211275 -0.207353
C14   C     C_2   0.567733 0.497380 0.018532 0.591867
C15   C     C_2   0.449986 0.498735 0.979896 -0.282270
C16   C     C_1   0.450616 0.498864 0.876293 0.078774
C17   C     C_1   0.557199 0.498320 0.123706 -0.166900
C18   C     C_3   0.161289 0.411084 0.325691 -0.830448
C19   C     C_3   0.084288 0.570129 0.765244 -0.849732
C20   C     C_3   0.804798 0.492863 0.010009 -0.311489
C21   C     C_3   0.712825 0.855082 0.353560 -0.870011
C22   C     C_3   0.748155 0.124354 0.395874 -0.874272
C23   C     C_R   0.384543 0.938533 0.514568 0.027505
C24   C     C_3   0.154930 0.144115 0.584305 -0.783183
C25   C     C_3   0.017490 0.892780 0.519440 -0.344180
C26   C     C_3   0.244733 0.905064 0.370730 -0.995275
C27   C     C_R   0.497088 0.869517 0.472625 -0.212206
C28   C     C_R   0.611195 0.928322 0.424986 0.177241
C29   C     C_R   0.621426 0.058408 0.437914 0.166163
C30   C     C_R   0.507833 0.126386 0.487403 -0.181666
C31   C     C_R   0.390744 0.065600 0.523236 -0.045592
C32   C     C_3   0.249136 0.088305 0.496491 -0.091185
H1    H     H_    0.353100 0.500199 0.025666 0.114758
H2    H     H_    0.056753 0.471694 0.779967 0.243477
H3    H     H_    0.194105 0.579782 0.768926 0.258488
H4    H     H_    0.031027 0.631261 0.824425 0.241416
H5    H     H_    0.808055 0.407339 0.055462 0.167352
H6    H     H_    0.807267 0.578627 0.056636 0.168865
H7    H     H_    0.897298 0.490219 0.956526 0.185657
H8    H     H_    0.677209 0.761554 0.334606 0.244500
H9    H     H_    0.727644 0.904100 0.281978 0.230362
H10   H     H_    0.810944 0.843846 0.384916 0.233799
H11   H     H_    0.720902 0.197886 0.343923 0.238704
H12   H     H_    0.094454 0.699223 0.639367 0.243725
H13   H     H_    0.798337 0.166264 0.456914 0.251913
H14   H     H_    0.826701 0.062512 0.355178 0.225908
H15   H     H_    0.049399 0.152702 0.564702 0.219162
H16   H     H_    0.157213 0.086058 0.651281 0.263584
H17   H     H_    0.186006 0.239243 0.603128 0.253766
H18   H     H_    0.000143 0.807489 0.475963 0.184339
H19   H     H_    0.995149 0.977392 0.476652 0.167845
H20   H     H_    0.944422 0.895524 0.586940 0.188338
H21   H     H_    0.333425 0.941915 0.324474 0.221042
H22   H     H_    0.248999 0.801491 0.364727 0.271863
H23   H     H_    0.832117 0.582650 0.729107 0.240196
H24   H     H_    0.152256 0.940751 0.339680 0.224881
H25   H     H_    0.851006 0.700763 0.629154 0.185108
H26   H     H_    0.245392 0.142599 0.427633 0.150189
H27   H     H_    0.892897 0.444478 0.351705 0.160237
H28   H     H_    0.239985 0.342733 0.344890 0.259417
H29   H     H_    0.095537 0.358117 0.279919 0.188100
H30   H     H_    0.203267 0.487840 0.278975 0.248658
N1    N     N_R   0.857130 0.500860 0.500650 -0.123647
N2    N     N_R   0.142770 0.500820 0.500650 -0.119191
O1    O     O_R   0.385310 0.683210 0.499990 -0.592964
O2    O     O_3   0.150444 0.886345 0.548098 -0.599289
O3    O     O_R   0.614650 0.683240 0.500000 -0.611082
O4    O     O_R   0.368820 0.499950 0.640340 -0.614077
O5    O     O_R   0.598170 0.499990 0.640350 -0.595071
O6    O     O_R   0.385350 0.316760 0.500000 -0.627608
O7    O     O_R   0.614690 0.316790 0.500010 -0.611204
O8    O     O_R   0.401830 0.500010 0.359650 -0.620685
O9    O     O_R   0.631180 0.500050 0.359660 -0.630969
O10   O     O_3   0.690146 0.495578 0.956824 -0.598095
Zn1   Zn    Zn3+2 0.346870 0.499980 0.499990 0.942983
Zn2   Zn    Zn3+2 0.653130 0.500020 0.500010 0.936041

loop_
_geom_bond_atom_site_label_1
_geom_bond_atom_site_label_2
_ccdc_geom_bond_type
O3    Zn2   S    
C1    O1    A    
C24   C32   S    
C18   H29   S    
C29   C30   A    
C9    H23   S    
C22   C29   S    
C23   C27   A    
C4    C12   S    
C20   H6    S    
C24   H17   S    
C10   C30   S    
C3    C7    A    
C31   C32   S    
O1    Zn1   S    
C32   H26   S    
C1    C27   S    
C10   O7    A    
C24   H15   S    
C25   H19   S    
C25   H20   S    
C20   O10   S    
C7    C8    S    
C2    C26   S    
C14   O10   S    
O4    Zn1   S    
C20   H5    S    
C11   C13   S    
C14   C17   S    
C5    N1    A    
C30   C31   A    
C21   H8    S    
O8    Zn1   S    
C21   H9    S    
C26   H22   S    
C4    O5    A    
C18   H28   S    
C3    N1    A    
C22   H14   S    
N2    Zn1   S    
C15   H1    S    
C9    H25   S    
C19   H4    S    
C11   O9    A    
C5    C6    A    
C6    C18   S    
O9    Zn2   S    
C7    N2    A    
C3    C9    S    
C8    C19   S    
C15   C16   S    
C5    H27   S    
C13   C17   T    
C24   H16   S    
C26   H21   S    
C12   C16   T    
O7    Zn2   S    
C27   C28   A    
C22   H13   S    
C10   O6    A    
O5    Zn2   S    
C2    C32   S    
N1    Zn2   S    
C6    N2    A    
C2    C23   S    
C4    O4    A    
C20   H7    S    
C11   O8    A    
C28   C29   A    
O6    Zn1   S    
C19   H3    S    
C21   H10   S    
C1    O3    A    
C25   H18   S    
C14   C15   D    
C21   C28   S    
C22   H11   S    
C18   H30   S    
C25   O2    S    
C8    H12   S    
C26   H24   S    
C8    C9    S    
C2    O2    S    
C19   H2    S    
C23   C31   A    
