data_mof_unit_3678.cif
_audit_creation_date              2012-10-26T19:35:33-0400
_audit_creation_method            fapswitch 2.2
_symmetry_space_group_name_H-M    P1
_symmetry_Int_Tables_number       1
_space_group_crystal_system       triclinic
_cell_length_a                    15.851855
_cell_length_b                    10.8433
_cell_length_c                    9.596997
_cell_angle_alpha                 89.981532
_cell_angle_beta                  90.326668
_cell_angle_gamma                 90.969461
_cell_volume                      1649.33047084

loop_
_atom_site_label
_atom_site_type_symbol
_atom_type_description
_atom_site_fract_x
_atom_site_fract_y
_atom_site_fract_z
_atom_type_partial_charge
C1    C     C_R   0.500616 0.262886 0.499930 0.545924
C2    C     C_R   0.503431 0.130292 0.498913 0.006662
C3    C     C_R   0.525355 0.065410 0.377363 -0.167334
C4    C     C_R   0.340043 0.500150 0.499608 0.543572
C5    C     C_R   0.524906 0.935980 0.377102 -0.177355
C6    C     C_R   0.503629 0.869774 0.498912 -0.005998
C7    C     C_R   0.484601 0.937320 0.616847 0.048978
C8    C     C_3   0.454284 0.929230 0.764062 0.021878
C9    C     C_3   0.454194 0.071638 0.762832 -0.255637
C10   C     C_R   0.531638 0.598749 0.072652 0.107982
C11   C     C_R   0.456593 0.411306 0.074018 0.231170
C12   C     C_3   0.083390 0.498775 0.498502 0.010223
C13   C     C_R   0.457339 0.411763 0.924498 -0.001950
C14   C     C_R   0.532668 0.597648 0.927069 0.129460
C15   C     C_3   0.617566 0.660254 0.919619 0.025575
C16   C     C_R   0.500897 0.737104 0.499886 0.544550
C17   C     C_3   0.614569 0.667916 0.079991 0.021058
C18   C     C_R   0.659864 0.498927 0.500371 0.553273
C19   C     C_3   0.972304 0.406264 0.579937 0.160004
C20   C     C_3   0.027184 0.388340 0.448892 -0.135695
C21   C     C_1   0.250470 0.500272 0.498693 -0.038359
C22   C     C_1   0.749253 0.496706 0.500995 -0.029921
C23   C     C_3   0.973090 0.605354 0.548457 0.191266
C24   C     C_3   0.028354 0.514516 0.629223 0.181880
C25   C     C_3   0.402979 0.198027 0.096749 -0.335417
C26   C     C_3   0.762894 0.635444 0.833648 -0.295010
C27   C     C_3   0.748271 0.678957 0.211619 -0.301336
C28   C     C_3   0.999259 0.221551 0.718995 -0.316181
C29   C     C_3   0.996673 0.750347 0.248529 -0.326199
C30   C     C_3   0.003861 0.813830 0.635652 -0.306206
C31   C     C_3   0.004387 0.547693 0.879257 -0.324181
C32   C     C_3   0.307316 0.885470 0.672879 -0.274374
C33   C     C_3   0.916077 0.496718 0.500066 0.010521
C34   C     C_3   0.027028 0.588663 0.417944 0.157726
C35   C     C_3   0.970183 0.480147 0.367273 -0.149091
C36   C     C_1   0.174981 0.499952 0.498199 -0.062178
C37   C     C_1   0.824650 0.495856 0.500807 -0.071552
C38   C     C_R   0.484566 0.061668 0.616788 -0.008744
Cu1   Cu    Cu3+1 0.500000 0.499980 0.640670 0.961556
Cu2   Cu    Cu3+1 0.500000 0.500020 0.359330 0.970644
H1    H     H_    0.501737 0.890158 0.836463 0.108075
H2    H     H_    0.378233 0.136481 0.180013 0.152928
H3    H     H_    0.467111 0.167172 0.068756 0.137074
H4    H     H_    0.682317 0.489639 0.898166 0.251296
H5    H     H_    0.802738 0.567578 0.779645 0.148503
H6    H     H_    0.795812 0.662925 0.930894 0.134276
H7    H     H_    0.755500 0.717033 0.764915 0.151325
H8    H     H_    0.695080 0.514241 0.124818 0.257674
H9    H     H_    0.803798 0.621393 0.235227 0.128598
H10   H     H_    0.726370 0.722092 0.309577 0.152954
H11   H     H_    0.767768 0.753253 0.138398 0.120600
H12   H     H_    0.423075 0.341562 0.866571 0.120170
H13   H     H_    0.606079 0.763585 0.118357 0.089503
H14   H     H_    0.894922 0.335317 0.736928 0.243658
H15   H     H_    0.965766 0.144612 0.772812 0.131442
H16   H     H_    0.042006 0.268446 0.794880 0.136244
H17   H     H_    0.036858 0.181981 0.633130 0.146171
H18   H     H_    0.945202 0.466867 0.259919 0.102022
H19   H     H_    0.109644 0.658298 0.269124 0.249635
H20   H     H_    0.027246 0.827919 0.191363 0.137228
H21   H     H_    0.947829 0.788774 0.317599 0.153543
H22   H     H_    0.966172 0.687021 0.171739 0.121010
H23   H     H_    0.615124 0.751245 0.866571 0.098456
H24   H     H_    0.890740 0.753503 0.545111 0.236406
H25   H     H_    0.973315 0.891096 0.690686 0.122190
H26   H     H_    0.033681 0.850359 0.539432 0.166824
H27   H     H_    0.053233 0.775945 0.705200 0.181152
H28   H     H_    0.111230 0.471581 0.790924 0.245894
H29   H     H_    0.039083 0.574499 0.975657 0.136359
H30   H     H_    0.969516 0.460089 0.899489 0.131147
H31   H     H_    0.959130 0.621453 0.854320 0.174665
H32   H     H_    0.542757 0.113993 0.283042 0.137953
H33   H     H_    0.347442 0.882874 0.880479 0.241461
H34   H     H_    0.540892 0.888575 0.282077 0.122119
H35   H     H_    0.248611 0.835801 0.704382 0.135002
H36   H     H_    0.328840 0.843738 0.574004 0.163517
H37   H     H_    0.292432 0.983996 0.656050 0.124839
H38   H     H_    0.050566 0.299347 0.408612 0.107586
H39   H     H_    0.390883 0.113526 0.768719 0.129057
H40   H     H_    0.503024 0.114098 0.831954 0.106931
H41   H     H_    0.347917 0.356500 0.175139 0.251608
H42   H     H_    0.359913 0.190227 0.005491 0.107779
N1    N     N_R   0.500530 0.500930 0.147930 -0.213583
N2    N     N_2   0.370827 0.872402 0.781218 -0.496861
N3    N     N_R   0.500530 0.500890 0.852020 -0.245746
N4    N     N_2   0.406088 0.323589 0.147577 -0.463327
N5    N     N_2   0.681526 0.579698 0.863658 -0.464578
N6    N     N_2   0.680936 0.603199 0.152859 -0.459387
N7    N     N_2   0.938280 0.306942 0.664585 -0.508513
N8    N     N_2   0.059594 0.686015 0.328939 -0.516576
N9    N     N_2   0.940961 0.720328 0.601623 -0.532046
N10   N     N_2   0.063960 0.532382 0.767337 -0.517804
O1    O     O_R   0.500000 0.319640 0.618810 -0.517080
O2    O     O_R   0.500010 0.319680 0.381230 -0.473359
O3    O     O_R   0.379070 0.499970 0.618770 -0.493328
O4    O     O_R   0.379080 0.500010 0.381190 -0.500539
O5    O     O_R   0.499990 0.680320 0.618770 -0.482282
O6    O     O_R   0.500000 0.680360 0.381190 -0.508574
O7    O     O_R   0.620920 0.499990 0.618810 -0.468737
O8    O     O_R   0.620930 0.500030 0.381230 -0.473738

loop_
_geom_bond_atom_site_label_1
_geom_bond_atom_site_label_2
_ccdc_geom_bond_type
C17   N6    S    
C19   C20   S    
C25   H3    S    
C32   H35   S    
C28   H16   S    
C7    C8    S    
C21   C36   T    
C28   H17   S    
C35   H18   S    
C1    O2    A    
C34   C35   S    
Cu2   O6    S    
C5    C6    A    
C16   O5    A    
Cu1   O5    S    
C10   C17   S    
C13   H12   S    
C10   N1    A    
C1    C2    S    
C9    H39   S    
C5    H34   S    
Cu1   O1    S    
C26   H5    S    
H28   N10   S    
C32   H37   S    
C4    O4    A    
C20   C35   S    
C31   H30   S    
C8    C9    S    
C23   C33   S    
C23   C24   S    
H8    N6    S    
C28   N7    S    
C12   C36   S    
H4    N5    S    
H33   N2    S    
C30   H27   S    
C27   H10   S    
C31   H31   S    
C8    N2    S    
Cu2   N1    S    
C18   O8    A    
Cu2   O4    S    
C24   N10   S    
C29   N8    S    
C28   H15   S    
C27   H11   S    
C32   N2    S    
C29   H21   S    
C8    H1    S    
H14   N7    S    
C10   C14   A    
Cu1   Cu2   S    
C26   N5    S    
C11   N1    A    
C22   C37   T    
C33   C37   S    
H19   N8    S    
C34   N8    S    
Cu2   O8    S    
C19   N7    S    
C4    O3    A    
C2    C38   A    
Cu1   O7    S    
C29   H20   S    
C23   C34   S    
C12   C20   S    
Cu1   O3    S    
C30   H26   S    
C26   H7    S    
C19   C33   S    
C25   H42   S    
C23   N9    S    
C18   O7    A    
Cu1   N3    S    
C12   C34   S    
C17   H13   S    
C15   N5    S    
C15   C17   S    
C29   H22   S    
C18   C22   S    
C19   C24   S    
H41   N4    S    
C14   N3    A    
Cu2   O2    S    
C30   N9    S    
C3    C5    A    
C25   H2    S    
C32   H36   S    
C6    C7    A    
C12   C24   S    
C20   H38   S    
C3    H32   S    
C4    C21   S    
C11   C13   A    
C16   O6    A    
C25   N4    S    
C33   C35   S    
C7    C38   A    
C2    C3    A    
C27   N6    S    
C30   H25   S    
C26   H6    S    
C6    C16   S    
C31   H29   S    
C1    O1    A    
C31   N10   S    
C13   N3    A    
C15   H23   S    
C14   C15   S    
C9    C38   S    
C11   N4    S    
H24   N9    S    
C9    H40   S    
C27   H9    S    
