data_mof_unit_3567.cif
_audit_creation_date              2012-12-10T19:08:08-0500
_audit_creation_method            fapswitch 2.2
_symmetry_space_group_name_H-M    P1
_symmetry_Int_Tables_number       1
_space_group_crystal_system       triclinic
_cell_length_a                    9.063413
_cell_length_b                    10.818808
_cell_length_c                    9.620267
_cell_angle_alpha                 89.139871
_cell_angle_beta                  89.81347
_cell_angle_gamma                 91.493278
_cell_volume                      942.885515216

loop_
_atom_site_label
_atom_site_type_symbol
_atom_type_description
_atom_site_fract_x
_atom_site_fract_y
_atom_site_fract_z
_atom_type_partial_charge
C1    C     C_R   0.509066 0.262718 0.501190 0.852757
C2    C     C_R   0.581914 0.937318 0.386900 -0.240320
C3    C     C_R   0.516344 0.870776 0.498562 -0.118100
C4    C     C_R   0.485656 0.934153 0.618857 0.023921
C5    C     C_3   0.358573 0.927271 0.717361 -0.470771
C6    C     C_3   0.382986 0.066071 0.735575 0.368728
C7    C     C_R   0.610187 0.559311 0.071846 0.210369
C8    C     C_R   0.401932 0.428029 0.075866 0.402173
C9    C     C_R   0.399798 0.430191 0.927704 0.360316
C10   C     C_R   0.611425 0.557980 0.925368 0.189147
C11   C     C_3   0.657346 0.691140 0.916622 -0.470066
C12   C     C_R   0.220936 0.499785 0.500120 0.871320
C13   C     C_3   0.653054 0.693050 0.074441 -0.487273
C14   C     C_R   0.501879 0.737447 0.499017 0.796378
C15   C     C_R   0.779068 0.500129 0.499885 0.828734
C16   C     C_1   0.065629 0.499797 0.500191 -0.123915
C17   C     C_1   0.934369 0.499918 0.499837 -0.142542
C18   C     C_R   0.501292 0.059901 0.625411 -0.082730
C19   C     C_R   0.533037 0.129885 0.505022 -0.202554
C20   C     C_R   0.591746 0.067014 0.390082 0.418605
Cu1   Cu    Cu3+1 0.499990 0.499980 0.640670 0.988099
Cu2   Cu    Cu3+1 0.500010 0.500020 0.359330 1.034775
H1    H     H_    0.572793 0.749464 0.867924 0.210824
H2    H     H_    0.763316 0.709470 0.121934 0.208332
H3    H     H_    0.563461 0.750752 0.115156 0.211300
H4    H     H_    0.624081 0.889630 0.297721 0.168673
H5    H     H_    0.252934 0.903123 0.664553 0.161421
H6    H     H_    0.380839 0.871455 0.812297 0.214596
H7    H     H_    0.286174 0.120121 0.703070 0.153961
H8    H     H_    0.770449 0.704694 0.873049 0.205084
N1    N     N_R   0.500920 0.500930 0.147930 -0.247745
N2    N     N_R   0.500930 0.500890 0.852020 -0.253861
O1    O     O_R   0.500000 0.319640 0.618810 -0.586516
O2    O     O_R   0.500020 0.319680 0.381230 -0.485263
O3    O     O_R   0.288380 0.499980 0.618770 -0.530605
O4    O     O_R   0.288400 0.500020 0.381190 -0.537618
O5    O     O_R   0.499980 0.680320 0.618770 -0.584892
O6    O     O_R   0.500000 0.680360 0.381190 -0.595608
O7    O     O_R   0.711600 0.499980 0.618810 -0.583665
O8    O     O_R   0.711620 0.500020 0.381230 -0.558014
Cl1   Cl    Cl    0.684563 0.145556 0.253246 -0.650453
O9    O     O_3   0.427679 0.089050 0.875567 -0.547969
C21   C     C_3   0.572161 0.140636 0.891012 0.180180
H9    H     H_    0.571622 0.199309 0.984497 0.201855
H10   H     H_    0.606554 0.203869 0.804833 0.147459
C22   C     C_3   0.684993 0.038843 0.913538 -0.409392
H11   H     H_    0.660757 0.988992 0.013096 0.260142
H12   H     H_    0.677739 0.970163 0.829510 0.218717
C23   C     C_3   0.842485 0.092438 0.915538 -0.754869
H13   H     H_    0.871222 0.134665 0.812670 0.247060
H14   H     H_    0.920688 0.017491 0.938243 0.260446
H15   H     H_    0.854669 0.163980 0.996474 0.306745
Cl2   Cl    Cl    0.275831 0.328042 0.164841 -0.486090
Cl3   Cl    Cl    0.261719 0.341807 0.844300 -0.551287

loop_
_geom_bond_atom_site_label_1
_geom_bond_atom_site_label_2
_ccdc_geom_bond_type
C8    Cl2   S    
C7    C10   A    
C21   H9    S    
Cu1   O3    S    
C12   O4    A    
C5    H6    S    
C11   C13   S    
O9    C21   S    
C19   C20   A    
Cu1   O7    S    
C23   H15   S    
Cu2   O8    S    
C2    C3    A    
C4    C18   A    
C2    H4    S    
Cu1   Cu2   S    
C14   O5    A    
C21   H10   S    
C22   C23   S    
C15   O7    A    
C16   C17   T    
C3    C14   S    
C6    C18   S    
C11   H1    S    
C21   C22   S    
C7    N1    A    
C1    O2    A    
C20   Cl1   S    
C10   C11   S    
C5    C6    S    
Cu2   O2    S    
Cu1   N2    S    
C22   H12   S    
C15   O8    A    
C1    C19   S    
C14   O6    A    
Cu2   N1    S    
C1    O1    A    
C3    C4    A    
Cu2   O6    S    
C10   N2    A    
C7    C13   S    
C6    H7    S    
Cu1   O1    S    
C13   H2    S    
Cu1   O5    S    
C15   C17   S    
C18   C19   A    
C6    O9    S    
C23   H13   S    
C22   H11   S    
C8    C9    A    
C9    Cl3   S    
C9    N2    A    
C13   H3    S    
C5    H5    S    
C8    N1    A    
C2    C20   A    
C12   O3    A    
Cu2   O4    S    
C12   C16   S    
C11   H8    S    
C4    C5    S    
C23   H14   S    
