data_mof_unit_1850.cif
_audit_creation_date              2013-03-05T16:19:21-0500
_audit_creation_method            fapswitch 2.2
_symmetry_space_group_name_H-M    P1
_symmetry_Int_Tables_number       1
_space_group_crystal_system       triclinic
_cell_length_a                    10.620369
_cell_length_b                    9.75468
_cell_length_c                    23.375958
_cell_angle_alpha                 90.150807
_cell_angle_beta                  89.519578
_cell_angle_gamma                 90.174334
_cell_volume                      2421.60496657

loop_
_atom_site_label
_atom_site_type_symbol
_atom_site_description
_atom_site_fract_x
_atom_site_fract_y
_atom_site_fract_z
_atom_type_partial_charge
O1    O     O_R   0.314910 0.616040 0.499990 -0.635265
O2    O     O_R   0.314910 0.383960 0.499990 -0.637464
C1    C     C_R   0.257884 0.499524 0.499619 0.830551
O3    O     O_R   0.500080 0.616070 0.416130 -0.580501
O4    O     O_R   0.500080 0.383930 0.416130 -0.577555
C2    C     C_R   0.499781 0.500301 0.389623 0.906625
Zn1   Zn    Zn3+2 0.500150 0.654960 0.499970 0.931727
Zn2   Zn    Zn3+2 0.500150 0.345040 0.499970 0.933803
O5    O     O_R   0.685320 0.616040 0.499970 -0.643372
O6    O     O_R   0.685320 0.383960 0.499970 -0.628451
O7    O     O_R   0.500150 0.616010 0.583820 -0.627348
O8    O     O_R   0.500150 0.383990 0.583820 -0.626372
C3    C     C_R   0.742506 0.499851 0.499502 0.825586
C4    C     C_R   0.501264 0.500159 0.610678 0.902732
C5    C     C_R   0.620853 0.560714 0.881236 0.580957
N1    N     N_R   0.520596 0.506818 0.852583 -0.343434
C6    C     C_R   0.414826 0.461215 0.880339 0.599417
C7    C     C_R   0.407914 0.466133 0.939985 -0.073645
C8    C     C_R   0.510433 0.519985 0.970471 -0.005743
C9    C     C_R   0.617883 0.568629 0.940887 -0.016526
C10   C     C_R   0.300405 0.420519 0.969376 -0.180298
C11   C     C_R   0.293567 0.426146 0.029013 0.317175
C12   C     C_R   0.399031 0.473831 0.060365 -0.137619
C13   C     C_R   0.506084 0.524378 0.030573 -0.039367
C14   C     C_R   0.609845 0.578159 0.060688 -0.008013
C15   C     C_R   0.715342 0.628446 0.030796 -0.089598
C16   C     C_R   0.719480 0.623361 0.971398 -0.111563
C17   C     C_R   0.404289 0.468776 0.120382 0.656730
N2    N     N_R   0.505426 0.522832 0.148430 -0.329774
C18   C     C_R   0.606049 0.578840 0.120257 0.645327
O9    O     O_2   0.722970 0.605537 0.851953 -0.523559
O10   O     O_2   0.316825 0.411762 0.850105 -0.526510
H1    H     H_    0.219519 0.383086 0.946014 0.225132
O11   O     O_2   0.311927 0.407085 0.150871 -0.478389
O12   O     O_2   0.702416 0.633343 0.150082 -0.516098
H2    H     H_    0.795663 0.670373 0.053202 0.215775
H3    H     H_    0.802657 0.661783 0.949539 0.205780
C19   C     C_R   0.582854 0.422082 0.237599 0.314594
C20   C     C_R   0.580569 0.418091 0.297195 -0.317000
H4    H     H_    0.641442 0.348233 0.319866 0.211352
C21   C     C_R   0.499917 0.503486 0.327930 -0.161033
C22   C     C_R   0.424910 0.599195 0.300076 -0.298994
H5    H     H_    0.365321 0.667598 0.324853 0.197911
C23   C     C_R   0.428255 0.609415 0.240726 0.326855
C24   C     C_R   0.506267 0.518713 0.209334 0.069973
C25   C     C_R   0.537157 0.377213 0.762084 0.370650
C26   C     C_R   0.527612 0.377678 0.702514 -0.286653
H6    H     H_    0.537947 0.282278 0.679176 0.188763
C27   C     C_R   0.507720 0.500613 0.672943 -0.110241
C28   C     C_R   0.497342 0.624367 0.703055 -0.198876
H7    H     H_    0.482120 0.720459 0.681101 0.170538
C29   C     C_R   0.505029 0.625066 0.762123 -0.125808
H8    H     H_    0.494104 0.720706 0.785262 0.183116
C30   C     C_R   0.524070 0.502726 0.791739 0.183571
C31   C     C_3   0.071664 0.563791 0.555474 -0.391340
C32   C     C_3   0.071413 0.348851 0.494708 -0.398976
H9    H     H_    0.105181 0.671691 0.559233 0.173901
H10   H     H_    0.107914 0.298679 0.455060 0.169204
H11   H     H_    0.107495 0.506603 0.593118 0.170338
H12   H     H_    0.103298 0.287120 0.531887 0.176623
C33   C     C_3   0.927133 0.561415 0.556032 -0.393449
C34   C     C_3   0.928474 0.349407 0.493569 -0.388001
H13   H     H_    0.892471 0.499772 0.592999 0.171595
H14   H     H_    0.892146 0.284749 0.529338 0.172696
H15   H     H_    0.891182 0.667748 0.561692 0.174711
H16   H     H_    0.895706 0.302796 0.452726 0.179795
H17   H     H_    0.111298 0.687642 0.448256 0.172572
H18   H     H_    0.107605 0.532606 0.406698 0.172880
H19   H     H_    0.899413 0.693113 0.453011 0.170226
H20   H     H_    0.892494 0.544211 0.407250 0.166577
C35   C     C_3   0.074113 0.580794 0.447270 -0.393239
C36   C     C_3   0.121631 0.498251 0.499279 0.177984
C37   C     C_3   0.879055 0.498823 0.499319 0.182223
C38   C     C_3   0.929822 0.584601 0.448370 -0.419483
C39   C     C_3   0.370432 0.079919 0.493955 -0.304143
C40   C     C_3   0.371825 0.918334 0.489662 -0.282892
H21   H     H_    0.317912 0.126651 0.458460 0.137069
H22   H     H_    0.333375 0.880786 0.448564 0.164801
H23   H     H_    0.313834 0.109853 0.532303 0.168938
H24   H     H_    0.306303 0.876682 0.522728 0.164507
C41   C     C_3   0.582152 0.079722 0.452202 0.434609
C42   C     C_3   0.589517 0.917768 0.454565 0.445446
C43   C     C_3   0.548874 0.081531 0.553472 -0.372435
C44   C     C_3   0.542455 0.919220 0.554579 -0.362493
N3    N     N_3   0.499750 0.138610 0.498760 -0.087073
N4    N     N_3   0.499750 0.861390 0.498760 -0.076890
H25   H     H_    0.647517 0.116335 0.560248 0.153633
H26   H     H_    0.636244 0.876894 0.565707 0.165295
H27   H     H_    0.493784 0.122507 0.590337 0.205099
H28   H     H_    0.477331 0.886094 0.589456 0.194244
H29   H     H_    0.679483 0.114256 0.462440 0.038835
H30   H     H_    0.686374 0.890887 0.469348 -0.010416
N5    N     N_R   0.176610 0.389765 0.056223 0.249477
O13   O     O_R   0.116206 0.481000 0.086402 -0.280918
O14   O     O_R   0.118088 0.278350 0.040915 -0.314776
O15   O     O_3   0.565049 0.136705 0.396274 -0.626962
C45   C     C_3   0.451351 0.105600 0.367125 0.154288
H31   H     H_    0.387933 0.195527 0.370022 0.157610
H32   H     H_    0.399684 0.016622 0.383727 0.138708
C46   C     C_3   0.478671 0.074801 0.303806 -0.389412
H33   H     H_    0.555738 0.140812 0.287504 0.256280
H34   H     H_    0.509464 0.966714 0.298869 0.249722
C47   C     C_3   0.362478 0.096458 0.266962 -0.747596
H35   H     H_    0.283261 0.031695 0.282633 0.267712
H36   H     H_    0.384365 0.067749 0.221974 0.316599
H37   H     H_    0.333894 0.205925 0.268046 0.261697
O16   O     O_3   0.567347 0.861379 0.399490 -0.631625
C48   C     C_3   0.678662 0.811044 0.372512 0.098677
H38   H     H_    0.649697 0.758661 0.332492 0.181464
H39   H     H_    0.723516 0.731543 0.399155 0.146285
C49   C     C_3   0.774093 0.923873 0.356334 -0.441630
H40   H     H_    0.728212 0.002645 0.329642 0.275904
H41   H     H_    0.811439 0.974435 0.395262 0.198345
C50   C     C_3   0.885019 0.864398 0.322673 -0.815098
H42   H     H_    0.934931 0.786804 0.348657 0.246649
H43   H     H_    0.952350 0.947676 0.311557 0.281473
H44   H     H_    0.851797 0.815884 0.282460 0.297451
N6    N     N_R   0.662143 0.327649 0.206530 0.226495
O17   O     O_R   0.627445 0.278206 0.157358 -0.356251
O18   O     O_R   0.763050 0.278889 0.230161 -0.356465
N7    N     N_R   0.352620 0.711666 0.213021 0.228310
O19   O     O_R   0.390716 0.769433 0.165824 -0.366789
O20   O     O_R   0.250609 0.756986 0.237738 -0.373955
N8    N     N_R   0.559789 0.250126 0.791563 0.222644
O21   O     O_R   0.615607 0.248983 0.840897 -0.352308
O22   O     O_R   0.533621 0.133562 0.767097 -0.384548

loop_
_geom_bond_atom_site_label_1
_geom_bond_atom_site_label_2
_geom_bond_distance
_ccdc_geom_bond_type
C43   H25   1.112740 S    
N5    O13   1.301476 A    
C31   H11   1.113483 S    
C7    C10   1.399672 A    
C21   C22   1.395189 A    
C49   H40   1.107734 S    
C50   H42   1.110436 S    
C20   C21   1.390913 A    
C29   H8    1.083218 S    
Zn1   O7    1.997538 S    
C15   C16   1.389583 A    
C22   C23   1.391339 A    
C18   O12   1.350152 S    
C17   N2    1.366805 A    
C40   H22   1.108004 S    
Zn2   N3    2.013776 S    
O2    C1    1.281386 A    
C19   C20   1.393766 A    
O7    C4    1.294354 A    
Zn1   N4    2.013951 S    
C10   H1    1.083713 S    
C5    N1    1.365812 A    
C23   N7    1.441017 S    
C42   H30   1.119985 S    
C48   H38   1.110062 S    
C7    C8    1.406010 A    
C37   C38   1.549524 S    
C33   H13   1.113493 S    
O5    C3    1.287459 A    
N6    O17   1.301062 A    
C19   C24   1.415492 A    
C34   H14   1.114309 S    
C28   H7    1.083033 S    
C39   N3    1.491336 S    
C26   H6    1.082873 S    
C32   H10   1.114240 S    
N1    C6    1.366369 A    
C32   C36   1.554067 S    
C2    C21   1.442550 S    
H20   C38   1.113454 S    
C28   C29   1.383856 A    
C12   C13   1.416295 A    
C34   C37   1.555735 S    
C49   C50   1.526369 S    
C31   C36   1.549795 S    
C17   O11   1.348785 S    
N5    O14   1.301189 A    
C10   C11   1.396274 A    
C25   N8    1.441725 S    
C44   H28   1.112681 S    
O3    Zn1   1.995244 S    
C45   H32   1.095606 S    
C29   C30   1.397328 A    
C45   H31   1.109155 S    
N1    C30   1.422926 S    
C5    C9    1.396439 A    
C43   H27   1.111695 S    
C34   H16   1.114314 S    
C40   H24   1.112505 S    
C13   C14   1.411635 A    
C49   H41   1.109576 S    
C20   H4    1.083279 S    
C41   O15   1.435131 S    
C33   C37   1.547968 S    
C14   C15   1.403410 A    
C42   O16   1.419885 S    
C46   C47   1.526298 S    
C41   C42   1.583106 S    
C32   H12   1.114242 S    
N2    C24   1.424465 S    
O1    C1    1.286282 A    
C19   N6    1.440856 S    
C39   C40   1.579243 S    
N2    C18   1.364099 A    
C35   C38   1.532983 S    
C43   C44   1.584831 S    
Zn2   O8    1.995575 S    
O15   C45   1.423001 S    
C25   C30   1.412027 A    
C46   H34   1.110287 S    
C6    C7    1.396284 A    
H19   C38   1.112383 S    
C47   H36   1.110475 S    
C12   C17   1.405537 A    
C39   H21   1.103949 S    
N7    O19   1.301095 A    
C15   H2    1.083282 S    
C43   N3    1.494860 S    
C3    C37   1.450241 S    
C31   H9    1.113562 S    
C11   N5    1.434808 S    
C32   C34   1.518549 S    
O3    C2    1.286682 A    
C22   H5    1.084241 S    
O16   C48   1.423302 S    
C40   N4    1.486494 S    
C45   C46   1.535004 S    
C23   C24   1.413724 A    
N8    O22   1.301741 A    
C14   C18   1.392711 A    
Zn1   O5    2.004020 S    
C25   C26   1.397068 A    
O1    Zn1   2.002476 S    
O2    Zn2   2.004744 S    
C44   H26   1.112530 S    
C44   N4    1.493644 S    
O6    C3    1.281694 A    
O4    Zn2   1.997205 S    
C50   H43   1.110514 S    
C5    O9    1.349864 S    
C9    C16   1.401900 A    
C26   C27   1.403155 A    
C4    C27   1.457698 S    
C48   C49   1.539664 S    
C8    C9    1.410974 A    
C8    C13   1.405844 A    
O8    C4    1.294114 A    
C35   C36   1.548865 S    
C42   N4    1.503965 S    
O4    C2    1.294716 A    
C16   H3    1.083211 S    
H18   C35   1.113537 S    
C31   C33   1.535024 S    
C46   H33   1.105718 S    
C48   H39   1.107238 S    
C1    C36   1.447167 S    
C47   H37   1.111185 S    
H17   C35   1.113704 S    
N6    O18   1.301627 A    
N7    O20   1.301572 A    
C50   H44   1.110979 S    
C41   H29   1.113952 S    
C33   H15   1.113558 S    
Zn2   O6    2.001751 S    
C27   C28   1.399972 A    
C47   H35   1.110810 S    
C6    O10   1.350179 S    
C11   C12   1.420157 A    
C39   H23   1.113911 S    
C41   N3    1.504696 S    
N8    O21   1.301167 A    
