data_mof_unit_1540.cif
_audit_creation_date              2012-12-11T16:06:25-0500
_audit_creation_method            fapswitch 2.2
_symmetry_space_group_name_H-M    P1
_symmetry_Int_Tables_number       1
_space_group_crystal_system       triclinic
_cell_length_a                    7.195957
_cell_length_b                    14.556888
_cell_length_c                    15.742995
_cell_angle_alpha                 89.99976
_cell_angle_beta                  89.999873
_cell_angle_gamma                 89.999099
_cell_volume                      1649.09037745

loop_
_atom_site_label
_atom_site_type_symbol
_atom_type_description
_atom_site_fract_x
_atom_site_fract_y
_atom_site_fract_z
_atom_type_partial_charge
O1    O     O_R   0.388780 0.834790 0.412340 -0.539082
O2    O     O_R   0.111220 0.165210 0.912340 -0.539078
O3    O     O_R   0.888780 0.665210 0.587660 -0.539067
O4    O     O_R   0.611220 0.334790 0.087660 -0.539058
O5    O     O_R   0.059040 0.845930 0.587040 -0.543074
O6    O     O_R   0.440960 0.154070 0.087040 -0.543060
O7    O     O_R   0.559040 0.654070 0.412960 -0.543151
O8    O     O_R   0.940960 0.345930 0.912960 -0.543141
C1    C     C_R   0.228301 0.866870 0.616294 0.738185
C2    C     C_R   0.271699 0.133125 0.116289 0.738212
C3    C     C_R   0.728294 0.633149 0.383692 0.738150
C4    C     C_R   0.771706 0.366855 0.883695 0.738141
O9    O     O_R   0.059070 0.845930 0.412970 -0.534869
O10   O     O_R   0.440930 0.154070 0.912970 -0.534872
O11   O     O_R   0.559070 0.654070 0.587030 -0.534820
O12   O     O_R   0.940930 0.345930 0.087030 -0.534826
O13   O     O_R   0.888760 0.665210 0.412340 -0.516278
O14   O     O_R   0.611240 0.334790 0.912340 -0.516278
O15   O     O_R   0.388760 0.834790 0.587660 -0.516036
O16   O     O_R   0.111240 0.165210 0.087660 -0.516048
C5    C     C_R   0.227679 0.868108 0.384831 0.724293
C6    C     C_R   0.272320 0.131887 0.884835 0.724238
C7    C     C_R   0.727682 0.631875 0.615154 0.724304
C8    C     C_R   0.772316 0.368130 0.115150 0.724241
O17   O     O_3   0.222280 0.690700 0.500000 -0.376315
O18   O     O_3   0.277720 0.309300 0.000000 -0.376314
O19   O     O_3   0.722280 0.809300 0.500000 -0.376153
O20   O     O_3   0.777720 0.190700 0.000000 -0.376160
V1    V     V_3+5 0.947430 0.761000 0.500000 1.518343
V2    V     V_3+5 0.552570 0.239000 0.000000 1.518348
V3    V     V_3+5 0.447430 0.739000 0.500000 1.518394
V4    V     V_3+5 0.052570 0.261000 0.000000 1.518388
C9    C     C_3   0.830313 0.601665 0.766609 -0.267912
C10   C     C_3   0.669840 0.398312 0.266633 -0.267902
C11   C     C_3   0.331497 0.898485 0.233555 -0.267477
C12   C     C_3   0.168698 0.101545 0.733526 -0.267497
H1    H     H_    0.975271 0.622301 0.751392 0.208073
H2    H     H_    0.524892 0.377592 0.251450 0.208160
H3    H     H_    0.476619 0.878310 0.249050 0.207759
H4    H     H_    0.023609 0.121834 0.748981 0.207867
H5    H     H_    0.754462 0.664391 0.787193 0.229970
H6    H     H_    0.745857 0.335623 0.287221 0.229940
H7    H     H_    0.256614 0.835497 0.212878 0.230292
H8    H     H_    0.243803 0.164473 0.712842 0.230251
C13   C     C_3   0.833553 0.530776 0.840551 -0.507185
C14   C     C_3   0.666523 0.469223 0.340555 -0.507217
C15   C     C_3   0.334489 0.969317 0.159567 -0.507130
C16   C     C_3   0.165576 0.030685 0.659561 -0.507054
H9    H     H_    0.748179 0.556905 0.894334 0.178937
H10   H     H_    0.751889 0.443126 0.394351 0.178922
H11   H     H_    0.249602 0.942970 0.105718 0.178999
H12   H     H_    0.250430 0.056999 0.605682 0.178956
H13   H     H_    0.978398 0.523775 0.864526 0.189456
H14   H     H_    0.521668 0.476204 0.364513 0.189457
H15   H     H_    0.479388 0.976590 0.135742 0.189634
H16   H     H_    0.020636 0.023433 0.635772 0.189628
H17   H     H_    0.991100 0.497358 0.633873 0.140758
H18   H     H_    0.508675 0.502566 0.133958 0.140760
H19   H     H_    0.489916 0.003240 0.366690 0.140684
H20   H     H_    0.009811 0.996861 0.866567 0.140696
H21   H     H_    0.028005 0.409739 0.752028 0.136933
H22   H     H_    0.471950 0.590270 0.252068 0.136901
H23   H     H_    0.527302 0.090649 0.248399 0.137515
H24   H     H_    0.972638 0.909307 0.748362 0.137503
C17   C     C_3   0.852281 0.475477 0.657557 -0.355513
C18   C     C_3   0.647550 0.524498 0.157570 -0.355442
C19   C     C_3   0.351163 0.024781 0.342621 -0.355714
C20   C     C_3   0.148628 0.975256 0.842601 -0.355657
C21   C     C_3   0.540691 0.526465 0.711244 -0.336764
C22   C     C_3   0.959314 0.473616 0.211174 -0.336702
C23   C     C_3   0.040556 0.973009 0.288306 -0.336645
C24   C     C_3   0.459442 0.026893 0.788390 -0.336595
C25   C     C_3   0.737561 0.560578 0.685995 -0.051219
C26   C     C_3   0.762436 0.439431 0.185987 -0.051162
C27   C     C_3   0.237546 0.939388 0.313977 -0.051130
C28   C     C_3   0.262451 0.060602 0.813985 -0.051092
H25   H     H_    0.468884 0.498654 0.654162 0.190492
H26   H     H_    0.030971 0.501492 0.154062 0.190497
H27   H     H_    0.967755 0.000577 0.345245 0.190461
H28   H     H_    0.532035 0.999238 0.845360 0.190481
H29   H     H_    0.455842 0.585419 0.734253 0.169462
H30   H     H_    0.044334 0.414681 0.234134 0.169373
H31   H     H_    0.956619 0.913832 0.265043 0.169896
H32   H     H_    0.543593 0.086040 0.765201 0.169794
C29   C     C_3   0.758087 0.435942 0.810708 -0.053186
C30   C     C_3   0.741914 0.564067 0.310701 -0.053207
C31   C     C_3   0.258053 0.064023 0.189264 -0.053214
C32   C     C_3   0.241948 0.935967 0.689272 -0.053227
C33   C     C_3   0.879444 0.407055 0.732601 0.320499
C34   C     C_3   0.620489 0.592937 0.232610 0.320454
C35   C     C_3   0.378577 0.093159 0.267562 0.320371
C36   C     C_3   0.121356 0.906840 0.767559 0.320257
C37   C     C_3   0.551014 0.452746 0.781910 0.302455
C38   C     C_3   0.948979 0.547294 0.281874 0.302545
C39   C     C_3   0.050882 0.046835 0.217736 0.302213
C40   C     C_3   0.449123 0.953125 0.717770 0.302314
H33   H     H_    0.471097 0.478840 0.837480 0.090440
H34   H     H_    0.028910 0.521173 0.337426 0.090442
H35   H     H_    0.971532 0.020687 0.162023 0.090438
H36   H     H_    0.528481 0.979321 0.662074 0.090434
H37   H     H_    0.780116 0.441405 0.603567 0.195477
H38   H     H_    0.719555 0.558577 0.103524 0.195397
H39   H     H_    0.277998 0.058773 0.396392 0.195713
H40   H     H_    0.221571 0.941266 0.896446 0.195600
Cl1   Cl    Cl    0.430568 0.350836 0.747964 -0.633086
Cl2   Cl    Cl    0.069398 0.649222 0.247972 -0.633101
Cl3   Cl    Cl    0.929534 0.148497 0.251641 -0.633434
Cl4   Cl    Cl    0.570493 0.851437 0.751613 -0.633454
Cl5   Cl    Cl    0.842350 0.291096 0.698361 -0.619995
Cl6   Cl    Cl    0.657596 0.708879 0.198341 -0.619978
Cl7   Cl    Cl    0.340568 0.209100 0.301632 -0.620139
Cl8   Cl    Cl    0.159454 0.790915 0.801680 -0.620080

loop_
_geom_bond_atom_site_label_1
_geom_bond_atom_site_label_2
_ccdc_geom_bond_type
O17   V3    S    
C32   C40   S    
O1    C5    A    
C31   C35   S    
O19   V1    S    
C9    C13   S    
C18   H38   S    
C21   H25   S    
C10   H6    S    
C17   H37   S    
C24   C28   S    
C11   C15   S    
C23   H27   S    
C19   H39   S    
C18   C34   S    
O7    C3    A    
C11   C27   S    
C4    C29   S    
O9    V1    S    
C22   H26   S    
C22   C38   S    
O10   V2    S    
C21   C37   S    
C1    C32   S    
O4    C8    A    
C39   H35   S    
C23   C39   S    
C38   H34   S    
C3    C30   S    
C18   C26   S    
C33   Cl5   S    
O1    V3    S    
O13   V1    S    
O2    V4    S    
C1    O15   A    
C35   Cl7   S    
O3    V1    S    
C22   C26   S    
C30   C38   S    
C37   Cl1   S    
C29   C37   S    
H18   C18   S    
C38   Cl2   S    
C32   C36   S    
C2    O16   A    
C12   C28   S    
O2    C6    A    
C16   C32   S    
C21   C25   S    
C10   C14   S    
C6    C28   S    
C11   H7    S    
C23   H31   S    
H19   C19   S    
O11   C7    A    
C40   Cl4   S    
O15   V3    S    
O12   C8    A    
C7    C25   S    
H21   C33   S    
O5    V1    S    
C2    C31   S    
O7    V3    S    
O8    V4    S    
C12   H4    S    
C30   C34   S    
C17   C25   S    
C29   C33   S    
O18   V4    S    
C36   Cl8   S    
C15   H11   S    
O3    C7    A    
C9    H1    S    
C31   C39   S    
C15   C31   S    
C11   H3    S    
O5    C1    A    
C13   H9    S    
O8    C4    A    
C14   H14   S    
C19   C35   S    
O9    C5    A    
C24   H32   S    
C39   Cl3   S    
C10   C26   S    
O14   V2    S    
C9    C25   S    
O6    V2    S    
C12   H8    S    
C20   C28   S    
H24   C36   S    
H23   C35   S    
C37   H33   S    
C15   H15   S    
O16   V4    S    
C16   H16   S    
C5    C27   S    
C3    O13   A    
C10   H2    S    
C20   H40   S    
H17   C17   S    
O6    C2    A    
O11   V3    S    
C17   C33   S    
O12   V4    S    
C14   H10   S    
C13   C29   S    
C9    H5    S    
O10   C6    A    
O20   V2    S    
H22   C34   S    
C24   H28   S    
C23   C27   S    
C8    C26   S    
C40   H36   S    
C20   C36   S    
C12   C16   S    
C22   H30   S    
C21   H29   S    
C13   H13   S    
C24   C40   S    
C16   H12   S    
C19   C27   S    
H20   C20   S    
C4    O14   A    
C34   Cl6   S    
O4    V2    S    
C14   C30   S    
