data_mof_unit_930.cif
_audit_creation_date              2012-12-11T14:58:21-0500
_audit_creation_method            fapswitch 2.2
_symmetry_space_group_name_H-M    P1
_symmetry_Int_Tables_number       1
_space_group_crystal_system       triclinic
_cell_length_a                    10.996897
_cell_length_b                    11.020109
_cell_length_c                    18.771048
_cell_angle_alpha                 90.249196
_cell_angle_beta                  90.445693
_cell_angle_gamma                 59.216891
_cell_volume                      1954.25203428

loop_
_atom_site_label
_atom_site_type_symbol
_atom_type_description
_atom_site_fract_x
_atom_site_fract_y
_atom_site_fract_z
_atom_type_partial_charge
C1    C     C_R   0.358495 0.773302 0.398157 0.537343
C2    C     C_R   0.211818 0.390246 0.212458 -0.168034
C3    C     C_R   0.219455 0.415817 0.284362 -0.040003
C4    C     C_R   0.379839 0.349026 0.391503 0.541760
C5    C     C_R   0.891594 0.796145 0.381484 -0.144727
C6    C     C_R   0.920983 0.664519 0.405982 -0.107046
C7    C     C_R   0.026660 0.541213 0.373699 -0.074430
C8    C     C_R   0.103771 0.548339 0.316075 0.059509
C9    C     C_R   0.338285 0.315651 0.323509 -0.001156
C10   C     C_R   0.954112 0.293272 0.307946 -0.169846
C11   C     C_R   0.983468 0.283825 0.235867 -0.147260
C12   C     C_R   0.592334 0.071114 0.187041 0.058511
C13   C     C_R   0.873397 0.336382 0.185564 0.029467
C14   C     C_R   0.732646 0.411136 0.206764 -0.123769
C15   C     C_R   0.702807 0.423098 0.279095 -0.090229
C16   C     C_R   0.776847 0.379368 0.403082 0.529146
C17   C     C_R   0.813716 0.360501 0.329226 0.041748
C18   C     C_R   0.472803 0.767921 0.285915 -0.141823
C19   C     C_R   0.460829 0.783590 0.212527 -0.174982
C20   C     C_R   0.328935 0.875216 0.182620 0.028829
C21   C     C_R   0.209811 0.947227 0.226756 -0.105715
C22   C     C_R   0.219654 0.923952 0.299041 -0.125399
C23   C     C_R   0.326522 0.276945 0.177376 -0.004763
C24   C     C_R   0.350440 0.830224 0.328340 0.030520
C25   C     C_R   0.370339 0.204242 0.692831 -0.142139
C26   C     C_R   0.357283 0.189924 0.764720 -0.123886
C27   C     C_R   0.299184 0.309013 0.809578 0.028405
C28   C     C_R   0.344865 0.768332 0.604775 0.542187
C29   C     C_R   0.244241 0.443987 0.781748 -0.160982
C30   C     C_R   0.257281 0.458515 0.709454 -0.141713
C31   C     C_R   0.324311 0.337927 0.665453 0.024824
C32   C     C_R   0.917384 0.386464 0.706387 0.096893
C33   C     C_R   0.952621 0.367804 0.778468 -0.113180
C34   C     C_R   0.440260 0.189793 0.290775 -0.123411
C35   C     C_R   0.921494 0.283405 0.820865 0.002002
C36   C     C_R   0.864784 0.207206 0.789746 -0.145264
C37   C     C_R   0.826373 0.227056 0.717980 -0.166964
C38   C     C_R   0.845575 0.322207 0.676824 0.051373
C39   C     C_R   0.195086 0.851428 0.711071 -0.143178
C40   C     C_R   0.369263 0.351411 0.595721 0.540702
C41   C     C_R   0.184785 0.862676 0.784262 -0.139158
C42   C     C_R   0.300179 0.844448 0.825144 0.031712
C43   C     C_R   0.427362 0.811025 0.792166 -0.141870
C44   C     C_R   0.438201 0.798452 0.718829 -0.140973
C45   C     C_R   0.449595 0.178668 0.217420 -0.001749
C46   C     C_R   0.322460 0.817136 0.677925 0.025191
C47   C     C_R   0.910823 0.316846 0.111647 0.539119
C48   C     C_R   0.305058 0.257636 0.102036 0.555756
C49   C     C_R   0.305321 0.902596 0.106614 0.530179
C50   C     C_R   0.948073 0.280308 0.897295 0.565760
C51   C     C_R   0.293638 0.286218 0.884474 0.550307
C52   C     C_R   0.769032 0.373407 0.609003 0.560262
C53   C     C_R   0.275661 0.893945 0.898026 0.542875
C54   C     C_R   0.847126 0.881896 0.116331 -0.066871
C55   C     C_R   0.841337 0.984415 0.161826 -0.107495
C56   C     C_R   0.074173 0.682354 0.291787 0.146631
C57   C     C_R   0.717370 0.074476 0.200376 0.110146
C58   C     C_R   0.968781 0.804698 0.325126 -0.045164
C59   C     C_R   0.608032 0.955718 0.148983 -0.078243
C60   C     C_R   0.731449 0.863773 0.111463 0.090621
Cr1   Cr    Cr6+3 0.601770 0.606860 0.505860 1.007562
Cr2   Cr    Cr6+3 0.291380 0.601660 0.495070 1.021019
Cr3   Cr    Cr6+3 0.606880 0.291510 0.499120 1.004134
Cr4   Cr    Cr6+3 0.062440 0.063090 0.008210 1.007372
Cr5   Cr    Cr6+3 0.062880 0.375170 0.998920 1.022930
Cr6   Cr    Cr6+3 0.374700 0.061720 0.992470 0.997361
H1    H     H_    0.524539 0.106241 0.321949 0.132352
H2    H     H_    0.421868 0.111022 0.659377 0.122593
H3    H     H_    0.395491 0.084997 0.785636 0.140754
H4    H     H_    0.222161 0.563068 0.688804 0.146663
H5    H     H_    0.000160 0.423411 0.802247 0.132159
H6    H     H_    0.842796 0.138872 0.821461 0.140501
H7    H     H_    0.772691 0.175663 0.696166 0.139552
H8    H     H_    0.948292 0.906773 0.307932 0.110120
H9    H     H_    0.084351 0.891526 0.808379 0.132611
H10   H     H_    0.516791 0.798863 0.822868 0.133642
H11   H     H_    0.943456 0.812741 0.087597 0.137920
H12   H     H_    0.863205 0.658104 0.450773 0.138849
H13   H     H_    0.935287 0.990159 0.168712 0.137592
H14   H     H_    0.522851 0.939771 0.149830 0.146429
H15   H     H_    0.115660 0.461653 0.183550 0.152434
H16   H     H_    0.810430 0.891630 0.406870 0.103354
H17   H     H_    0.647358 0.455140 0.167923 0.118573
H18   H     H_    0.725275 0.684840 0.100430 0.236089
H19   H     H_    0.656748 0.797832 0.030923 0.245605
H20   H     H_    0.125052 0.973480 0.331320 0.112325
H21   H     H_    0.196564 0.536246 0.815919 0.123980
H22   H     H_    0.977303 0.534337 0.696177 0.223826
H23   H     H_    0.050760 0.440116 0.394813 0.102245
H24   H     H_    0.033445 0.410747 0.631462 0.227740
H25   H     H_    0.104773 0.864869 0.680732 0.130964
H26   H     H_    0.538633 0.769371 0.694604 0.148408
H27   H     H_    0.824960 0.143199 0.258906 0.221282
H28   H     H_    0.713699 0.118711 0.304621 0.226751
H29   H     H_    0.133280 0.662296 0.188160 0.229406
H30   H     H_    0.261832 0.634310 0.248114 0.251075
H31   H     H_    0.039760 0.247837 0.346530 0.096997
H32   H     H_    0.092418 0.232310 0.218925 0.109876
H33   H     H_    0.593490 0.475186 0.296073 0.128310
H34   H     H_    0.576193 0.698614 0.308899 0.148444
H35   H     H_    0.553115 0.724563 0.179679 0.099190
H36   H     H_    0.107001 0.017981 0.204636 0.130031
N1    N     N_3   0.739792 0.752973 0.067960 -0.613894
N2    N     N_3   0.947604 0.476102 0.664002 -0.601561
N3    N     N_3   0.722829 0.159650 0.256346 -0.613168
N4    N     N_3   0.153994 0.696949 0.236037 -0.636385
O1    O     O_R   0.748800 0.497470 0.428000 -0.535176
O2    O     O_R   0.417600 0.174890 0.067840 -0.502896
O3    O     O_R   0.375320 0.946260 0.070860 -0.545188
O4    O     O_R   0.476420 0.724060 0.429470 -0.515012
O5    O     O_R   0.160600 0.919630 0.926660 -0.525948
O6    O     O_R   0.933060 0.190520 0.936020 -0.496334
O7    O     O_R   0.908880 0.403460 0.925020 -0.505723
O8    O     O_R   0.179600 0.361450 0.918490 -0.519715
O9    O     O_R   0.391510 0.170860 0.907530 -0.512858
O10   O     O_R   0.351130 0.942530 0.922260 -0.514354
O11   O     O_3   0.166667 0.166667 0.999870 -0.295268
O12   O     O_R   0.300070 0.471040 0.567100 -0.511850
O13   O     O_R   0.264580 0.744340 0.416750 -0.504506
O14   O     O_R   0.309380 0.472470 0.418200 -0.491505
O15   O     O_R   0.501710 0.260430 0.414300 -0.533231
O16   O     O_R   0.728090 0.305600 0.428960 -0.501563
O17   O     O_R   0.738760 0.495930 0.588610 -0.478488
O18   O     O_R   0.467110 0.722640 0.578360 -0.506200
O19   O     O_R   0.254530 0.742800 0.577360 -0.529440
O20   O     O_R   0.491670 0.258900 0.574910 -0.519171
O21   O     O_R   0.718780 0.304180 0.577850 -0.515503
O22   O     O_3   0.500010 0.500010 0.500020 -0.247657
O23   O     O_R   0.186690 0.923650 0.086970 -0.518148
O24   O     O_R   0.957250 0.194250 0.084630 -0.505464
O25   O     O_R   0.934970 0.407490 0.085330 -0.515944
O26   O     O_R   0.203780 0.365190 0.067090 -0.497235

loop_
_geom_bond_atom_site_label_1
_geom_bond_atom_site_label_2
_ccdc_geom_bond_type
C25   C31   A    
C57   N3    S    
H28   N3    S    
C23   C45   A    
C27   C29   A    
C19   H35   S    
Cr5   O8    S    
C40   O12   A    
C35   C36   A    
C8    C56   A    
C7    C8    A    
C39   C41   A    
C54   C60   A    
C28   C46   S    
C26   C27   A    
C37   C38   A    
Cr6   O10   S    
C5    C58   A    
C11   H32   S    
C18   C24   A    
H18   N1    S    
C36   C37   A    
C42   C53   S    
C1    O13   A    
C30   C31   A    
C52   O17   A    
C6    H12   S    
C38   C52   S    
C10   C17   A    
C7    H23   S    
C31   C40   S    
C18   C19   A    
C41   C42   A    
C16   O16   A    
C37   H7    S    
C16   O1    A    
C30   H4    S    
C12   C59   A    
C19   C20   A    
C27   C51   S    
C16   C17   S    
Cr6   O11   S    
C32   N2    S    
C32   C38   A    
C60   N1    S    
Cr2   O14   S    
Cr3   O22   S    
H19   N1    S    
C53   O10   A    
C54   H11   S    
H27   N3    S    
C53   O5    A    
C59   C60   A    
C13   C14   A    
C25   H2    S    
C18   H34   S    
C14   H17   S    
Cr1   O4    S    
C39   H25   S    
Cr5   O25   S    
C52   O21   A    
C44   C46   A    
C51   O8    A    
Cr2   O12   S    
Cr6   O9    S    
C56   N4    S    
C47   O24   A    
C3    C8    S    
C15   H33   S    
C13   C47   S    
Cr4   O5    S    
C25   C26   A    
C49   O23   A    
C51   O9    A    
Cr4   O11   S    
C47   O25   A    
C59   H14   S    
C10   H31   S    
C43   C44   A    
C20   C49   S    
C3    C9    A    
H29   N4    S    
C1    O4    A    
C41   H9    S    
C55   H13   S    
C40   O20   A    
C35   C50   S    
C50   O6    A    
Cr3   O15   S    
C34   C45   A    
Cr4   O23   S    
H24   N2    S    
Cr2   O13   S    
C48   O2    A    
C39   C46   A    
C21   H36   S    
Cr4   O24   S    
Cr1   O18   S    
C9    C34   A    
C22   C24   A    
C42   C43   A    
C12   C57   A    
Cr3   O16   S    
Cr5   O26   S    
C28   O19   A    
C58   H8    S    
C49   O3    A    
C43   H10   S    
C15   C17   A    
H30   N4    S    
C54   C55   A    
C23   C48   S    
Cr5   O7    S    
C4    O14   A    
Cr6   O2    S    
C12   C45   S    
C44   H26   S    
C34   H1    S    
Cr2   O19   S    
C28   O18   A    
C6    C7    A    
Cr1   O17   S    
C50   O7    A    
C32   C33   A    
C55   C57   A    
C2    C3    A    
Cr2   O22   S    
C5    H16   S    
C11   C13   A    
C5    C6    A    
C33   C35   A    
C56   C58   A    
C4    O15   A    
Cr1   O22   S    
C22   H20   S    
Cr6   O3    S    
Cr1   O1    S    
C29   H21   S    
Cr3   O20   S    
Cr4   O6    S    
C10   C11   A    
C33   H5    S    
C29   C30   A    
C20   C21   A    
C1    C24   S    
C2    C23   A    
C26   H3    S    
Cr5   O11   S    
C14   C15   A    
C48   O26   A    
C2    H15   S    
C4    C9    S    
C21   C22   A    
H22   N2    S    
Cr3   O21   S    
C36   H6    S    
