data_mof_unit_886.cif
_audit_creation_date              2012-12-11T15:39:18-0500
_audit_creation_method            fapswitch 2.2
_symmetry_space_group_name_H-M    P1
_symmetry_Int_Tables_number       1
_space_group_crystal_system       triclinic
_cell_length_a                    14.338907
_cell_length_b                    14.77299
_cell_length_c                    33.202809
_cell_angle_alpha                 97.433659
_cell_angle_beta                  90.427738
_cell_angle_gamma                 118.941775
_cell_volume                      6083.26428188

loop_
_atom_site_label
_atom_site_type_symbol
_atom_type_description
_atom_site_fract_x
_atom_site_fract_y
_atom_site_fract_z
_atom_type_partial_charge
C1    C     C_R   0.617125 0.909748 0.437017 0.577755
C2    C     C_R   0.743783 0.426437 0.188104 0.028505
C3    C     C_R   0.710674 0.879997 0.653299 -0.093309
C4    C     C_R   0.641309 0.773807 0.655323 0.017074
C5    C     C_R   0.634797 0.857923 0.584814 0.020986
C6    C     C_R   0.052875 0.781564 0.063805 0.541196
C7    C     C_R   0.744070 0.486939 0.066278 0.545510
C8    C     C_R   0.742506 0.789412 0.066343 0.587056
C9    C     C_R   0.020515 0.731360 0.946868 0.528925
C10   C     C_R   0.712081 0.437617 0.949263 0.533971
C11   C     C_R   0.739049 0.719383 0.944833 0.545627
C12   C     C_R   0.831148 0.441987 0.165508 -0.113823
C13   C     C_R   0.828645 0.454474 0.124667 -0.117900
C14   C     C_R   0.782971 0.358163 0.246999 -0.101347
C15   C     C_R   0.775660 0.345419 0.287902 -0.100526
C16   C     C_R   0.734698 0.397443 0.314360 0.027506
C17   C     C_R   0.707122 0.467076 0.299809 -0.107656
C18   C     C_R   0.713932 0.479365 0.258891 -0.105819
C19   C     C_R   0.748798 0.422533 0.232009 0.026994
C20   C     C_R   0.607584 0.346745 0.368509 -0.110205
C21   C     C_R   0.594100 0.205730 0.456646 0.543286
C22   C     C_R   0.572760 0.299464 0.403138 -0.119715
C23   C     C_R   0.741325 0.301319 0.413310 -0.121666
C24   C     C_R   0.776216 0.348857 0.378731 -0.116446
C25   C     C_R   0.708052 0.368304 0.355208 0.029715
C26   C     C_R   0.637731 0.272631 0.424892 0.019286
C27   C     C_R   0.243432 0.878664 0.393751 -0.009145
C28   C     C_R   0.229129 0.959638 0.381916 -0.121275
C29   C     C_R   0.205152 0.959577 0.340707 0.261188
C30   C     C_R   0.194793 0.877050 0.311483 0.079537
C31   C     C_R   0.201227 0.792713 0.323501 -0.158645
C32   C     C_R   0.295177 0.892804 0.434499 0.554908
C33   C     C_R   0.224862 0.793148 0.364367 -0.126506
C34   C     C_R   0.178013 0.790140 0.164736 -0.008474
C35   C     C_R   0.151364 0.770317 0.122877 -0.134426
C36   C     C_R   0.118823 0.918053 0.128060 -0.031311
C37   C     C_R   0.145253 0.937535 0.170249 -0.120085
C38   C     C_R   0.169899 0.871029 0.188821 0.006075
C39   C     C_1   0.179001 0.880451 0.232546 0.012467
C40   C     C_1   0.185182 0.881007 0.268734 0.065551
C41   C     C_R   0.114265 0.828831 0.104330 -0.010386
C42   C     C_R   0.637494 0.877286 0.395125 -0.001267
C43   C     C_R   0.614048 0.904320 0.551378 0.539956
C44   C     C_R   0.549283 0.811569 0.366296 0.205115
C45   C     C_R   0.565039 0.807144 0.324348 -0.060924
C46   C     C_R   0.668306 0.864085 0.311683 0.012688
C47   C     C_R   0.757853 0.917902 0.339944 0.224736
C48   C     C_R   0.742622 0.923555 0.382107 -0.072535
C49   C     C_R   0.758750 0.941681 0.170444 0.253613
C50   C     C_R   0.772854 0.923230 0.128299 0.233146
C51   C     C_R   0.636705 0.740519 0.125939 -0.186219
C52   C     C_R   0.627166 0.758046 0.167254 -0.181600
C53   C     C_R   0.691123 0.856582 0.189715 0.045940
C54   C     C_R   0.589749 0.199344 0.570888 0.541957
C55   C     C_1   0.688264 0.866712 0.233001 0.077396
C56   C     C_1   0.682151 0.868012 0.269019 0.080108
C57   C     C_R   0.713623 0.820505 0.106475 0.029128
C58   C     C_R   0.623576 0.250263 0.613710 0.004139
C59   C     C_R   0.563439 0.289244 0.635447 -0.131023
C60   C     C_R   0.579698 0.315119 0.677951 -0.000740
C61   C     C_R   0.656643 0.301548 0.698968 0.023552
C62   C     C_R   0.721646 0.269934 0.677179 -0.125770
C63   C     C_R   0.705745 0.244985 0.634845 -0.133014
C64   C     C_R   0.760805 0.342628 0.845342 -0.106438
C65   C     C_R   0.288738 0.886595 0.548462 0.544350
C66   C     C_R   0.769852 0.367784 0.887719 -0.115993
C67   C     C_R   0.593204 0.351271 0.884955 -0.127789
C68   C     C_R   0.584306 0.326103 0.842618 -0.109485
C69   C     C_R   0.669717 0.325770 0.822713 0.036814
C70   C     C_1   0.667089 0.316825 0.779166 -0.013869
C71   C     C_1   0.663830 0.310981 0.742680 -0.012027
C72   C     C_R   0.688457 0.377798 0.907751 0.016627
C73   C     C_R   0.062429 0.750721 0.906481 0.001892
C74   C     C_R   0.078656 0.842768 0.892512 -0.133166
C75   C     C_R   0.090800 0.853133 0.851567 -0.119136
C76   C     C_R   0.738466 0.451086 0.105943 0.020887
C77   C     C_R   0.088979 0.772365 0.823946 0.010267
C78   C     C_R   0.080614 0.683528 0.837893 -0.103972
C79   C     C_R   0.069567 0.672745 0.878956 -0.011946
C80   C     C_R   0.173862 0.770206 0.758407 -0.014571
C81   C     C_R   0.176942 0.778104 0.717155 -0.143210
C82   C     C_R   0.102325 0.795801 0.697049 0.002471
C83   C     C_R   0.021082 0.803790 0.718548 0.263546
C84   C     C_R   0.018864 0.796455 0.760100 -0.058941
C85   C     C_R   0.094725 0.780113 0.780259 -0.037228
C86   C     C_R   0.165872 0.917411 0.645321 -0.006018
C87   C     C_R   0.648567 0.428556 0.128017 -0.120985
C88   C     C_R   0.213912 0.939054 0.608760 -0.129405
C89   C     C_R   0.163962 0.756250 0.589821 -0.126709
C90   C     C_R   0.115007 0.734011 0.625959 -0.139037
C91   C     C_R   0.120133 0.814833 0.654735 -0.004503
C92   C     C_R   0.218295 0.859721 0.581932 0.009566
C93   C     C_R   0.711799 0.710066 0.900448 0.003028
C94   C     C_R   0.625899 0.616710 0.879707 -0.134875
C95   C     C_R   0.601064 0.605290 0.837743 -0.090521
C96   C     C_R   0.663019 0.686466 0.815845 0.052517
C97   C     C_R   0.750409 0.777488 0.835642 -0.093104
C98   C     C_R   0.651408 0.416693 0.168786 -0.115727
C99   C     C_R   0.775140 0.790928 0.877322 -0.012301
C100  C     C_R   0.588039 0.749895 0.766163 0.319431
C101  C     C_R   0.582784 0.772836 0.726484 0.248846
C102  C     C_R   0.627816 0.735857 0.694945 -0.008876
C103  C     C_R   0.666711 0.668376 0.702362 -0.120488
C104  C     C_R   0.668905 0.643655 0.741412 -0.150957
C105  C     C_R   0.632325 0.686268 0.773473 0.025067
C106  C     C_R   0.574473 0.708232 0.621010 -0.128606
C107  C     C_R   0.570929 0.750054 0.586023 -0.123511
C108  C     C_R   0.707933 0.921802 0.618148 -0.125866
Cr1   Cr    Cr6+3 0.424820 0.846020 0.489780 1.057298
Cr2   Cr    Cr6+3 0.657880 0.078580 0.505700 1.034307
Cr3   Cr    Cr6+3 0.417280 0.075360 0.504550 1.022276
Cr4   Cr    Cr6+3 0.903360 0.812540 0.006510 1.088484
Cr5   Cr    Cr6+3 0.914630 0.587050 0.006280 1.039079
Cr6   Cr    Cr6+3 0.673560 0.582680 0.008540 1.025870
H1    H     H_    0.577795 0.425082 0.114419 0.136861
H2    H     H_    0.492673 0.278528 0.411427 0.133806
H3    H     H_    0.902975 0.449258 0.179915 0.122989
H4    H     H_    0.793709 0.282776 0.429858 0.134503
H5    H     H_    0.152382 0.703689 0.105266 0.145493
H6    H     H_    0.192580 0.728549 0.300969 0.146125
H7    H     H_    0.234708 0.729481 0.372524 0.161602
H8    H     H_    0.242386 0.025787 0.404296 0.119136
H9    H     H_    0.142700 0.002204 0.188851 0.142918
H10   H     H_    0.899277 0.472066 0.108445 0.137433
H11   H     H_    0.572582 0.693148 0.182088 0.139346
H12   H     H_    0.589157 0.661430 0.110016 0.154869
H13   H     H_    0.843588 0.386669 0.904448 0.161164
H14   H     H_    0.854655 0.366309 0.369380 0.115307
H15   H     H_    0.827040 0.341737 0.830150 0.127344
H16   H     H_    0.781479 0.259821 0.693075 0.122783
H17   H     H_    0.753331 0.215124 0.619017 0.134201
H18   H     H_    0.500340 0.294653 0.619600 0.133901
H19   H     H_    0.513190 0.312526 0.825290 0.129753
H20   H     H_    0.528797 0.357803 0.899381 0.135222
H21   H     H_    0.077457 0.905273 0.913037 0.159699
H22   H     H_    0.080626 0.655053 0.633014 0.120961
H23   H     H_    0.796047 0.290098 0.298215 0.127369
H24   H     H_    0.239995 0.773485 0.700678 0.139733
H25   H     H_    0.099437 0.923251 0.841257 0.134849
H26   H     H_    0.956872 0.802598 0.776731 0.132804
H27   H     H_    0.254684 0.019202 0.602763 0.135571
H28   H     H_    0.080231 0.621321 0.816457 0.122115
H29   H     H_    0.164795 0.693493 0.569250 0.135012
H30   H     H_    0.577113 0.552882 0.896028 0.135748
H31   H     H_    0.809900 0.313568 0.226677 0.125902
H32   H     H_    0.762546 0.931508 0.679760 0.148383
H33   H     H_    0.532549 0.534528 0.822623 0.134776
H34   H     H_    0.700537 0.639283 0.678364 0.145180
H35   H     H_    0.705649 0.597004 0.747221 0.132251
H36   H     H_    0.520324 0.626282 0.622227 0.121651
H37   H     H_    0.514343 0.698850 0.560608 0.126554
H38   H     H_    0.797417 0.840391 0.818461 0.122349
H39   H     H_    0.582202 0.402217 0.185544 0.117458
H40   H     H_    0.757660 0.005070 0.618110 0.128654
H41   H     H_    0.676855 0.509165 0.319773 0.112519
H42   H     H_    0.689416 0.531261 0.247968 0.114364
H43   H     H_    0.552953 0.359945 0.350683 0.117917
O1    O     O_R   0.318160 0.824460 0.443680 -0.482943
O2    O     O_R   0.645130 0.163230 0.552140 -0.502879
O3    O     O_R   0.498360 0.178430 0.555780 -0.515970
O4    O     O_R   0.328690 0.978040 0.538950 -0.500982
O5    O     O_3   0.499990 0.999990 0.500010 -0.248253
O6    O     O_R   0.828710 0.851830 0.052170 -0.426494
O7    O     O_R   0.005980 0.823990 0.047210 -0.482103
O8    O     O_R   0.031900 0.688850 0.050170 -0.516648
O9    O     O_R   0.830940 0.518420 0.048680 -0.497360
O10   O     O_R   0.668160 0.499860 0.053480 -0.515802
O11   O     O_R   0.689170 0.693840 0.050110 -0.515717
O12   O     O_R   0.525040 0.857250 0.449830 -0.430519
O13   O     O_R   0.803860 0.812940 0.962540 -0.482913
O14   O     O_R   0.982950 0.787950 0.964120 -0.517962
O15   O     O_R   0.007050 0.649970 0.960540 -0.492796
O16   O     O_R   0.807910 0.482370 0.965590 -0.497180
O17   O     O_R   0.643310 0.460980 0.963840 -0.523184
O18   O     O_R   0.666140 0.657800 0.967020 -0.490960
O19   O     O_3   0.830520 0.660760 0.007110 -0.278443
O20   O     O_R   0.684760 0.998800 0.456360 -0.509260
O21   O     O_R   0.647540 0.166310 0.470260 -0.500726
O22   O     O_R   0.500960 0.181750 0.467450 -0.517670
O23   O     O_R   0.331100 0.981120 0.457080 -0.504262
O24   O     O_R   0.315560 0.821140 0.532010 -0.518545
O25   O     O_R   0.522630 0.854180 0.531710 -0.505491
O26   O     O_R   0.682160 0.995480 0.544690 -0.512595
C109  C     C_1   0.206628 0.721892 0.182638 0.191240
N1    N     N_1   0.229376 0.667139 0.196949 -0.270231
C110  C     C_1   0.095005 0.989506 0.110387 0.230107
N2    N     N_1   0.076728 0.047246 0.096144 -0.247343
O27   O     O_3   0.196090 0.040821 0.328221 -0.682588
H44   H     H_    0.205847 0.092330 0.352467 0.321377
O28   O     O_3   0.845895 0.001543 0.108400 -0.663196
H45   H     H_    0.902506 0.056525 0.128528 0.342426
O29   O     O_3   0.810545 0.039966 0.193513 -0.691488
H46   H     H_    0.820907 0.092337 0.175670 0.326278
O30   O     O_3   0.857762 0.965640 0.324904 -0.665137
H47   H     H_    0.914611 0.004161 0.347353 0.343496
C111  C     C_1   0.834217 0.975662 0.411899 0.208648
N3    N     N_1   0.907409 0.017173 0.435668 -0.292359
O31   O     O_3   0.448445 0.757692 0.379979 -0.674853
H48   H     H_    0.397866 0.702860 0.358197 0.324979
C112  C     C_1   0.474635 0.749396 0.294066 0.172321
N4    N     N_1   0.402600 0.703412 0.269911 -0.278598
C113  C     C_1   0.513382 0.350634 0.699503 0.189887
N5    N     N_1   0.460354 0.379155 0.716797 -0.289033
C114  C     C_1   0.063685 0.579846 0.891136 0.225501
N6    N     N_1   0.059671 0.505569 0.900762 -0.288865
C115  C     C_1   0.255057 0.755707 0.777882 0.214422
N7    N     N_1   0.319659 0.743636 0.793571 -0.236627
O32   O     O_3   0.943465 0.818877 0.700597 -0.707329
H49   H     H_    0.948304 0.813409 0.670752 0.328986
C116  C     C_1   0.173946 0.003169 0.674330 0.215025
N8    N     N_1   0.180465 0.071869 0.697584 -0.260376
C117  C     C_1   0.863733 0.891209 0.894789 0.230589
N9    N     N_1   0.934168 0.972031 0.908578 -0.284810
O33   O     O_3   0.536123 0.833253 0.720012 -0.717657
H50   H     H_    0.519594 0.827181 0.690485 0.335196
O34   O     O_3   0.554916 0.791808 0.799001 -0.659501
H51   H     H_    0.537462 0.844250 0.790775 0.384399

loop_
_geom_bond_atom_site_label_1
_geom_bond_atom_site_label_2
_ccdc_geom_bond_type
Cr1   O25   S    
C10   O17   A    
C65   C92   S    
C33   H7    S    
C21   C26   S    
C44   O31   S    
O28   H45   S    
C106  H36   S    
C73   C74   A    
C62   H16   S    
C47   O30   S    
C35   H5    S    
C95   C96   A    
Cr3   O4    S    
C55   C56   T    
C2    C12   A    
C23   H4    S    
C81   C82   A    
Cr2   O5    S    
Cr6   O10   S    
C49   O29   S    
C65   O24   A    
C77   C78   A    
C27   C33   A    
C45   C112  S    
C12   C13   A    
C14   H31   S    
C100  C105  A    
C37   C38   A    
C42   C44   A    
C60   C61   A    
C83   C84   A    
Cr6   O18   S    
C28   C29   A    
C34   C35   A    
C86   C91   A    
C78   H28   S    
Cr5   O8    S    
C38   C39   S    
C86   C88   A    
C111  N3    T    
Cr4   O14   S    
C20   C25   A    
Cr2   O21   S    
C15   C16   A    
C16   C25   S    
C80   C85   A    
C66   H13   S    
C18   C19   A    
C23   C26   A    
C43   O26   A    
C8    O11   A    
C54   O2    A    
C37   H9    S    
C1    O20   A    
C84   C85   A    
C66   C72   A    
C88   C92   A    
C112  N4    T    
C115  N7    T    
C6    C41   S    
C4    C102  S    
C36   C37   A    
C23   C24   A    
C31   C33   A    
C34   C109  S    
C70   C71   T    
C51   C57   A    
C63   H17   S    
C103  C104  A    
C93   C99   A    
C87   H1    S    
C61   C62   A    
C87   C98   A    
C107  H37   S    
C11   C93   S    
C10   O16   A    
C22   H2    S    
O30   H47   S    
C5    C43   S    
C98   H39   S    
C77   C85   S    
C59   C60   A    
C48   C111  S    
Cr3   O22   S    
C50   C57   A    
C36   C41   A    
C69   C70   S    
Cr3   O5    S    
C9    C73   S    
C35   C41   A    
Cr1   O1    S    
C104  C105  A    
C97   C99   A    
Cr1   O12   S    
C103  H34   S    
Cr5   O15   S    
C32   O1    A    
C99   C117  S    
C53   C55   S    
C81   H24   S    
Cr4   O7    S    
Cr4   O13   S    
C59   H18   S    
C113  N5    T    
C67   C68   A    
C101  C102  A    
C67   C72   A    
C67   H20   S    
C95   H33   S    
C24   C25   A    
C74   C75   A    
O32   H49   S    
Cr5   O9    S    
C13   H10   S    
O33   H50   S    
C16   C17   A    
C83   O32   S    
C58   C59   A    
C89   H29   S    
C80   C115  S    
C82   C83   A    
C82   C91   S    
C51   C52   A    
O27   H44   S    
C64   C66   A    
C104  H35   S    
Cr3   O3    S    
C96   C97   A    
C29   C30   A    
C8    C57   S    
C90   H22   S    
C47   C48   A    
C13   C76   A    
C21   O22   A    
C101  O33   S    
O34   H51   S    
C74   H21   S    
C62   C63   A    
C54   C58   S    
C17   C18   A    
C73   C79   A    
C30   C40   S    
C94   C95   A    
C93   C94   A    
C42   C48   A    
C64   C69   A    
C114  N6    T    
C89   C92   A    
C75   C77   A    
C76   C87   A    
C2    C98   A    
O31   H48   S    
C11   O13   A    
Cr5   O19   S    
C60   C113  S    
C21   O21   A    
Cr4   O19   S    
C7    O9    A    
C6    O7    A    
Cr2   O26   S    
C79   C114  S    
C20   H43   S    
C22   C26   A    
Cr3   O23   S    
C3    C108  A    
C9    O14   A    
C46   C56   S    
C3    C4    A    
C17   H41   S    
C88   H27   S    
C39   C40   T    
C18   H42   S    
C52   C53   A    
C96   C105  S    
Cr5   O16   S    
C5    C107  A    
Cr1   O24   S    
C58   C63   A    
Cr4   O6    S    
C7    O10   A    
C46   C47   A    
C68   H19   S    
C2    C19   S    
C34   C38   A    
C51   H12   S    
C14   C19   A    
C68   C69   A    
C44   C45   A    
C86   C116  S    
C20   C22   A    
C80   C81   A    
C8    O6    A    
C52   H11   S    
Cr6   O11   S    
C7    C76   S    
C64   H15   S    
C43   O25   A    
C11   O18   A    
Cr2   O20   S    
C29   O27   S    
Cr1   O5    S    
C94   H30   S    
O29   H46   S    
C89   C90   A    
C75   H25   S    
Cr6   O19   S    
C78   C79   A    
C61   C71   S    
C90   C91   A    
C30   C31   A    
C4    C106  A    
C49   C53   A    
C36   C110  S    
C1    O12   A    
C100  C101  A    
C97   H38   S    
C28   H8    S    
C116  N8    T    
C102  C103  A    
C50   O28   S    
C31   H6    S    
C6    O8    A    
C27   C32   S    
C54   O3    A    
C12   H3    S    
C45   C46   A    
C1    C42   S    
Cr6   O17   S    
C108  H40   S    
C117  N9    T    
C84   H26   S    
C3    H32   S    
C100  O34   S    
C49   C50   A    
C106  C107  A    
C65   O4    A    
C27   C28   A    
C24   H14   S    
C14   C15   A    
C32   O23   A    
C9    O15   A    
C109  N1    T    
C110  N2    T    
Cr2   O2    S    
C15   H23   S    
C5    C108  A    
C10   C72   S    
