data_mof_unit_3164.cif
_audit_creation_date              2012-12-10T17:37:23-0500
_audit_creation_method            fapswitch 2.2
_symmetry_space_group_name_H-M    P1
_symmetry_Int_Tables_number       1
_space_group_crystal_system       triclinic
_cell_length_a                    12.151586
_cell_length_b                    12.734724
_cell_length_c                    16.697944
_cell_angle_alpha                 92.663318
_cell_angle_beta                  82.041507
_cell_angle_gamma                 96.215354
_cell_volume                      2542.72848391

loop_
_atom_site_label
_atom_site_type_symbol
_atom_type_description
_atom_site_fract_x
_atom_site_fract_y
_atom_site_fract_z
_atom_type_partial_charge
C1    C     C_R   0.524008 0.700436 0.498789 0.877484
C2    C     C_R   0.538539 0.130804 0.455788 -0.277135
C3    C     C_R   0.457570 0.974725 0.526687 0.191815
C4    C     C_R   0.539618 0.024868 0.468435 0.189767
C5    C     C_R   0.950319 0.387372 0.435838 -0.349849
C6    C     C_R   0.053079 0.620889 0.556156 -0.351336
C7    C     C_R   0.837125 0.399896 0.440504 -0.005290
C8    C     C_R   0.166317 0.607701 0.550539 -0.007522
C9    C     C_R   0.862209 0.556007 0.523157 0.185895
C10   C     C_R   0.134340 0.440612 0.483245 0.179131
C11   C     C_R   0.978884 0.546723 0.518766 0.068150
C12   C     C_R   0.475877 0.299582 0.500264 0.886723
C13   C     C_R   0.021849 0.458188 0.478039 0.052436
C14   C     C_R   0.486163 0.506798 0.653610 0.849162
C15   C     C_R   0.515289 0.501028 0.346270 0.840007
C16   C     C_R   0.483948 0.541652 0.738059 -0.027735
C17   C     C_R   0.527282 0.520004 0.260130 -0.030875
C18   C     C_R   0.582501 0.589974 0.764326 -0.212949
C19   C     C_R   0.431907 0.521830 0.222029 -0.212301
C20   C     C_R   0.580299 0.634968 0.841423 -0.157271
C21   C     C_R   0.442327 0.554424 0.143110 -0.145913
C22   C     C_R   0.480276 0.628051 0.894740 0.206762
C23   C     C_R   0.458467 0.187053 0.501703 -0.046002
C24   C     C_R   0.548438 0.586539 0.101609 0.207253
C25   C     C_R   0.380714 0.584021 0.867843 -0.175791
C26   C     C_R   0.643917 0.580945 0.138614 -0.186417
C27   C     C_R   0.382377 0.541228 0.789533 -0.203639
C28   C     C_R   0.633569 0.548071 0.217604 -0.200194
C29   C     C_2   0.481289 0.647525 0.981493 -0.245284
C30   C     C_2   0.562885 0.613100 0.016470 -0.232012
C31   C     C_3   0.163642 0.327622 0.470298 -0.377117
C32   C     C_3   0.219772 0.303792 0.384103 -0.321454
C33   C     C_3   0.221447 0.185111 0.367189 -0.910253
C34   C     C_R   0.540230 0.812897 0.494910 -0.042635
C35   C     C_3   0.814479 0.647301 0.572471 -0.404286
C36   C     C_3   0.840443 0.751334 0.527114 -0.347797
C37   C     C_3   0.797964 0.843644 0.579707 -0.865749
C38   C     C_R   0.622164 0.968678 0.424619 -0.221834
C39   C     C_R   0.373476 0.030309 0.569202 -0.215527
C40   C     C_R   0.621416 0.861787 0.437082 -0.200677
C41   C     C_R   0.373915 0.137140 0.556613 -0.228528
C42   C     C_R   0.460263 0.869424 0.540749 -0.284280
H1    H     H_    0.661402 0.594469 0.725202 0.142590
H2    H     H_    0.405390 0.669424 0.017640 0.146455
H3    H     H_    0.302906 0.578022 0.908606 0.122839
H4    H     H_    0.726426 0.602640 0.106463 0.125461
H5    H     H_    0.367373 0.551967 0.114600 0.123119
H6    H     H_    0.657619 0.671529 0.860317 0.125883
H7    H     H_    0.602866 0.170841 0.412759 0.137846
H8    H     H_    0.397119 0.829944 0.584910 0.138960
H9    H     H_    0.312565 0.181661 0.592566 0.146842
H10   H     H_    0.680138 0.816641 0.399120 0.143046
H11   H     H_    0.684784 0.006554 0.379497 0.136575
H12   H     H_    0.349158 0.499275 0.253439 0.150051
H13   H     H_    0.309677 0.991956 0.613292 0.137460
H14   H     H_    0.265732 0.150097 0.411583 0.280554
H15   H     H_    0.134862 0.145675 0.370682 0.258045
H16   H     H_    0.265568 0.170739 0.305495 0.251348
H17   H     H_    0.174360 0.336241 0.339032 0.201628
H18   H     H_    0.306663 0.340676 0.375134 0.257026
H19   H     H_    0.208833 0.306001 0.518559 0.215848
H20   H     H_    0.087092 0.271723 0.483024 0.173452
H21   H     H_    0.707266 0.827454 0.601005 0.268091
H22   H     H_    0.843681 0.856951 0.633072 0.251083
H23   H     H_    0.221859 0.667107 0.577302 0.141409
H24   H     H_    0.811951 0.916540 0.544112 0.255962
H25   H     H_    0.931359 0.769734 0.508383 0.213230
H26   H     H_    0.801399 0.743849 0.470789 0.237220
H27   H     H_    0.724597 0.631402 0.589497 0.253859
H28   H     H_    0.846774 0.655474 0.631748 0.162770
H29   H     H_    0.783369 0.344101 0.408898 0.136780
H30   H     H_    0.980517 0.321910 0.398764 0.161291
H31   H     H_    0.026414 0.690310 0.589519 0.160398
H32   H     H_    0.708488 0.547593 0.245927 0.156884
H33   H     H_    0.304898 0.506722 0.769639 0.151040
H34   H     H_    0.638311 0.590353 0.980084 0.149451
N1    N     N_R   0.206400 0.519440 0.514690 -0.108566
N2    N     N_R   0.793600 0.480560 0.485310 -0.112930
O1    O     O_R   0.421320 0.658850 0.503920 -0.615460
O2    O     O_R   0.578680 0.341150 0.496080 -0.611355
O3    O     O_R   0.609840 0.646370 0.494500 -0.635912
O4    O     O_R   0.390160 0.353630 0.505500 -0.634884
O5    O     O_R   0.394600 0.506990 0.621070 -0.617953
O6    O     O_R   0.605400 0.493010 0.378930 -0.620610
O7    O     O_R   0.583120 0.494520 0.611640 -0.631668
O8    O     O_R   0.416880 0.505480 0.388360 -0.622732
Zn1   Zn    Zn3+2 0.374120 0.508330 0.506290 0.927546
Zn2   Zn    Zn3+2 0.625880 0.491670 0.493710 0.923099

loop_
_geom_bond_atom_site_label_1
_geom_bond_atom_site_label_2
_ccdc_geom_bond_type
O5    Zn1   S    
C3    C42   A    
C33   H16   S    
C22   C29   S    
C31   H19   S    
C35   C36   S    
C34   C42   A    
C28   H32   S    
O1    Zn1   S    
C36   H25   S    
C39   C41   A    
C12   C23   S    
C34   C40   A    
C36   C37   S    
C19   C21   A    
C24   C26   A    
C5    H30   S    
C7    H29   S    
C1    O3    A    
O4    Zn1   S    
C10   C31   S    
C39   H13   S    
C35   H28   S    
C22   C25   A    
C5    C13   A    
C33   H14   S    
C3    C39   A    
C8    H23   S    
C31   H20   S    
C14   O5    A    
C27   H33   S    
C37   H21   S    
C10   N1    A    
C1    C34   S    
C6    C11   A    
C5    C7    A    
O8    Zn1   S    
C6    C8    A    
C40   H10   S    
C2    C4    A    
C29   C30   D    
C2    H7    S    
C30   H34   S    
C31   C32   S    
C37   H24   S    
C12   O4    A    
C9    C11   A    
C35   H27   S    
C20   H6    S    
C42   H8    S    
C7    N2    A    
C19   H12   S    
C20   C22   A    
C15   O8    A    
C29   H2    S    
C8    N1    A    
C1    O1    A    
C14   C16   S    
C32   H18   S    
C3    C4    A    
C25   H3    S    
C37   H22   S    
C6    H31   S    
O7    Zn2   S    
N2    Zn2   S    
C15   C17   S    
C33   H15   S    
C17   C28   A    
O6    Zn2   S    
C14   O7    A    
C4    C38   A    
C10   C13   A    
C36   H26   S    
C15   O6    A    
C25   C27   A    
C26   C28   A    
C23   C41   A    
C32   C33   S    
O2    Zn2   S    
C18   H1    S    
C38   C40   A    
C11   C13   A    
C38   H11   S    
C16   C27   A    
C12   O2    A    
C17   C19   A    
C18   C20   A    
C9    N2    A    
C24   C30   S    
O3    Zn2   S    
C26   H4    S    
N1    Zn1   S    
C16   C18   A    
C21   C24   A    
C2    C23   A    
C9    C35   S    
C32   H17   S    
C41   H9    S    
C21   H5    S    
