data_mof_unit_1618.cif
_audit_creation_date              2012-12-11T21:15:14-0500
_audit_creation_method            fapswitch 2.2
_symmetry_space_group_name_H-M    P1
_symmetry_Int_Tables_number       1
_space_group_crystal_system       triclinic
_cell_length_a                    8.239581
_cell_length_b                    18.789775
_cell_length_c                    26.9503
_cell_angle_alpha                 99.602066
_cell_angle_beta                  92.56657
_cell_angle_gamma                 88.136877
_cell_volume                      4108.53088509

loop_
_atom_site_label
_atom_site_type_symbol
_atom_type_description
_atom_site_fract_x
_atom_site_fract_y
_atom_site_fract_z
_atom_type_partial_charge
Ba1   Ba    Ba6+2 0.160810 0.465630 0.521640 1.654118
Ba2   Ba    Ba6+2 0.649380 0.534380 0.478400 1.658569
C1    C     C_3   0.419843 0.295063 0.702574 0.255865
C2    C     C_R   0.075986 0.094905 0.452211 0.030905
C3    C     C_R   0.222931 0.070994 0.429854 -0.083828
C4    C     C_3   0.939251 0.271290 0.628188 0.314312
C5    C     C_R   0.283209 0.000840 0.430927 -0.090172
C6    C     C_R   0.196387 0.952733 0.453638 0.030428
C7    C     C_R   0.048960 0.976045 0.476378 0.016559
C8    C     C_R   0.254346 0.881680 0.453327 -0.108554
C9    C     C_R   0.165192 0.831936 0.474262 -0.035548
C10   C     C_R   0.018023 0.855450 0.498034 -0.003028
C11   C     C_R   0.961229 0.927892 0.499244 -0.005516
C12   C     C_3   0.419798 0.315400 0.650208 0.349478
C13   C     C_R   0.217500 0.759046 0.471629 -0.008273
C14   C     C_R   0.120614 0.710468 0.490113 -0.292917
C15   C     C_R   0.980078 0.732982 0.516002 0.054679
C16   C     C_3   0.986929 0.196648 0.639666 -0.297311
C17   C     C_R   0.928401 0.807002 0.520991 -0.045249
C18   C     C_R   0.843311 0.071747 0.499345 -0.006021
C19   C     C_R   0.786117 0.144088 0.500279 -0.009433
C20   C     C_R   0.876244 0.192572 0.477468 -0.041845
C21   C     C_R   0.016043 0.165497 0.451373 -0.039362
C22   C     C_R   0.789555 0.834303 0.547573 -0.031182
C23   C     C_3   0.471085 0.313727 0.397311 0.308316
C24   C     C_R   0.729410 0.904909 0.546754 0.029296
C25   C     C_R   0.815312 0.952034 0.522586 0.008642
C26   C     C_R   0.755664 0.023615 0.522277 0.012944
C27   C     C_R   0.582682 0.928917 0.569256 -0.068856
C28   C     C_3   0.879286 0.639554 0.642720 0.628274
C29   C     C_R   0.521776 0.998902 0.567917 -0.067260
C30   C     C_R   0.608098 0.046881 0.544938 0.031081
C31   C     C_R   0.638411 0.167503 0.523755 -0.044841
C32   C     C_R   0.549500 0.117767 0.544867 -0.076938
C33   C     C_R   0.585351 0.240260 0.525914 -0.001235
C34   C     C_3   0.478625 0.232369 0.380602 -0.391923
C35   C     C_R   0.681182 0.288695 0.506704 -0.310751
C36   C     C_R   0.824239 0.266470 0.482051 0.053861
C37   C     C_R   0.322971 0.454026 0.176970 0.587642
C38   C     C_R   0.148075 0.557768 0.172484 0.582045
C39   C     C_2   0.025306 0.518709 0.268921 -0.070623
C40   C     C_3   0.020974 0.648491 0.681326 -0.254842
C41   C     C_3   0.990529 0.515677 0.323507 -0.049707
C42   C     C_1   0.278916 0.492287 0.336837 0.009081
C43   C     C_2   0.314317 0.497859 0.290414 -0.100791
C44   C     C_2   0.179977 0.509173 0.252656 0.196519
C45   C     C_3   0.850618 0.722329 0.376317 0.342268
C46   C     C_R   0.300318 0.504267 0.099092 -0.080146
C47   C     C_R   0.371149 0.453894 0.127447 -0.029633
C48   C     C_R   0.489706 0.404376 0.105982 -0.057408
C49   C     C_R   0.185472 0.555680 0.121559 -0.031054
C50   C     C_2   0.144781 0.522276 0.356142 -0.287923
C51   C     C_2   0.653964 0.475711 0.637842 -0.254109
C52   C     C_3   0.983117 0.366978 0.365536 0.299126
C53   C     C_R   0.499352 0.447316 0.974961 0.019754
C54   C     C_R   0.318492 0.553762 0.969449 0.019782
C55   C     C_R   0.430227 0.499603 0.947006 0.051207
C56   C     C_3   0.861456 0.796369 0.361070 -0.366722
C57   C     C_R   0.603532 0.392453 0.950052 -0.100571
C58   C     C_R   0.638209 0.389073 0.899791 -0.043599
C59   C     C_R   0.573992 0.441143 0.872205 -0.030019
C60   C     C_R   0.472871 0.497380 0.895926 -0.080457
C61   C     C_R   0.413440 0.550887 0.868404 -0.040884
C62   C     C_R   0.462281 0.549294 0.818494 0.609076
C63   C     C_R   0.607416 0.437084 0.821032 0.577852
C64   C     C_3   0.018783 0.335866 0.311075 -0.362916
C65   C     C_2   0.744250 0.460983 0.725354 -0.040498
C66   C     C_3   0.755412 0.431914 0.670123 -0.059694
C67   C     C_3   0.335352 0.693653 0.350462 0.292830
C68   C     C_1   0.520544 0.509544 0.656153 0.096915
C69   C     C_2   0.476807 0.509777 0.703195 -0.080524
C70   C     C_2   0.598684 0.488712 0.742014 0.197254
C71   C     C_R   0.460814 0.450721 0.026338 0.021715
C72   C     C_R   0.344154 0.503003 0.048218 0.049443
C73   C     C_R   0.270718 0.553862 0.019802 0.020472
C74   C     C_R   0.535133 0.403299 0.056894 -0.097722
C75   C     C_R   0.110670 0.604162 0.092730 -0.058818
C76   C     C_3   0.332114 0.684505 0.589114 0.348444
C77   C     C_R   0.259167 0.606250 0.940491 -0.096735
C78   C     C_3   0.349183 0.710021 0.297395 -0.340913
C79   C     C_R   0.306982 0.605130 0.891413 -0.052580
C80   C     C_R   0.150884 0.602934 0.042950 -0.099244
C81   C     C_3   0.322298 0.765989 0.605966 -0.362621
C82   C     C_R   0.989556 0.047677 0.476173 0.008563
Cl1   Cl    Cl    0.583657 0.232752 0.710970 -0.643359
Cl2   Cl    Cl    0.705104 0.656716 0.679667 -0.694271
H1    H     H_    0.335112 0.362257 0.649121 0.040964
H2    H     H_    0.412604 0.672155 0.556666 0.072409
H3    H     H_    0.433906 0.344507 0.731459 0.033481
H4    H     H_    0.232121 0.779740 0.635640 0.126479
H5    H     H_    0.285717 0.793693 0.573912 0.042135
H6    H     H_    0.442679 0.785841 0.621312 0.149316
H7    H     H_    0.596518 0.332605 0.407074 0.025852
H8    H     H_    0.396408 0.325600 0.431172 0.055546
H9    H     H_    0.557010 0.218415 0.347767 0.136458
H10   H     H_    0.529876 0.205626 0.411815 0.054300
H11   H     H_    0.354567 0.212192 0.369865 0.113273
H12   H     H_    0.004895 0.698121 0.709752 0.142749
H13   H     H_    0.302713 0.270035 0.707957 0.097075
H14   H     H_    0.904283 0.156118 0.617971 0.082684
H15   H     H_    0.732013 0.719171 0.393234 0.120034
H16   H     H_    0.949374 0.716496 0.404555 -0.022865
H17   H     H_    0.832022 0.839034 0.393595 0.080661
H18   H     H_    0.986765 0.804414 0.349375 0.112765
H19   H     H_    0.773147 0.801279 0.329222 0.140767
H20   H     H_    0.205361 0.701387 0.360865 -0.012353
H21   H     H_    0.276722 0.670642 0.270585 0.119301
H22   H     H_    0.479212 0.705316 0.286537 0.138161
H23   H     H_    0.032441 0.601163 0.700985 0.107629
H24   H     H_    0.959974 0.271636 0.587663 0.045325
H25   H     H_    0.301488 0.765914 0.295417 0.119525
H26   H     H_    0.292154 0.106768 0.411824 0.063609
H27   H     H_    0.397300 0.983981 0.413533 0.073465
H28   H     H_    0.159928 0.654446 0.486485 0.065571
H29   H     H_    0.368117 0.865582 0.435761 0.111263
H30   H     H_    0.082301 0.199016 0.430899 0.097629
H31   H     H_    0.723486 0.800878 0.568134 0.115476
H32   H     H_    0.514016 0.893354 0.587568 0.068363
H33   H     H_    0.407692 0.015755 0.585339 0.082890
H34   H     H_    0.133776 0.655021 0.663075 0.112465
H35   H     H_    0.435031 0.133614 0.562068 0.115304
H36   H     H_    0.807468 0.280756 0.635435 0.022979
H37   H     H_    0.640424 0.344466 0.509321 0.072629
H38   H     H_    0.549954 0.366342 0.127402 0.122254
H39   H     H_    0.841848 0.448333 0.751218 0.119471
H40   H     H_    0.717709 0.345399 0.882646 0.138074
H41   H     H_    0.658121 0.349768 0.967817 0.075452
H42   H     H_    0.630864 0.364747 0.044382 0.071577
H43   H     H_    0.923550 0.522589 0.242427 0.110892
H44   H     H_    0.018804 0.643249 0.108504 0.123081
H45   H     H_    0.097112 0.386866 0.385530 0.026023
H46   H     H_    0.177332 0.650132 0.954855 0.074080
H47   H     H_    0.113486 0.182315 0.628615 0.139408
H48   H     H_    0.258018 0.646878 0.871211 0.128199
H49   H     H_    0.351429 0.520266 0.713118 0.125998
H50   H     H_    0.083554 0.640883 0.023471 0.071880
H51   H     H_    0.143770 0.547998 0.395374 0.070045
H52   H     H_    0.669688 0.464223 0.597610 0.075509
H53   H     H_    0.976792 0.195204 0.680535 0.169757
H54   H     H_    0.878825 0.583916 0.620716 -0.012875
H55   H     H_    0.209394 0.664404 0.577732 -0.053206
H56   H     H_    0.891733 0.411791 0.366671 0.034676
H57   H     H_    0.543700 0.331051 0.643051 -0.066181
H58   H     H_    0.375248 0.636331 0.350352 0.068377
H59   H     H_    0.439706 0.493978 0.279525 0.131409
H60   H     H_    0.096699 0.286217 0.309680 0.145850
H61   H     H_    0.083914 0.375066 0.293465 0.078430
H62   H     H_    0.903537 0.322153 0.289033 0.116499
N1    N     N_R   0.215845 0.506822 0.199781 -0.425816
N2    N     N_R   0.557363 0.492394 0.794762 -0.431629
O1    O     O_2   0.106080 0.324280 0.466820 -0.472611
O2    O     O_2   0.661592 0.565260 0.331754 -0.496528
O3    O     O_3   0.866745 0.668624 0.333939 -0.596061
O4    O     O_3   0.859130 0.413620 0.470620 -0.482383
O5    O     O_3   0.459240 0.537930 0.559910 -0.488853
O6    O     O_2   0.583120 0.462390 0.379940 -0.465101
O7    O     O_3   0.401545 0.346400 0.357936 -0.631409
O8    O     O_2   0.558256 0.757888 0.475781 -0.504075
O9    O     O_3   0.435900 0.740271 0.383747 -0.610698
O10   O     O_2   0.375326 0.406311 0.199615 -0.599913
O11   O     O_2   0.678499 0.383148 0.799626 -0.562696
O12   O     O_3   0.393481 0.653257 0.629767 -0.562669
O13   O     O_2   0.057061 0.605647 0.192662 -0.594572
O14   O     O_2   0.421284 0.599074 0.796517 -0.566965
O15   O     O_3   0.376230 0.370290 0.556910 -0.492480
O16   O     O_2   0.244856 0.243440 0.523188 -0.489841
O17   O     O_3   0.919534 0.312401 0.387245 -0.644592
O18   O     O_3   0.369284 0.256657 0.614497 -0.596855
O19   O     O_2   0.227190 0.537650 0.620070 -0.494359
O20   O     O_3   0.971110 0.406970 0.583250 -0.476423
O21   O     O_2   0.091343 0.461859 0.674447 -0.511366
O22   O     O_3   0.033546 0.323567 0.659075 -0.592135
O23   O     O_2   0.704230 0.675760 0.533200 -0.462032
O24   O     O_3   0.951180 0.586390 0.529420 -0.495072
O25   O     O_3   0.434080 0.629720 0.443130 -0.474543
O26   O     O_3   0.884727 0.694288 0.613091 -0.634582
O27   O     O_3   0.351080 0.462080 0.440130 -0.479389
O28   O     O_3   0.839200 0.593040 0.416790 -0.487835
P1    P     P_3+3 0.929380 0.335110 0.452880 0.976992
P2    P     P_3+3 0.398530 0.559060 0.613740 1.049870
P3    P     P_3+3 0.963842 0.408546 0.647790 0.956703
P4    P     P_3+3 0.880940 0.664900 0.547160 0.990256
P5    P     P_3+3 0.837090 0.583990 0.351101 0.974603
P6    P     P_3+3 0.393431 0.277037 0.554244 0.947956
P7    P     P_3+3 0.400448 0.440214 0.376905 0.961222
P8    P     P_3+3 0.411499 0.722621 0.444626 0.918998

loop_
_geom_bond_atom_site_label_1
_geom_bond_atom_site_label_2
_ccdc_geom_bond_type
O17   P1    S    
C23   H7    S    
Ba2   O5    S    
C45   H15   S    
C53   C57   A    
C37   O10   D    
C1    Cl1   S    
C39   C41   S    
C71   C72   A    
C52   O17   S    
C62   O14   D    
C40   H34   S    
O24   P4    S    
C79   H48   S    
C4    O22   S    
C43   C44   S    
C42   C43   D    
C67   H58   S    
O26   P4    S    
C81   H6    S    
C78   H21   S    
C24   C25   A    
C35   C36   A    
C54   C77   A    
C61   C79   A    
C43   H59   S    
O9    P8    S    
C33   C35   A    
C40   H23   S    
O7    P7    S    
C12   H1    S    
C65   C70   D    
C65   H39   S    
Ba2   O23   S    
C69   H49   S    
Ba1   P2    S    
C41   C50   S    
C19   C31   A    
C59   C60   A    
C57   H41   S    
C13   C14   A    
C20   C36   A    
C1    H13   S    
Ba1   O20   S    
O27   P7    S    
C54   C55   A    
C10   C17   A    
C16   H47   S    
Ba1   Ba2   S    
Ba2   P4    S    
Ba1   O19   S    
C63   N2    Am   
Ba1   O5    S    
C51   C66   S    
C7    C11   A    
C67   O9    S    
C21   H30   S    
C35   H37   S    
C9    C13   A    
C76   C81   S    
C46   C49   A    
O3    P5    S    
C14   C15   A    
O18   P6    S    
C39   C44   D    
C68   C69   D    
Ba2   O27   S    
C28   Cl2   S    
O19   P2    D    
O12   P2    S    
O28   P5    S    
C42   P7    S    
C42   C50   D    
C15   P4    S    
C23   H8    S    
Ba2   O4    S    
C45   H16   S    
C19   C20   A    
C45   O3    S    
C4    H24   S    
Ba1   O4    S    
O22   P3    S    
C16   H14   S    
C51   C68   D    
O8    P8    D    
C28   O26   S    
C50   H51   S    
C4    C16   S    
C13   P8    S    
C66   P3    S    
C28   H54   S    
C72   C73   A    
C51   H52   S    
C46   C72   A    
C26   C30   A    
O16   P6    D    
C38   O13   D    
C76   H55   S    
C3    C5    A    
C2    C21   A    
C6    C7    A    
C18   C26   A    
C55   C60   A    
C33   P6    S    
O6    P7    D    
C18   C82   A    
C65   C66   S    
C62   N2    Am   
C58   C59   A    
C30   C32   A    
C49   C75   A    
C57   C58   A    
C60   C61   A    
C52   H45   S    
C48   C74   A    
Ba2   O25   S    
C34   H10   S    
O1    P1    D    
C29   C30   A    
C2    C82   A    
Ba1   O15   S    
C9    C10   A    
C31   C32   A    
C22   H31   S    
C48   H38   S    
C18   C19   A    
O2    P5    D    
C29   H33   S    
C64   H61   S    
C34   H11   S    
C1    C12   S    
C46   C47   A    
C52   H56   S    
O23   P4    D    
C76   O12   S    
C32   H35   S    
C70   N2    S    
C53   C55   A    
O20   P3    S    
C23   O7    S    
C74   H42   S    
C71   C74   A    
C56   H18   S    
C4    H36   S    
C12   O18   S    
O5    P2    S    
C77   C79   A    
C76   H2    S    
C81   H4    S    
C37   N1    Am   
C12   H57   S    
Ba2   O6    S    
C36   P1    S    
C37   C47   A    
C23   C34   S    
O15   P6    S    
C64   H62   S    
O21   P3    D    
C28   C40   S    
C22   C24   A    
C2    C3    A    
C40   H12   S    
C14   H28   S    
C67   H20   S    
C73   C80   A    
C52   C64   S    
C3    H26   S    
C38   C49   A    
C81   H5    S    
C27   H32   S    
C78   H22   S    
C1    H3    S    
C56   H19   S    
C5    H27   S    
C58   H40   S    
C17   C22   A    
Ba1   O24   S    
C27   C29   A    
Ba2   O24   S    
C45   C56   S    
C39   H43   S    
Ba1   P1    S    
C34   H9    S    
C68   P2    S    
C75   C80   A    
C77   H46   S    
C78   H25   S    
C41   P5    S    
C31   C33   A    
C38   N1    Am   
Ba1   O1    S    
C75   H44   S    
C80   H50   S    
C16   H53   S    
C64   H60   S    
C5    C6    A    
C8    C9    A    
C7    C82   A    
C61   C62   A    
C53   C71   A    
C15   C17   A    
C59   C63   A    
C69   C70   S    
C44   N1    S    
C10   C11   A    
C24   C27   A    
C6    C8    A    
C47   C48   A    
C63   O11   D    
C25   C26   A    
C54   C73   A    
C20   C21   A    
C11   C25   A    
C67   C78   S    
C56   H17   S    
Ba2   O28   S    
O4    P1    S    
Ba1   O27   S    
C8    H29   S    
O25   P8    S    
