data_mof_unit_2679.cif
_audit_creation_date              2012-12-11T14:13:16-0500
_audit_creation_method            fapswitch 2.2
_symmetry_space_group_name_H-M    P1
_symmetry_Int_Tables_number       1
_space_group_crystal_system       triclinic
_cell_length_a                    17.209201
_cell_length_b                    17.791134
_cell_length_c                    17.06919
_cell_angle_alpha                 90.006427
_cell_angle_beta                  90.011646
_cell_angle_gamma                 89.999505
_cell_volume                      5226.09426177

loop_
_atom_site_label
_atom_site_type_symbol
_atom_type_description
_atom_site_fract_x
_atom_site_fract_y
_atom_site_fract_z
_atom_type_partial_charge
C1    C     C_R   0.583316 0.325697 0.139357 -0.257912
C2    C     C_R   0.198001 0.104773 0.599224 -0.141096
C3    C     C_R   0.916684 0.174398 0.639270 -0.258197
C4    C     C_R   0.802089 0.895246 0.599503 -0.139537
C5    C     C_R   0.083327 0.174334 0.360674 -0.258463
C6    C     C_R   0.197955 0.895245 0.400639 -0.140300
C7    C     C_R   0.916751 0.825725 0.360605 -0.257876
C8    C     C_R   0.802013 0.104736 0.400697 -0.140682
C9    C     C_R   0.607078 0.692391 0.107667 0.633709
C10   C     C_R   0.337901 0.576583 0.149888 0.655698
C11   C     C_R   0.392900 0.307632 0.107673 0.634390
C12   C     C_R   0.697968 0.604761 0.099343 -0.140585
C13   C     C_R   0.662167 0.423420 0.149859 0.656302
C14   C     C_R   0.606992 0.307593 0.892311 0.632101
C15   C     C_R   0.337862 0.423460 0.850120 0.656280
C16   C     C_R   0.392828 0.692361 0.892352 0.635533
C17   C     C_R   0.662062 0.576621 0.850087 0.654930
C18   C     C_R   0.107130 0.192384 0.607644 0.634701
C19   C     C_R   0.837956 0.076610 0.649923 0.654961
C20   C     C_R   0.893015 0.807590 0.607671 0.631945
C21   C     C_R   0.162193 0.923456 0.649846 0.656787
C22   C     C_R   0.107062 0.807609 0.392325 0.633576
C23   C     C_R   0.416746 0.674298 0.139374 -0.258657
C24   C     C_R   0.837894 0.923434 0.350101 0.655859
C25   C     C_R   0.892883 0.192367 0.392328 0.634506
C26   C     C_R   0.162155 0.076596 0.350150 0.656137
C27   C     C_R   0.636121 0.359010 0.188440 0.012899
C28   C     C_R   0.685082 0.677404 0.120972 0.018052
C29   C     C_R   0.363974 0.641005 0.188468 0.012991
C30   C     C_R   0.314894 0.322630 0.120939 0.017834
C31   C     C_R   0.636055 0.641137 0.811612 0.012628
C32   C     C_R   0.684950 0.322613 0.878816 0.018807
C33   C     C_R   0.363990 0.359125 0.811452 0.013074
C34   C     C_R   0.302025 0.395269 0.099319 -0.140539
C35   C     C_R   0.314787 0.677389 0.879216 0.017291
C36   C     C_R   0.136066 0.859142 0.688525 0.013196
C37   C     C_R   0.185159 0.177418 0.620834 0.017589
C38   C     C_R   0.863995 0.141099 0.688432 0.012742
C39   C     C_R   0.815056 0.822604 0.621157 0.018885
C40   C     C_R   0.136120 0.141030 0.311590 0.013055
C41   C     C_R   0.185057 0.822603 0.378998 0.018057
C42   C     C_R   0.863971 0.859029 0.311506 0.012737
C43   C     C_R   0.814866 0.177375 0.379087 0.017775
C44   C     C_2   0.713819 0.649388 0.687293 0.355450
C45   C     C_R   0.583380 0.674446 0.860791 -0.257942
C46   C     C_2   0.244116 0.796349 0.870954 0.401658
C47   C     C_2   0.285485 0.350741 0.687652 0.355504
C48   C     C_2   0.756452 0.204073 0.871005 0.401205
C49   C     C_2   0.714512 0.350668 0.312304 0.355705
C50   C     C_2   0.243925 0.203831 0.129080 0.401471
C51   C     C_2   0.285786 0.649336 0.312472 0.355407
C52   C     C_2   0.756189 0.796148 0.128973 0.401397
C53   C     C_2   0.214458 0.149368 0.187713 0.355593
C54   C     C_2   0.743955 0.296208 0.370962 0.401469
C55   C     C_2   0.785746 0.850704 0.187500 0.355558
C56   C     C_R   0.697911 0.395257 0.900477 -0.139528
C57   C     C_2   0.256222 0.703890 0.370985 0.401465
C58   C     C_2   0.214783 0.850717 0.812151 0.355666
C59   C     C_2   0.743546 0.704072 0.628998 0.401141
C60   C     C_2   0.786181 0.149375 0.812714 0.355420
C61   C     C_2   0.256039 0.296279 0.628979 0.401634
C62   C     C_2   0.653238 0.670100 0.732570 -0.298296
C63   C     C_2   0.256083 0.725966 0.845821 -0.286891
C64   C     C_2   0.346633 0.330369 0.732351 -0.299259
C65   C     C_2   0.743416 0.274019 0.845088 -0.287048
C66   C     C_2   0.653442 0.330241 0.267527 -0.299262
C67   C     C_R   0.416849 0.325839 0.860488 -0.258661
C68   C     C_2   0.256288 0.274066 0.154474 -0.286966
C69   C     C_2   0.346691 0.669855 0.267541 -0.298844
C70   C     C_2   0.743671 0.725997 0.154528 -0.286952
C71   C     C_2   0.153443 0.169837 0.232524 -0.299142
C72   C     C_2   0.756227 0.225949 0.345601 -0.287007
C73   C     C_2   0.846691 0.830211 0.232415 -0.298922
C74   C     C_2   0.243624 0.774022 0.345407 -0.286943
C75   C     C_2   0.153479 0.830437 0.767622 -0.299585
C76   C     C_2   0.756605 0.774021 0.654913 -0.287050
C77   C     C_2   0.846808 0.170050 0.767486 -0.298378
C78   C     C_R   0.301981 0.604745 0.900803 -0.141226
C79   C     C_2   0.243811 0.226007 0.654307 -0.286876
C80   C     C_3   0.569818 0.789717 0.185904 -0.253089
C81   C     C_3   0.366027 0.485159 0.239653 -0.132277
C82   C     C_3   0.430243 0.210613 0.186247 -0.253977
C83   C     C_3   0.634326 0.514853 0.239719 -0.133099
C84   C     C_3   0.569845 0.209604 0.814829 -0.250773
C85   C     C_3   0.365495 0.514968 0.760285 -0.132816
C86   C     C_3   0.430249 0.788900 0.813257 -0.255823
C87   C     C_3   0.633341 0.485270 0.760436 -0.131612
C88   C     C_3   0.069784 0.289309 0.686328 -0.254684
C89   C     C_R   0.083157 0.825862 0.639524 -0.258468
C90   C     C_3   0.866613 0.985248 0.739568 -0.131587
C91   C     C_3   0.930161 0.709565 0.685092 -0.250502
C92   C     C_3   0.134856 0.014972 0.739788 -0.133599
C93   C     C_3   0.069793 0.710202 0.314177 -0.252842
C94   C     C_3   0.865949 0.014880 0.260346 -0.132378
C95   C     C_3   0.930212 0.289320 0.313687 -0.254245
C96   C     C_3   0.134198 0.985191 0.260289 -0.133014
H1    H     H_    0.555073 0.273322 0.149074 0.200183
H2    H     H_    0.254101 0.077712 0.593950 0.169770
H3    H     H_    0.944867 0.226833 0.648868 0.200379
H4    H     H_    0.745969 0.922307 0.594442 0.169111
H5    H     H_    0.055112 0.226735 0.350990 0.200318
H6    H     H_    0.254064 0.922307 0.405824 0.169522
H7    H     H_    0.945077 0.773400 0.350836 0.199854
H8    H     H_    0.745920 0.077654 0.405909 0.169380
H9    H     H_    0.619762 0.719231 0.715146 0.101869
H10   H     H_    0.231305 0.706264 0.790973 0.116155
H11   H     H_    0.380540 0.281704 0.714379 0.101846
H12   H     H_    0.754075 0.577701 0.094146 0.169499
H13   H     H_    0.767262 0.293275 0.789666 0.116134
H14   H     H_    0.619563 0.281539 0.285437 0.101830
H15   H     H_    0.231864 0.293634 0.209525 0.116159
H16   H     H_    0.380414 0.718720 0.285290 0.101886
H17   H     H_    0.767982 0.706538 0.209676 0.116109
H18   H     H_    0.119612 0.218589 0.214654 0.101871
H19   H     H_    0.731716 0.206367 0.290585 0.116218
H20   H     H_    0.880446 0.781378 0.214640 0.101827
H21   H     H_    0.267861 0.793473 0.290233 0.116050
H22   H     H_    0.119436 0.781918 0.785750 0.101823
H23   H     H_    0.445056 0.726637 0.149126 0.199993
H24   H     H_    0.732794 0.793289 0.710350 0.116125
H25   H     H_    0.880306 0.219157 0.784949 0.101873
H26   H     H_    0.268374 0.206424 0.709294 0.116012
H27   H     H_    0.626192 0.811862 0.205806 0.171229
H28   H     H_    0.549956 0.746156 0.228408 0.087354
H29   H     H_    0.527766 0.836918 0.188357 0.183031
H30   H     H_    0.373840 0.520422 0.292605 0.154201
H31   H     H_    0.423281 0.477940 0.210125 0.066939
H32   H     H_    0.346820 0.428936 0.260001 0.147905
H33   H     H_    0.373820 0.188769 0.206350 0.170994
H34   H     H_    0.245930 0.422354 0.094119 0.169406
H35   H     H_    0.450357 0.254275 0.228533 0.087545
H36   H     H_    0.472115 0.163268 0.188825 0.183240
H37   H     H_    0.626665 0.479616 0.292700 0.154131
H38   H     H_    0.576993 0.522079 0.210327 0.067100
H39   H     H_    0.653604 0.571078 0.260012 0.148064
H40   H     H_    0.626042 0.186669 0.795451 0.171621
H41   H     H_    0.550622 0.252978 0.771807 0.086406
H42   H     H_    0.527290 0.162814 0.812624 0.182488
H43   H     H_    0.373110 0.479781 0.707254 0.154158
H44   H     H_    0.422866 0.522212 0.789597 0.066949
H45   H     H_    0.555298 0.726950 0.851286 0.200712
H46   H     H_    0.346143 0.571194 0.740079 0.148043
H47   H     H_    0.373689 0.810097 0.792749 0.170708
H48   H     H_    0.450891 0.745133 0.771364 0.088374
H49   H     H_    0.471694 0.836585 0.810516 0.183665
H50   H     H_    0.625225 0.520638 0.707611 0.154250
H51   H     H_    0.576254 0.478037 0.790281 0.066849
H52   H     H_    0.652402 0.429072 0.739862 0.147815
H53   H     H_    0.126257 0.310961 0.706548 0.170956
H54   H     H_    0.049510 0.245644 0.728513 0.087924
H55   H     H_    0.028048 0.336765 0.688929 0.183359
H56   H     H_    0.754028 0.422322 0.905541 0.169093
H57   H     H_    0.874685 0.020591 0.792426 0.154293
H58   H     H_    0.923724 0.978032 0.709763 0.066849
H59   H     H_    0.847544 0.929040 0.760091 0.147764
H60   H     H_    0.873984 0.686549 0.704414 0.171646
H61   H     H_    0.949304 0.752936 0.728164 0.086273
H62   H     H_    0.972774 0.662823 0.687282 0.182410
H63   H     H_    0.127380 0.979807 0.792844 0.154115
H64   H     H_    0.077410 0.022241 0.710632 0.067126
H65   H     H_    0.154290 0.071193 0.759941 0.148159
H66   H     H_    0.126155 0.688029 0.294303 0.171152
H67   H     H_    0.445361 0.273649 0.850533 0.199313
H68   H     H_    0.049922 0.753724 0.271626 0.087156
H69   H     H_    0.027736 0.663002 0.311772 0.183034
H70   H     H_    0.873730 0.979638 0.207377 0.154211
H71   H     H_    0.923222 0.022091 0.289861 0.066926
H72   H     H_    0.846725 0.071109 0.240024 0.147945
H73   H     H_    0.873744 0.310997 0.293488 0.170927
H74   H     H_    0.950465 0.245664 0.271471 0.087760
H75   H     H_    0.971959 0.336767 0.311107 0.183341
H76   H     H_    0.126480 0.020460 0.207335 0.154117
H77   H     H_    0.076897 0.977956 0.289719 0.067084
H78   H     H_    0.245896 0.577659 0.906088 0.169590
H79   H     H_    0.153449 0.928975 0.239950 0.148029
H80   H     H_    0.800805 0.582376 0.666718 0.324874
H81   H     H_    0.258191 0.872424 0.950313 0.308515
H82   H     H_    0.197353 0.416747 0.668472 0.325409
H83   H     H_    0.744164 0.128860 0.951522 0.308192
H84   H     H_    0.802566 0.416746 0.331597 0.325412
H85   H     H_    0.257322 0.128037 0.049319 0.308371
H86   H     H_    0.198133 0.582905 0.332214 0.325198
H87   H     H_    0.743028 0.871754 0.048992 0.308386
H88   H     H_    0.302398 0.083184 0.168325 0.325343
H89   H     H_    0.054619 0.773696 0.649517 0.199230
H90   H     H_    0.757504 0.372034 0.450670 0.308478
H91   H     H_    0.698021 0.917072 0.167809 0.325244
H92   H     H_    0.243199 0.628305 0.451005 0.308298
H93   H     H_    0.303268 0.916409 0.830899 0.325580
H94   H     H_    0.755771 0.628853 0.548460 0.308159
H95   H     H_    0.699126 0.082430 0.833205 0.324924
H96   H     H_    0.242394 0.372128 0.549330 0.308437
N1    N     N_R   0.574080 0.369570 0.076720 -0.067955
N2    N     N_R   0.130430 0.074080 0.576720 -0.090424
N3    N     N_R   0.925920 0.130430 0.576720 -0.068139
N4    N     N_R   0.869570 0.925920 0.576720 -0.090334
N5    N     N_R   0.074080 0.130430 0.423280 -0.068169
N6    N     N_R   0.130430 0.925920 0.423280 -0.090427
N7    N     N_R   0.925920 0.869570 0.423280 -0.067879
N8    N     N_R   0.869570 0.074080 0.423280 -0.090385
N9    N     N_R   0.574050 0.630410 0.076720 -0.114228
N10   N     N_R   0.369590 0.574050 0.076720 -0.124887
N11   N     N_R   0.425950 0.369590 0.076720 -0.114338
N12   N     N_R   0.630430 0.574080 0.076720 -0.090376
N13   N     N_R   0.630410 0.425950 0.076720 -0.124904
N14   N     N_R   0.574050 0.369590 0.923280 -0.114046
N15   N     N_R   0.369590 0.425950 0.923280 -0.124905
N16   N     N_R   0.425950 0.630410 0.923280 -0.114479
N17   N     N_R   0.630410 0.574050 0.923280 -0.124814
N18   N     N_R   0.074050 0.130410 0.576720 -0.114368
N19   N     N_R   0.869590 0.074050 0.576720 -0.124841
N20   N     N_R   0.925950 0.869590 0.576720 -0.114038
N21   N     N_R   0.130410 0.925950 0.576720 -0.124947
N22   N     N_R   0.074050 0.869590 0.423280 -0.114228
N23   N     N_R   0.425920 0.630430 0.076720 -0.068153
N24   N     N_R   0.869590 0.925950 0.423280 -0.124858
N25   N     N_R   0.925950 0.130410 0.423280 -0.114347
N26   N     N_R   0.130410 0.074050 0.423280 -0.124922
N27   N     N_R   0.369570 0.425920 0.076720 -0.090398
N28   N     N_R   0.574080 0.630430 0.923280 -0.068132
N29   N     N_R   0.630430 0.425920 0.923280 -0.090349
N30   N     N_R   0.425920 0.369570 0.923280 -0.067962
N31   N     N_R   0.369570 0.574080 0.923280 -0.090397
N32   N     N_R   0.074080 0.869570 0.576720 -0.067914
Ni1   Ni    Ni4+2 0.500000 0.370760 0.000000 0.272288
Ni2   Ni    Ni4+2 0.629240 0.500000 0.000000 0.191371
Ni3   Ni    Ni4+2 0.500000 0.629240 0.000000 0.271819
Ni4   Ni    Ni4+2 0.370760 0.500000 0.000000 0.191288
Ni5   Ni    Ni4+2 0.000000 0.870760 0.500000 0.272427
Ni6   Ni    Ni4+2 0.129240 0.000000 0.500000 0.191470
Ni7   Ni    Ni4+2 0.000000 0.129240 0.500000 0.271814
Ni8   Ni    Ni4+2 0.870760 0.000000 0.500000 0.191295
O1    O     O_3   0.572940 0.762671 0.107876 -0.575964
O2    O     O_3   0.808775 0.014828 0.688669 -0.585990
O3    O     O_3   0.927041 0.737249 0.607316 -0.575815
O4    O     O_3   0.192013 0.985149 0.688288 -0.586004
O5    O     O_3   0.072945 0.737318 0.392179 -0.575736
O6    O     O_3   0.808421 0.985182 0.311502 -0.585943
O7    O     O_3   0.927073 0.262617 0.391837 -0.575910
O8    O     O_3   0.191667 0.014865 0.311551 -0.585978
O9    O     O_3   0.757888 0.586890 0.705094 -0.707832
O10   O     O_3   0.274895 0.819745 0.941640 -0.703221
O11   O     O_3   0.240686 0.412492 0.706423 -0.707681
O12   O     O_3   0.308464 0.514836 0.188501 -0.585962
O13   O     O_3   0.726638 0.181196 0.942274 -0.703758
O14   O     O_3   0.759257 0.412476 0.293620 -0.707607
O15   O     O_3   0.274331 0.180595 0.058185 -0.703425
O16   O     O_3   0.241290 0.587270 0.294092 -0.707730
O17   O     O_3   0.725893 0.819257 0.057979 -0.703522
O18   O     O_3   0.259128 0.087484 0.206326 -0.707624
O19   O     O_3   0.774458 0.319457 0.441822 -0.703379
O20   O     O_3   0.741210 0.912729 0.205915 -0.707702
O21   O     O_3   0.226008 0.680785 0.442003 -0.703480
O22   O     O_3   0.259813 0.912224 0.793080 -0.707585
O23   O     O_3   0.427080 0.237374 0.108117 -0.575779
O24   O     O_3   0.773323 0.681182 0.557712 -0.703800
O25   O     O_3   0.742069 0.086919 0.794855 -0.707829
O26   O     O_3   0.225484 0.319536 0.558150 -0.703335
O27   O     O_3   0.691737 0.485147 0.188434 -0.585974
O28   O     O_3   0.572970 0.237252 0.892625 -0.575874
O29   O     O_3   0.308182 0.485180 0.811628 -0.585963
O30   O     O_3   0.427083 0.762572 0.891545 -0.575880
O31   O     O_3   0.691213 0.514835 0.811313 -0.585980
O32   O     O_3   0.072928 0.262628 0.608163 -0.575902

loop_
_geom_bond_atom_site_label_1
_geom_bond_atom_site_label_2
_ccdc_geom_bond_type
C92   H65   S    
C36   C89   A    
H94   O24   S    
C19   O2    S    
C53   C71   D    
C43   C72   S    
C96   H79   S    
C81   H30   S    
C26   N26   A    
C24   C42   A    
C88   H53   S    
N2    Ni6   S    
C25   N25   A    
C20   N20   A    
C2    C37   A    
C8    C43   A    
C26   C40   A    
C25   C43   A    
C89   N32   A    
C86   H48   S    
C62   H9    S    
C23   N23   A    
N16   N31   A    
N3    N19   A    
C37   C79   S    
C72   H19   S    
C88   O32   S    
C76   H24   S    
C73   H20   S    
C87   H51   S    
C12   C28   A    
C92   H63   S    
C19   N19   A    
C23   C29   A    
C81   O12   S    
H92   O21   S    
C18   N18   A    
C18   C37   A    
H96   O26   S    
C17   N17   A    
N16   Ni3   S    
C23   H23   S    
C56   N29   A    
N21   N32   A    
C22   C41   A    
C80   H29   S    
C25   O7    S    
C44   C59   S    
C49   C54   S    
C91   O3    S    
C77   H25   S    
C90   O2    S    
N28   Ni3   S    
N9    Ni3   S    
C7    C42   A    
H91   O20   S    
N26   Ni6   S    
C83   H38   S    
C51   C69   D    
N24   Ni8   S    
C41   C74   S    
C95   H75   S    
C94   O6    S    
N4    Ni8   S    
C3    C38   A    
C93   O5    S    
C91   H62   S    
C6    C41   A    
C86   H47   S    
C11   O23   S    
N18   Ni7   S    
C83   O27   S    
H93   O22   S    
C51   C57   S    
C83   H37   S    
C82   H33   S    
N10   N23   A    
C90   H58   S    
C52   O17   S    
C85   H43   S    
C83   H39   S    
C49   O14   S    
C52   C55   S    
C78   N31   A    
C22   O5    S    
C16   O30   S    
C6    H6    S    
H81   O10   S    
C14   C32   A    
C93   H69   S    
C7    H7    S    
C46   C58   S    
C45   H45   S    
N8    N25   A    
C96   O8    S    
C31   C62   S    
C94   H70   S    
C75   H22   S    
C89   H89   S    
C61   O26   S    
C57   O21   S    
C86   O30   S    
C13   N13   A    
H83   O13   S    
C58   C75   D    
C48   C60   S    
C29   C69   S    
N5    Ni7   S    
C70   H17   S    
C82   H35   S    
C44   O9    S    
C5    H5    S    
C60   C77   D    
C50   C53   S    
N1    N13   A    
N19   Ni8   S    
C30   C34   A    
C9    O1    S    
N7    N24   A    
C10   O12   S    
C11   C30   A    
C87   H52   S    
C94   H72   S    
C47   C64   D    
C21   C36   A    
C20   C39   A    
C34   N27   A    
N10   Ni4   S    
N30   Ni1   S    
C44   C62   D    
N29   Ni2   S    
C92   O4    S    
C3    N3    A    
C71   H18   S    
C49   C66   D    
C90   H57   S    
C68   H15   S    
H88   O18   S    
C57   C74   D    
C17   O31   S    
C67   N30   A    
C1    N1    A    
H87   O17   S    
C18   O32   S    
C48   O13   S    
C15   O29   S    
C36   C75   S    
H86   O16   S    
N2    N18   A    
C55   C73   D    
C8    H8    S    
C13   O27   S    
C4    C39   A    
C79   H26   S    
C54   O19   S    
C20   O3    S    
N14   Ni1   S    
N6    Ni6   S    
N3    Ni7   S    
N13   Ni2   S    
C95   O7    S    
C39   C76   S    
C66   H14   S    
C63   H10   S    
C10   N10   A    
C85   H44   S    
C65   H13   S    
H90   O19   S    
C40   C71   S    
C9    N9    A    
H95   O25   S    
C14   N14   A    
C21   O4    S    
C84   H41   S    
C11   N11   A    
C4    H4    S    
C81   H32   S    
C96   H76   S    
C48   C65   D    
C88   H55   S    
C21   N21   A    
C82   O23   S    
C8    N8    A    
C56   H56   S    
N17   Ni2   S    
C46   O10   S    
C1    H1    S    
C50   O15   S    
N6    N22   A    
C86   H49   S    
C87   O31   S    
N11   Ni1   S    
C24   O6    S    
C33   C67   A    
C64   H11   S    
C6    N6    A    
H82   O11   S    
C80   H28   S    
C4    N4    A    
C74   H21   S    
C84   H40   S    
C42   C73   S    
C60   O25   S    
C59   O24   S    
N31   Ni4   S    
N17   N28   A    
C88   H54   S    
C80   O1    S    
C84   O28   S    
C28   C70   S    
C85   O29   S    
C16   N16   A    
C94   H71   S    
C47   C61   S    
C87   H50   S    
C5    N5    A    
H85   O15   S    
C30   C68   S    
C38   C77   S    
N9    N12   A    
N8    Ni8   S    
C35   C78   A    
N27   Ni4   S    
C93   H68   S    
C26   O8    S    
N11   N27   A    
C46   C63   D    
C92   H64   S    
C32   C65   S    
C22   N22   A    
C51   O16   S    
N7    Ni5   S    
N1    Ni1   S    
C91   H60   S    
C16   C35   A    
C27   C66   S    
C14   O28   S    
N32   Ni5   S    
N25   Ni7   S    
N12   Ni2   S    
C47   O11   S    
N20   Ni5   S    
C24   N24   A    
C10   C29   A    
C12   H12   S    
C50   C68   D    
C93   H66   S    
C61   C79   D    
C33   C64   S    
C17   C31   A    
C2    H2    S    
C69   H16   S    
C32   C56   A    
C58   O22   S    
C85   H46   S    
N23   Ni3   S    
C53   O18   S    
C12   N12   A    
C7    N7    A    
C95   H74   S    
C15   N15   A    
C91   H61   S    
C52   C70   D    
C84   H42   S    
N4    N20   A    
C67   H67   S    
C3    H3    S    
N15   Ni4   S    
C19   C38   A    
C54   C72   D    
C34   H34   S    
N15   N30   A    
C31   C45   A    
C5    C40   A    
C1    C27   A    
C45   N28   A    
C78   H78   S    
C55   O20   S    
C13   C27   A    
C35   C63   S    
C96   H77   S    
N14   N29   A    
C95   H73   S    
C2    N2    A    
C90   H59   S    
N22   Ni5   S    
C82   H36   S    
C59   C76   D    
C15   C33   A    
C81   H31   S    
N21   Ni6   S    
N5    N26   A    
C9    C28   A    
H80   O9    S    
C80   H27   S    
H84   O14   S    
