data_mof_unit_4663.cif
_audit_creation_date              2012-12-11T15:15:15-0500
_audit_creation_method            fapswitch 2.2
_symmetry_space_group_name_H-M    P1
_symmetry_Int_Tables_number       1
_space_group_crystal_system       triclinic
_cell_length_a                    19.121916
_cell_length_b                    18.85644
_cell_length_c                    20.509001
_cell_angle_alpha                 106.196304
_cell_angle_beta                  106.112009
_cell_angle_gamma                 111.349014
_cell_volume                      5990.79275257

loop_
_atom_site_label
_atom_site_type_symbol
_atom_type_description
_atom_site_fract_x
_atom_site_fract_y
_atom_site_fract_z
_atom_type_partial_charge
C1    C     C_R   0.086011 0.088440 0.354327 -0.179179
C2    C     C_R   0.763740 0.994264 0.554727 -0.118946
C3    C     C_R   0.760420 0.794048 0.276322 -0.090245
C4    C     C_R   0.960621 0.213798 0.460836 0.045472
C5    C     C_R   0.231361 0.223921 0.646057 0.570117
C6    C     C_R   0.924768 0.757259 0.498139 -0.185904
C7    C     C_R   0.175800 0.929482 0.478396 0.521956
C8    C     C_R   0.022245 0.050068 0.717666 -0.198796
C9    C     C_R   0.951128 0.910663 0.654524 0.649885
C10   C     C_R   0.242855 0.068322 0.544519 -0.223340
C11   C     C_R   0.155377 0.218111 0.711130 0.508344
C12   C     C_R   0.765515 0.926721 0.509884 -0.212032
C13   C     C_R   0.996266 0.763129 0.429758 0.676731
C14   C     C_R   0.233357 0.263744 0.713839 -0.060218
C15   C     C_R   0.951321 0.710953 0.455612 -0.176166
C16   C     C_R   0.250407 0.996498 0.533252 -0.032948
C17   C     C_R   0.000675 0.975391 0.725545 0.057160
C18   C     C_R   0.969651 0.588883 0.397658 -0.200373
C19   C     C_R   0.927422 0.621220 0.432409 0.121751
C20   C     C_R   0.866805 0.568859 0.448057 -0.204547
C21   C     C_R   0.852972 0.486701 0.434215 -0.043020
C22   C     C_R   0.897811 0.456207 0.400799 -0.017716
C23   C     C_R   0.840643 0.818214 0.282852 -0.258045
C24   C     C_R   0.952837 0.506265 0.378926 0.086214
C25   C     C_R   0.798822 0.436018 0.456691 0.615805
C26   C     C_R   0.798217 0.360899 0.454678 -0.391488
C27   C     C_R   0.848165 0.334345 0.427420 0.119099
C28   C     C_R   0.894027 0.379265 0.395873 -0.025990
C29   C     C_R   0.943178 0.351814 0.366754 -0.034477
C30   C     C_R   0.990939 0.398171 0.337301 0.628334
C31   C     C_R   0.995154 0.475371 0.343456 -0.390061
C32   C     C_R   0.860952 0.269954 0.439386 -0.203342
C33   C     C_R   0.920301 0.252223 0.421527 0.089839
C34   C     C_R   0.946656 0.191829 0.516960 -0.089971
C35   C     C_R   0.952281 0.285133 0.376698 -0.207448
C36   C     C_R   0.366132 0.975236 0.598372 0.650004
C37   C     C_R   0.327469 0.997135 0.544203 -0.022005
C38   C     C_R   0.359033 0.016358 0.494629 -0.332151
C39   C     C_R   0.429229 0.012257 0.495903 0.215335
C40   C     C_R   0.471338 0.992382 0.550517 -0.093650
C41   C     C_R   0.441063 0.974822 0.603221 -0.303185
C42   C     C_R   0.457224 0.027459 0.442601 -0.193562
C43   C     C_R   0.527847 0.023372 0.442888 -0.234283
C44   C     C_R   0.571249 0.005591 0.497310 0.207781
C45   C     C_R   0.763042 0.811784 0.347538 0.608963
C46   C     C_R   0.543795 0.990496 0.551877 0.011947
C47   C     C_R   0.589668 0.974862 0.607912 -0.114417
C48   C     C_R   0.562519 0.961153 0.662471 0.407247
C49   C     C_R   0.485873 0.956321 0.657833 0.490268
C50   C     C_R   0.642876 0.004242 0.498681 -0.301872
C51   C     C_R   0.688402 0.990520 0.554674 0.109772
C52   C     C_R   0.662799 0.974770 0.608638 -0.163297
C53   C     C_R   0.303589 0.344423 0.768718 -0.291764
C54   C     C_R   0.297113 0.418734 0.785099 0.436123
C55   C     C_R   0.369524 0.495982 0.834747 0.400228
C56   C     C_R   0.024429 0.198519 0.453040 -0.153924
C57   C     C_R   0.444410 0.495683 0.868412 -0.346651
C58   C     C_R   0.452214 0.423297 0.842215 0.355859
C59   C     C_R   0.380900 0.346683 0.795700 0.457436
C60   C     C_R   0.587981 0.712491 0.090336 -0.210296
C61   C     C_R   0.660160 0.767668 0.155431 -0.204114
C62   C     C_R   0.639311 0.657314 0.198515 -0.322148
C63   C     C_R   0.565793 0.602315 0.134752 0.603117
C64   C     C_R   0.543651 0.628240 0.077618 -0.089633
C65   C     C_2   0.505198 0.560955 0.943049 0.561205
C66   C     C_2   0.483608 0.565206 0.001588 0.430544
C67   C     C_R   0.833097 0.066249 0.570916 0.578175
C68   C     C_R   0.686570 0.738717 0.207973 0.100523
C69   C     C_R   0.107651 0.033050 0.238867 -0.095734
C70   C     C_R   0.137939 0.978219 0.212074 0.463610
C71   C     C_R   0.179881 0.993125 0.166512 0.429775
C72   C     C_R   0.181570 0.055202 0.140619 -0.054022
C73   C     C_R   0.155753 0.111782 0.170974 -0.193046
C74   C     C_R   0.119912 0.101299 0.220212 -0.282283
C75   C     C_R   0.057257 0.013554 0.927264 0.435932
C76   C     C_R   0.018743 0.010724 0.857183 0.410618
C77   C     C_R   0.075201 0.923883 0.803544 0.411405
C78   C     C_R   0.017724 0.949432 0.291113 -0.110328
C79   C     C_R   0.117774 0.931047 0.875210 0.402761
C80   C     C_R   0.109133 0.976164 0.936852 -0.361635
C81   C     C_2   0.192755 0.052197 0.071967 -0.108124
C82   C     C_2   0.149038 0.978890 0.010585 0.058505
C83   C     C_R   0.029650 0.967759 0.795814 -0.316089
C84   C     C_R   0.066241 0.023335 0.288948 0.151891
H1    H     H_    0.133436 0.152828 0.375691 0.093962
H2    H     H_    0.292444 0.131679 0.578613 0.210836
H3    H     H_    0.762165 0.326004 0.478283 0.159819
H4    H     H_    0.831149 0.240431 0.469458 0.103957
H5    H     H_    0.860023 0.809865 0.237799 0.135507
H6    H     H_    0.695947 0.831896 0.164252 0.140878
H7    H     H_    0.125290 0.919493 0.015015 0.154365
H8    H     H_    0.051311 0.207910 0.414479 0.101040
N1    N     N_R   0.052580 0.056040 0.395500 -0.043784
N2    N     N_R   0.954640 0.834860 0.500130 -0.078958
N3    N     N_R   0.122510 0.958490 0.460420 -0.099580
N4    N     N_R   0.990180 0.030970 0.644220 -0.074016
N5    N     N_R   0.947420 0.943960 0.604500 -0.123423
N6    N     N_R   0.165270 0.045500 0.500140 -0.076366
N7    N     N_R   0.109790 0.150600 0.644220 -0.125953
N8    N     N_R   0.002890 0.838860 0.460420 -0.107288
N9    N     N_R   0.834730 0.954500 0.499860 -0.077802
N10   N     N_R   0.890210 0.849400 0.355780 -0.069959
N11   N     N_R   0.997110 0.161140 0.539580 -0.029136
N12   N     N_R   0.841950 0.845400 0.395490 -0.099328
N13   N     N_R   0.045360 0.165140 0.499870 -0.055887
N14   N     N_R   0.877490 0.041510 0.539580 -0.096689
N15   N     N_R   0.009820 0.969030 0.355780 -0.043631
N16   N     N_R   0.158050 0.154600 0.604510 -0.152627
Ni1   Ni    Ni4+2 0.104370 0.104380 0.500010 0.186681
Ni2   Ni    Ni4+2 0.895630 0.895620 0.499990 0.200120
Ni3   Ni    Ni4+2 0.006300 0.904810 0.408930 0.217396
Ni4   Ni    Ni4+2 0.993700 0.095190 0.591070 0.291602
H9    H     H_    0.876400 0.731199 0.514860 0.180818
O1    O     O_3   0.165049 0.851494 0.437457 -0.645724
C85   C     C_3   0.156853 0.844233 0.365042 -0.043199
H10   H     H_    0.213766 0.891757 0.367032 0.121113
H11   H     H_    0.102072 0.849446 0.335059 0.165111
H12   H     H_    0.147472 0.781248 0.332011 0.153560
H13   H     H_    0.058693 0.112178 0.762347 0.197950
O2    O     O_3   0.904511 0.827623 0.639322 -0.631847
C86   C     C_3   0.819858 0.804196 0.604467 -0.352641
H14   H     H_    0.802898 0.802557 0.547496 0.159467
H15   H     H_    0.803087 0.846564 0.639048 0.138457
H16   H     H_    0.782535 0.739752 0.598025 0.191975
O3    O     O_3   0.119578 0.247996 0.754445 -0.577644
C87   C     C_3   0.167844 0.274721 0.831071 -0.240912
H17   H     H_    0.212728 0.342295 0.856858 0.156407
H18   H     H_    0.199995 0.237482 0.841598 0.088300
H19   H     H_    0.126165 0.267056 0.859882 0.187025
O4    O     O_3   0.003783 0.736538 0.363201 -0.627874
C88   C     C_3   0.925414 0.690276 0.300853 -0.298603
H20   H     H_    0.872612 0.690841 0.313728 0.140942
H21   H     H_    0.911586 0.623942 0.274310 0.170037
H22   H     H_    0.928543 0.716435 0.258917 0.155749
H23   H     H_    0.019541 0.628673 0.388486 0.180123
H24   H     H_    0.833492 0.593020 0.474326 0.164151
O5    O     O_3   0.754506 0.464607 0.489530 -0.615879
C89   C     C_3   0.672299 0.425994 0.435147 -0.280833
H25   H     H_    0.669821 0.441640 0.386313 0.135811
H26   H     H_    0.636906 0.450309 0.460649 0.177338
H27   H     H_    0.641370 0.356579 0.416258 0.141407
H28   H     H_    0.723963 0.861803 0.494298 0.186592
H29   H     H_    0.993210 0.267013 0.357962 0.157464
O6    O     O_3   0.034427 0.368606 0.303726 -0.612058
C90   C     C_3   0.119255 0.413846 0.353685 -0.289792
H30   H     H_    0.152454 0.384762 0.329303 0.176497
H31   H     H_    0.129336 0.410963 0.408857 0.128488
H32   H     H_    0.146966 0.480361 0.361508 0.148026
H33   H     H_    0.034383 0.512720 0.323425 0.161064
O7    O     O_3   0.335665 0.962741 0.650497 -0.587019
C91   C     C_3   0.264891 0.882755 0.617348 -0.133548
H34   H     H_    0.263697 0.835167 0.569663 0.107577
H35   H     H_    0.207749 0.888559 0.598947 0.139479
H36   H     H_    0.263891 0.858329 0.660595 0.156521
H37   H     H_    0.326991 0.032711 0.453361 0.149293
H38   H     H_    0.424248 0.042116 0.400542 0.117170
H39   H     H_    0.549115 0.035131 0.401273 0.125976
H40   H     H_    0.664814 0.015871 0.457244 0.118248
H41   H     H_    0.700436 0.963762 0.650915 0.159276
O8    O     O_3   0.608954 0.948462 0.718663 -0.619737
C92   C     C_3   0.660534 0.026266 0.782121 -0.217010
H42   H     H_    0.623483 0.051379 0.804419 0.169966
H43   H     H_    0.703527 0.073138 0.769518 0.124767
H44   H     H_    0.698963 0.016553 0.826780 0.160543
O9    O     O_3   0.458037 0.939273 0.710046 -0.560982
C93   C     C_3   0.426829 0.852592 0.692022 -0.143964
H45   H     H_    0.477821 0.836640 0.706583 0.164890
H46   H     H_    0.382867 0.812651 0.631854 0.085396
H47   H     H_    0.392276 0.836928 0.725813 0.144144
O10   O     O_3   0.221976 0.413625 0.745722 -0.603913
C94   C     C_3   0.196525 0.458174 0.793260 -0.005569
H48   H     H_    0.211358 0.519909 0.791157 0.148143
H49   H     H_    0.223604 0.467451 0.852506 0.120659
H50   H     H_    0.128184 0.421997 0.771695 0.142329
H51   H     H_    0.660292 0.636162 0.240440 0.159556
O11   O     O_3   0.404643 0.511756 0.991456 -0.612874
C95   C     C_3   0.393779 0.429764 0.978191 -0.183790
H52   H     H_    0.367619 0.408552 0.015400 0.180760
H53   H     H_    0.451292 0.423850 0.987081 0.151719
H54   H     H_    0.348003 0.385711 0.920235 0.081875
O12   O     O_3   0.527227 0.424673 0.871768 -0.608629
C96   C     C_3   0.563011 0.428156 0.820417 -0.126041
H55   H     H_    0.624350 0.431593 0.844679 0.135365
H56   H     H_    0.573359 0.485406 0.810257 0.128412
H57   H     H_    0.524536 0.370692 0.766475 0.168893
H58   H     H_    0.569655 0.733688 0.047709 0.173021
O13   O     O_3   0.387287 0.273654 0.774454 -0.574554
C97   C     C_3   0.379749 0.240096 0.827084 -0.187883
H59   H     H_    0.318219 0.223003 0.828455 0.091012
H60   H     H_    0.430263 0.284356 0.884092 0.148335
H61   H     H_    0.384961 0.181670 0.810023 0.183392
H62   H     H_    0.901246 0.194940 0.537280 0.116673
O14   O     O_3   0.582824 0.615066 0.951141 -0.638653
C98   C     C_3   0.645271 0.599715 0.990506 -0.189555
H63   H     H_    0.622868 0.546945 0.006958 0.138202
H64   H     H_    0.692174 0.657610 0.042018 0.147008
H65   H     H_    0.677295 0.585661 0.955120 0.166285
O15   O     O_3   0.365837 0.570385 0.855908 -0.602266
C99   C     C_3   0.398856 0.615255 0.817658 -0.225648
H66   H     H_    0.363803 0.578108 0.755774 0.137229
H67   H     H_    0.465887 0.634416 0.834915 0.163901
H68   H     H_    0.393041 0.673450 0.832315 0.161361
O16   O     O_3   0.522287 0.520450 0.124484 -0.632875
C100  C     C_3   0.481911 0.519529 0.172580 -0.246695
H69   H     H_    0.440841 0.548525 0.163008 0.155235
H70   H     H_    0.527042 0.551275 0.232453 0.143485
H71   H     H_    0.442203 0.453174 0.160179 0.158811
O17   O     O_3   0.132315 0.914905 0.235357 -0.637878
C101  C     C_3   0.078166 0.835688 0.173531 -0.281436
H72   H     H_    0.056965 0.787746 0.195005 0.146733
H73   H     H_    0.110710 0.817013 0.140521 0.210694
H74   H     H_    0.021644 0.833675 0.136551 0.112092
O18   O     O_3   0.975111 0.055229 0.851479 -0.572697
C102  C     C_3   0.889508 0.999196 0.807211 -0.134919
H75   H     H_    0.868584 0.936508 0.808904 0.087722
H76   H     H_    0.872965 0.990988 0.748323 0.134363
H77   H     H_    0.854170 0.027565 0.828524 0.153162
O19   O     O_3   0.086907 0.884135 0.742740 -0.608604
C103  C     C_3   0.047616 0.796423 0.720774 -0.068897
H78   H     H_    0.986454 0.772193 0.723608 0.137021
H79   H     H_    0.088554 0.778680 0.754860 0.153688
H80   H     H_    0.036030 0.764544 0.661568 0.147539
H81   H     H_    0.157820 0.160679 0.152405 0.177950
O20   O     O_3   0.047522 0.057467 0.987484 -0.577020
C104  C     C_3   0.980864 0.000795 0.994700 -0.157560
H82   H     H_    0.992497 0.950487 0.005279 0.103957
H83   H     H_    0.921555 0.972537 0.944534 0.122987
H84   H     H_    0.974006 0.035976 0.043661 0.165558
H85   H     H_    0.097891 0.144384 0.240976 0.166192
O21   O     O_3   0.696846 0.785474 0.366261 -0.647488
C105  C     C_3   0.639960 0.811611 0.335883 -0.281135
H86   H     H_    0.594411 0.764844 0.278002 0.166242
H87   H     H_    0.670872 0.875405 0.337628 0.130259
H88   H     H_    0.604179 0.814942 0.369904 0.174982
H89   H     H_    0.212431 0.110196 0.064633 0.138350
O22   O     O_3   0.214873 0.943940 0.143761 -0.622034
C106  C     C_3   0.297057 0.981705 0.197926 -0.199318
H90   H     H_    0.299098 0.984608 0.253448 0.143236
H91   H     H_    0.334785 0.045665 0.203031 0.121062
H92   H     H_    0.325664 0.942734 0.179825 0.165853
O23   O     O_3   0.167911 0.893878 0.885137 -0.600158
C107  C     C_3   0.247744 0.950550 0.897204 -0.154402
H93   H     H_    0.288330 0.921275 0.906184 0.157181
H94   H     H_    0.275666 0.010120 0.948248 0.119961
H95   H     H_    0.246632 0.964120 0.847584 0.155030
O24   O     O_3   0.870455 0.141967 0.633481 -0.604775
C108  C     C_3   0.817169 0.177639 0.632693 -0.246092
H96   H     H_    0.774162 0.151011 0.656658 0.161548
H97   H     H_    0.782507 0.170815 0.575801 0.106214
H98   H     H_    0.855405 0.246032 0.669304 0.176121
H99   H     H_    0.000065 0.886395 0.254302 0.118217
O25   O     O_3   0.288668 0.261366 0.620792 -0.608245
C109  C     C_3   0.248880 0.265362 0.554063 -0.267350
H100  H     H_    0.206248 0.291941 0.558881 0.151971
H101  H     H_    0.216269 0.202871 0.506096 0.149773
H102  H     H_    0.296830 0.308020 0.542644 0.164776

loop_
_geom_bond_atom_site_label_1
_geom_bond_atom_site_label_2
_ccdc_geom_bond_type
C98   H64   S    
O16   C100  S    
C15   C19   S    
O9    C93   S    
C60   H58   S    
C85   H11   S    
C73   C74   A    
C54   O10   S    
C3    C23   A    
C3    C68   S    
C8    N4    A    
C94   H48   S    
C88   H22   S    
C2    C12   A    
O20   C104  S    
C101  H74   S    
O1    C85   S    
C53   C59   A    
N3    N6    A    
O19   C103  S    
C10   C16   A    
N14   Ni4   S    
C53   C54   A    
O22   C106  S    
C1    C84   A    
C40   C46   A    
N7    N16   A    
C48   O8    S    
C26   C27   A    
C37   C38   A    
C63   O16   S    
C97   H61   S    
C18   C24   A    
C7    O1    S    
C11   N7    A    
C28   C29   A    
C11   O3    S    
C104  H82   S    
C18   C19   A    
C109  H100  S    
C31   H33   S    
C67   O24   S    
C102  H76   S    
C77   O19   S    
C55   O15   S    
O10   C94   S    
C62   H51   S    
C70   O17   S    
C85   H10   S    
C32   H4    S    
O12   C96   S    
C104  H84   S    
C30   O6    S    
N16   Ni1   S    
C97   H60   S    
O23   C107  S    
C46   C47   A    
C91   H36   S    
C10   N6    A    
C96   H55   S    
C86   H16   S    
C21   C25   A    
C90   H31   S    
C6    C15   A    
C54   C55   A    
C76   O18   S    
C10   H2    S    
C19   C20   A    
C12   H28   S    
C26   H3    S    
C6    N2    A    
C99   H68   S    
C9    N5    A    
C13   O4    S    
C81   H89   S    
C59   O13   S    
O15   C99   S    
C75   C80   A    
O24   C108  S    
C72   C81   S    
C16   C37   S    
C72   C73   A    
C85   H12   S    
C52   H41   S    
C77   C79   A    
C98   H63   S    
C99   H66   S    
N6    Ni1   S    
C22   C28   A    
C21   C22   A    
C4    C56   A    
C91   H35   S    
C93   H46   S    
C78   H99   S    
C25   O5    S    
C5    O25   S    
C66   O11   S    
C36   C41   A    
O21   C105  S    
C38   H37   S    
C74   H85   S    
C76   C83   A    
C41   C49   A    
C92   H44   S    
C92   H43   S    
C44   C46   A    
C90   H30   S    
C39   C42   A    
C65   O14   S    
C108  H97   S    
C1    H1    S    
C38   C39   A    
C104  H83   S    
C94   H50   S    
C4    C34   A    
C107  H95   S    
C73   H81   S    
C51   C52   A    
C69   C74   A    
C23   N10   A    
C80   C82   S    
C2    C67   A    
C2    C51   S    
C39   C40   A    
C109  H101  S    
C102  H75   S    
O17   C101  S    
C87   H19   S    
C50   C51   A    
C25   C26   A    
O18   C102  S    
C3    C45   A    
C1    N1    A    
C81   C82   D    
C82   H7    S    
C79   C80   A    
C60   C61   A    
C17   C83   S    
C96   H57   S    
C64   C66   S    
C42   H38   S    
C75   C76   A    
C97   H59   S    
C6    H9    S    
C49   O9    S    
C29   C30   A    
C33   C35   A    
C45   N12   A    
C103  H79   S    
C94   H49   S    
C107  H94   S    
C47   C48   A    
C100  H71   S    
N2    N8    A    
C91   H34   S    
C95   H54   S    
N4    N5    A    
C20   C21   A    
C62   C63   A    
C23   H5    S    
C101  H72   S    
C86   H14   S    
C18   H23   S    
N11   N13   A    
C11   C14   A    
C71   O22   S    
C20   H24   S    
N10   Ni3   S    
C13   C15   A    
C5    C14   A    
C70   C71   A    
C89   H26   S    
N8    Ni3   S    
C9    C17   A    
O11   C95   S    
C105  H86   S    
C100  H70   S    
C75   O20   S    
C95   H52   S    
C106  H91   S    
C43   C44   A    
O3    C87   S    
C22   C24   A    
C58   C59   A    
C42   C43   A    
C88   H20   S    
C103  H78   S    
C90   H32   S    
C61   H6    S    
N12   Ni2   S    
C108  H98   S    
C44   C50   A    
N9    N14   A    
C50   H40   S    
N13   Ni1   S    
C4    C33   S    
C40   C41   A    
C87   H18   S    
C107  H93   S    
C27   C32   A    
O7    C91   S    
N15   Ni3   S    
C7    C16   A    
C34   N11   A    
C57   C65   S    
O6    C90   S    
C88   H21   S    
C89   H27   S    
C102  H77   S    
C109  H102  S    
C108  H96   S    
C67   N14   A    
C47   C52   A    
C7    N3    A    
O5    C89   S    
C29   C35   A    
C8    C17   A    
N4    Ni4   S    
C62   C68   A    
C60   C64   A    
O8    C92   S    
C13   N8    A    
C55   C57   A    
O4    C88   S    
N9    Ni2   S    
C24   C31   A    
C12   N9    A    
C65   C66   D    
C69   C84   S    
C92   H42   S    
C32   C33   A    
C103  H80   S    
C58   O12   S    
N5    Ni2   S    
C61   C68   A    
C36   O7    S    
C57   C58   A    
C30   C31   A    
C93   H45   S    
C95   H53   S    
N10   N12   A    
C87   H17   S    
C48   C49   A    
N7    Ni4   S    
C34   H62   S    
C101  H73   S    
N2    Ni2   S    
C105  H88   S    
C79   O23   S    
C43   H39   S    
C69   C70   A    
C96   H56   S    
C56   N13   A    
C86   H15   S    
C89   H25   S    
C105  H87   S    
C63   C64   A    
C98   H65   S    
C78   C84   A    
O13   C97   S    
C14   C53   S    
C71   C72   A    
C100  H69   S    
C93   H47   S    
C36   C37   A    
O14   C98   S    
C45   O21   S    
C106  H92   S    
C35   H29   S    
C27   C28   A    
C99   H67   S    
C9    O2    S    
C77   C83   A    
O2    C86   S    
N11   Ni4   S    
C78   N15   A    
N3    Ni3   S    
C106  H90   S    
C56   H8    S    
N1    N15   A    
C8    H13   S    
N1    Ni1   S    
O25   C109  S    
C5    N16   A    
