data_mof_unit_2843.cif
_audit_creation_date              2012-12-11T14:58:28-0500
_audit_creation_method            fapswitch 2.2
_symmetry_space_group_name_H-M    P1
_symmetry_Int_Tables_number       1
_space_group_crystal_system       triclinic
_cell_length_a                    10.937959
_cell_length_b                    10.906484
_cell_length_c                    18.784186
_cell_angle_alpha                 90.291684
_cell_angle_beta                  90.414398
_cell_angle_gamma                 59.842975
_cell_volume                      1937.50457781

loop_
_atom_site_label
_atom_site_type_symbol
_atom_type_description
_atom_site_fract_x
_atom_site_fract_y
_atom_site_fract_z
_atom_type_partial_charge
C1    C     C_R   0.359069 0.773197 0.397806 0.542896
C2    C     C_R   0.612922 0.116660 0.166271 0.058640
C3    C     C_R   0.359819 0.331101 0.162478 -0.002760
C4    C     C_R   0.479586 0.238196 0.274013 -0.151148
C5    C     C_R   0.482682 0.232674 0.200455 -0.025695
C6    C     C_R   0.067995 0.710529 0.281646 -0.086879
C7    C     C_R   0.948712 0.825045 0.312052 -0.113247
C8    C     C_R   0.670847 0.975631 0.189660 -0.095166
C9    C     C_R   0.787564 0.865416 0.155275 -0.124283
C10   C     C_R   0.246768 0.442436 0.198897 -0.154239
C11   C     C_R   0.245248 0.450491 0.273021 -0.032972
C12   C     C_R   0.386106 0.354958 0.387315 0.532937
C13   C     C_R   0.878119 0.802415 0.367470 -0.118141
C14   C     C_R   0.926869 0.665195 0.392639 -0.102980
C15   C     C_R   0.045589 0.550162 0.362056 -0.047902
C16   C     C_R   0.118793 0.571691 0.306747 0.058225
C17   C     C_R   0.362894 0.343666 0.311340 -0.002530
C18   C     C_R   0.955395 0.301886 0.307924 -0.157662
C19   C     C_R   0.984187 0.293293 0.235738 -0.126942
C20   C     C_R   0.874786 0.331978 0.185860 0.037200
C21   C     C_R   0.736072 0.382836 0.207429 -0.152511
C22   C     C_R   0.706956 0.393609 0.279569 -0.117711
C23   C     C_R   0.778396 0.377817 0.403246 0.531591
C24   C     C_R   0.816657 0.353291 0.329517 0.040651
C25   C     C_R   0.470929 0.788344 0.287198 -0.142137
C26   C     C_R   0.458696 0.814800 0.214393 -0.153676
C27   C     C_R   0.324215 0.888279 0.184154 0.033146
C28   C     C_R   0.203167 0.946055 0.227488 -0.142368
C29   C     C_R   0.215262 0.921295 0.299553 -0.150096
C30   C     C_R   0.348277 0.835910 0.328918 0.029701
C31   C     C_R   0.360416 0.206397 0.692491 -0.167174
C32   C     C_R   0.346202 0.192567 0.764416 -0.190460
C33   C     C_R   0.299871 0.310250 0.810013 0.078346
C34   C     C_R   0.345093 0.768556 0.604920 0.544445
C35   C     C_R   0.258623 0.444101 0.783088 0.384726
C36   C     C_R   0.268967 0.458856 0.710659 -0.096310
C37   C     C_R   0.324740 0.338919 0.665834 -0.027526
C38   C     C_R   0.904949 0.397758 0.706130 -0.126215
C39   C     C_R   0.932866 0.389497 0.778826 0.246060
C40   C     C_R   0.920807 0.287732 0.820040 0.031579
C41   C     C_R   0.878786 0.198518 0.787483 -0.186806
C42   C     C_R   0.838848 0.217368 0.715918 -0.154509
C43   C     C_R   0.846171 0.321809 0.676007 -0.013117
C44   C     C_R   0.196170 0.848379 0.711486 -0.134394
C45   C     C_R   0.369179 0.351062 0.595675 0.547612
C46   C     C_R   0.186172 0.858183 0.784664 -0.078788
C47   C     C_R   0.301017 0.841987 0.825494 0.061883
C48   C     C_R   0.428066 0.810132 0.792546 -0.146299
C49   C     C_R   0.438927 0.798213 0.719208 -0.147555
C50   C     C_R   0.323197 0.816281 0.678288 0.022220
C51   C     C_R   0.910666 0.316170 0.111838 0.539608
C52   C     C_R   0.329687 0.295210 0.091943 0.542950
C53   C     C_R   0.301095 0.910749 0.108335 0.554107
C54   C     C_R   0.948233 0.281071 0.896859 0.586754
C55   C     C_R   0.294265 0.287013 0.884810 0.593706
C56   C     C_R   0.769558 0.372949 0.608810 0.551271
C57   C     C_R   0.275894 0.892938 0.898146 0.551170
C58   C     C_R   0.848303 0.894548 0.097469 -0.116078
C59   C     C_R   0.792204 0.033943 0.073892 -0.085102
C60   C     C_R   0.676366 0.144907 0.108561 -0.056755
Cr1   Cr    Cr6+3 0.601770 0.606860 0.505860 0.993500
Cr2   Cr    Cr6+3 0.291380 0.601660 0.495070 1.019683
Cr3   Cr    Cr6+3 0.606880 0.291510 0.499120 1.008896
Cr4   Cr    Cr6+3 0.062440 0.063090 0.008210 0.981500
Cr5   Cr    Cr6+3 0.062880 0.375170 0.998920 1.038304
Cr6   Cr    Cr6+3 0.374700 0.061720 0.992470 1.012920
H1    H     H_    0.573849 0.161140 0.302168 0.141119
H2    H     H_    0.785891 0.891235 0.391008 0.110754
H3    H     H_    0.873185 0.648231 0.436284 0.130754
H4    H     H_    0.082581 0.444985 0.382766 0.095923
H5    H     H_    0.040125 0.268675 0.346479 0.096133
H6    H     H_    0.091902 0.254729 0.218536 0.124765
H7    H     H_    0.651199 0.415569 0.168949 0.102189
H8    H     H_    0.598574 0.436057 0.296679 0.125947
H9    H     H_    0.575464 0.721850 0.309632 0.145187
H10   H     H_    0.552442 0.771873 0.181630 0.123161
H11   H     H_    0.097668 0.006553 0.205206 0.150161
H12   H     H_    0.830498 0.757242 0.173308 0.123777
H13   H     H_    0.120640 0.960692 0.331422 0.128804
H14   H     H_    0.403811 0.113664 0.658361 0.134756
H15   H     H_    0.374961 0.088935 0.784932 0.143807
H16   H     H_    0.243457 0.561918 0.690535 0.153329
H17   H     H_    0.917168 0.473740 0.674561 0.124009
H18   H     H_    0.868345 0.120569 0.818194 0.132714
H19   H     H_    0.794773 0.156416 0.693169 0.140999
H20   H     H_    0.105971 0.860789 0.681191 0.127298
H21   H     H_    0.910764 0.931426 0.292456 0.115446
H22   H     H_    0.086393 0.884320 0.808866 0.141938
H23   H     H_    0.516969 0.799658 0.823305 0.120206
H24   H     H_    0.539080 0.770688 0.694935 0.128941
H25   H     H_    0.938188 0.809023 0.070630 0.112563
H26   H     H_    0.837629 0.055760 0.028158 0.148939
H27   H     H_    0.633162 0.252012 0.088907 0.099551
H28   H     H_    0.121205 0.730216 0.238634 0.117581
H29   H     H_    0.624344 0.950542 0.233855 0.109465
H30   H     H_    0.153447 0.518473 0.169694 0.134483
O1    O     O_R   0.748800 0.497470 0.428000 -0.533373
O2    O     O_R   0.300070 0.471040 0.567100 -0.511678
O3    O     O_R   0.491670 0.258900 0.574910 -0.513082
O4    O     O_R   0.718780 0.304180 0.577850 -0.499324
O5    O     O_3   0.500010 0.500010 0.500020 -0.243317
O6    O     O_R   0.186690 0.923650 0.086970 -0.527869
O7    O     O_R   0.957250 0.194250 0.084630 -0.516911
O8    O     O_R   0.934970 0.407490 0.085330 -0.519088
O9    O     O_R   0.203780 0.365190 0.067090 -0.510371
O10   O     O_R   0.417600 0.174890 0.067840 -0.503447
O11   O     O_R   0.375320 0.946260 0.070860 -0.491171
O12   O     O_R   0.476420 0.724060 0.429470 -0.512181
O13   O     O_R   0.160600 0.919630 0.926660 -0.524099
O14   O     O_R   0.933060 0.190520 0.936020 -0.533778
O15   O     O_R   0.908880 0.403460 0.925020 -0.473614
O16   O     O_R   0.179600 0.361450 0.918490 -0.445075
O17   O     O_R   0.391510 0.170860 0.907530 -0.547358
O18   O     O_R   0.351130 0.942530 0.922260 -0.517663
O19   O     O_3   0.166667 0.166667 0.999870 -0.283300
O20   O     O_R   0.264580 0.744340 0.416750 -0.505010
O21   O     O_R   0.309380 0.472470 0.418200 -0.493039
O22   O     O_R   0.501710 0.260430 0.414300 -0.533019
O23   O     O_R   0.728090 0.305600 0.428960 -0.504630
O24   O     O_R   0.738760 0.495930 0.588610 -0.532265
O25   O     O_R   0.467110 0.722640 0.578360 -0.505608
O26   O     O_R   0.254530 0.742800 0.577360 -0.529814
F1    F     F_    0.216681 0.557331 0.826925 -0.656774
O27   O     O_3   0.971788 0.480359 0.810619 -0.524297
C61   C     C_3   0.873174 0.624143 0.794769 0.019391
H31   H     H_    0.764733 0.643224 0.783295 0.107173
H32   H     H_    0.910716 0.657884 0.748016 0.131195
C62   C     C_3   0.861611 0.717134 0.858036 -0.330184
H33   H     H_    0.966298 0.704416 0.871312 0.217908
H34   H     H_    0.787292 0.830149 0.844988 0.072566
H35   H     H_    0.821020 0.687837 0.905126 0.160313

loop_
_geom_bond_atom_site_label_1
_geom_bond_atom_site_label_2
_ccdc_geom_bond_type
C33   C55   S    
Cr4   O7    S    
Cr6   O17   S    
C55   O16   A    
C56   O24   A    
C41   C42   A    
C35   C36   A    
C49   H24   S    
Cr3   O5    S    
C62   H33   S    
C31   H14   S    
Cr4   O6    S    
C32   H15   S    
C26   C27   A    
Cr3   O4    S    
C18   C24   A    
C28   C29   A    
C18   C19   A    
C20   C51   S    
C45   O2    A    
C23   O23   A    
C38   C39   A    
C38   H17   S    
C2    C60   A    
C51   O7    A    
C15   C16   A    
C21   H7    S    
C18   H5    S    
C54   O14   A    
Cr1   O25   S    
C9    C58   A    
Cr1   O12   S    
Cr5   O15   S    
Cr2   O21   S    
Cr3   O3    S    
Cr2   O2    S    
C57   O13   A    
C31   C32   A    
C36   H16   S    
C8    C9    A    
C6    H28   S    
C12   C17   S    
C61   C62   S    
C26   H10   S    
C23   C24   S    
C1    O20   A    
C58   H25   S    
Cr6   O11   S    
C59   H26   S    
Cr2   O5    S    
C60   H27   S    
C52   O10   A    
C59   C60   A    
C34   O26   A    
Cr4   O19   S    
C21   C22   A    
Cr1   O24   S    
Cr5   O19   S    
C19   H6    S    
C8    H29   S    
Cr6   O10   S    
C44   H20   S    
Cr5   O9    S    
C44   C46   A    
C46   H22   S    
Cr1   O1    S    
C34   C50   S    
Cr6   O19   S    
C45   O3    A    
C39   C40   A    
Cr3   O22   S    
C55   O17   A    
C51   O8    A    
C41   H18   S    
C39   O27   S    
C31   C37   A    
C25   H9    S    
Cr1   O5    S    
Cr5   O16   S    
Cr2   O20   S    
C29   C30   A    
C47   C57   S    
Cr3   O23   S    
C11   C16   S    
C53   O11   A    
Cr4   O14   S    
C47   C48   A    
C29   H13   S    
C10   H30   S    
C53   O6    A    
C42   H19   S    
C28   H11   S    
C57   O18   A    
C12   O22   A    
C4    C17   A    
C40   C41   A    
C23   O1    A    
C52   O9    A    
C34   O25   A    
C40   C54   S    
C48   H23   S    
C61   H31   S    
C14   H3    S    
C22   C24   A    
C58   C59   A    
C2    C5    S    
C42   C43   A    
C22   H8    S    
C37   C45   S    
C62   H35   S    
Cr2   O26   S    
C44   C50   A    
C25   C30   A    
C15   H4    S    
C46   C47   A    
C11   C17   A    
Cr6   O18   S    
C2    C8    A    
C4    C5    A    
C3    C5    A    
C62   H34   S    
C4    H1    S    
C3    C52   S    
C27   C53   S    
C6    C7    A    
C32   C33   A    
C19   C20   A    
C35   F1    S    
C25   C26   A    
C38   C43   A    
C3    C10   A    
Cr4   O13   S    
C48   C49   A    
C1    C30   S    
C33   C35   A    
C54   O15   A    
C9    H12   S    
C10   C11   A    
C1    O12   A    
C6    C16   A    
C12   O21   A    
C43   C56   S    
C7    C13   A    
C7    H21   S    
C20   C21   A    
C36   C37   A    
C49   C50   A    
C27   C28   A    
C61   H32   S    
C56   O4    A    
C14   C15   A    
Cr5   O8    S    
C13   C14   A    
O27   C61   S    
C13   H2    S    
