data_mof_unit_3251.cif
_audit_creation_date              2012-12-11T16:28:33-0500
_audit_creation_method            fapswitch 2.2
_symmetry_space_group_name_H-M    P1
_symmetry_Int_Tables_number       1
_space_group_crystal_system       triclinic
_cell_length_a                    17.075721
_cell_length_b                    7.279373
_cell_length_c                    14.797289
_cell_angle_alpha                 89.355706
_cell_angle_beta                  94.569187
_cell_angle_gamma                 89.609785
_cell_volume                      1833.29475433

loop_
_atom_site_label
_atom_site_type_symbol
_atom_type_description
_atom_site_fract_x
_atom_site_fract_y
_atom_site_fract_z
_atom_type_partial_charge
O1    O     O_R   0.663460 0.361760 0.165970 -0.557134
O2    O     O_R   0.336540 0.638240 0.834030 -0.516050
O3    O     O_R   0.836540 0.861760 0.334030 -0.555185
O4    O     O_R   0.163460 0.138240 0.665970 -0.481747
O5    O     O_R   0.827100 0.689870 0.163730 -0.536791
O6    O     O_R   0.172900 0.310130 0.836270 -0.505139
O7    O     O_R   0.672900 0.189870 0.336270 -0.536378
O8    O     O_R   0.327100 0.810130 0.663730 -0.529575
C1    C     C_R   0.854038 0.523078 0.144528 0.781358
C2    C     C_R   0.145220 0.476469 0.854495 0.808034
C3    C     C_R   0.645800 0.023026 0.355183 0.790039
C4    C     C_R   0.353336 0.976815 0.643673 0.758810
O9    O     O_R   0.663490 0.691370 0.155500 -0.488035
O10   O     O_R   0.336510 0.308630 0.844500 -0.529159
O11   O     O_R   0.836510 0.191370 0.344500 -0.492681
O12   O     O_R   0.163490 0.808630 0.655500 -0.557927
O13   O     O_R   0.671770 0.863320 0.325740 -0.523833
O14   O     O_R   0.328230 0.136680 0.674260 -0.534357
O15   O     O_R   0.828230 0.363320 0.174260 -0.524487
O16   O     O_R   0.171770 0.636680 0.825740 -0.557066
C5    C     C_R   0.637292 0.524356 0.131997 0.851240
C6    C     C_R   0.362830 0.476446 0.868225 0.862080
C7    C     C_R   0.862848 0.022416 0.367746 0.860053
C8    C     C_R   0.137808 0.979733 0.631430 0.815427
O17   O     O_3   0.752910 0.528800 0.305860 -0.385477
O18   O     O_3   0.247090 0.471200 0.694140 -0.368843
O19   O     O_3   0.747090 0.028800 0.194140 -0.380961
O20   O     O_3   0.252910 0.971200 0.805860 -0.384585
V1    V     V_3+5 0.749460 0.803010 0.239640 1.526131
V2    V     V_3+5 0.250540 0.196990 0.760360 1.569498
V3    V     V_3+5 0.750540 0.303010 0.260360 1.517636
V4    V     V_3+5 0.249460 0.696990 0.739640 1.501767
C9    C     C_1   0.468398 0.993810 0.529509 -0.012543
C10   C     C_1   0.530340 0.004547 0.468776 -0.008911
C11   C     C_1   0.030498 0.492729 0.969124 -0.018690
C12   C     C_1   0.968878 0.503889 0.030212 -0.022154
C13   C     C_R   0.023741 0.027531 0.310151 0.261176
C14   C     C_R   0.977991 0.994724 0.690338 0.277978
C15   C     C_R   0.477843 0.570331 0.188522 0.277934
C16   C     C_R   0.522169 0.491461 0.810464 0.274279
C17   C     C_R   0.101529 0.016342 0.283850 0.299195
C18   C     C_R   0.901939 0.963144 0.718365 0.291693
C19   C     C_R   0.401477 0.586214 0.216564 0.313922
C20   C     C_R   0.598550 0.462291 0.782714 0.295311
C21   C     C_R   0.164346 0.051980 0.347341 0.312627
C22   C     C_R   0.837219 0.966410 0.654685 0.334631
C23   C     C_R   0.336629 0.568287 0.154347 0.348255
C24   C     C_R   0.663211 0.466242 0.846312 0.334949
C25   C     C_R   0.150493 0.079540 0.438131 0.183357
C26   C     C_R   0.847620 0.018727 0.565237 0.184721
C27   C     C_R   0.347098 0.504890 0.067108 0.205745
C28   C     C_R   0.652263 0.519007 0.934983 0.185328
C29   C     C_R   0.076769 0.032850 0.470287 -0.108612
C30   C     C_R   0.923104 0.010557 0.530924 -0.107564
C31   C     C_R   0.422790 0.504139 0.032262 -0.098973
C32   C     C_R   0.576860 0.509252 0.969485 -0.104900
C33   C     C_R   0.010456 0.024927 0.404956 -0.105010
C34   C     C_R   0.990139 0.998193 0.595408 -0.112193
C35   C     C_R   0.489888 0.533185 0.095228 -0.133208
C36   C     C_R   0.509879 0.492997 0.905516 -0.121485
C37   C     C_R   0.067344 0.002119 0.564527 -0.024874
C38   C     C_R   0.933013 0.017766 0.435557 -0.040721
C39   C     C_R   0.432664 0.485641 0.936893 -0.037497
C40   C     C_R   0.567067 0.523490 0.064347 -0.026609
C41   C     C_1   0.415918 0.985326 0.581218 -0.179756
C42   C     C_1   0.582942 0.013547 0.417258 -0.151999
C43   C     C_1   0.082722 0.484320 0.917119 -0.146035
C44   C     C_1   0.916541 0.513444 0.082023 -0.162985
Cl1   Cl    Cl    0.219136 0.220765 0.499217 -0.691288
Cl2   Cl    Cl    0.769597 0.150507 0.513178 -0.720783
Cl3   Cl    Cl    0.265875 0.391331 0.014835 -0.745531
Cl4   Cl    Cl    0.729104 0.652257 0.985394 -0.720293
O21   O     O_3   0.115847 0.955579 0.198112 -0.554334
C45   C     C_3   0.138045 0.102362 0.143049 -0.084983
H1    H     H_    0.202504 0.121155 0.151325 0.211315
H2    H     H_    0.105453 0.231655 0.154955 0.098825
H3    H     H_    0.123660 0.065649 0.071087 0.144280
O22   O     O_3   0.889448 0.967904 0.809506 -0.565308
C46   C     C_3   0.867387 0.792413 0.839158 -0.162194
H4    H     H_    0.803077 0.776361 0.826896 0.253288
H5    H     H_    0.881997 0.782252 0.913394 0.180172
H6    H     H_    0.898795 0.677854 0.807553 0.106294
O23   O     O_3   0.391354 0.639469 0.304317 -0.558615
C47   C     C_3   0.365481 0.488563 0.355109 -0.237252
H7    H     H_    0.385260 0.352012 0.331569 0.131913
H8    H     H_    0.300752 0.491325 0.355747 0.191616
H9    H     H_    0.389391 0.502773 0.426611 0.155656
O24   O     O_3   0.610922 0.468003 0.691491 -0.565393
C48   C     C_3   0.634941 0.293343 0.663555 -0.158725
H10   H     H_    0.699635 0.280664 0.674123 0.251341
H11   H     H_    0.618813 0.281771 0.589775 0.178192
H12   H     H_    0.606147 0.177434 0.697716 0.109780
O25   O     O_3   0.762820 0.962732 0.685477 -0.555116
C49   C     C_3   0.722124 0.809163 0.648911 -0.157873
H13   H     H_    0.754809 0.678991 0.666164 0.173235
H14   H     H_    0.709668 0.821905 0.574253 0.162827
H15   H     H_    0.664758 0.801899 0.678883 0.199309
O26   O     O_3   0.236981 0.090246 0.316859 -0.560554
C50   C     C_3   0.290655 0.951814 0.347625 -0.080587
H16   H     H_    0.266847 0.813415 0.331889 0.175438
H17   H     H_    0.306873 0.961416 0.421443 0.147194
H18   H     H_    0.345061 0.970675 0.312500 0.189533
O27   O     O_3   0.737653 0.463665 0.815627 -0.555741
C51   C     C_3   0.779520 0.310035 0.853656 -0.161604
H19   H     H_    0.748420 0.179690 0.836250 0.176132
H20   H     H_    0.790710 0.320620 0.928423 0.163248
H21   H     H_    0.837499 0.305150 0.824947 0.197491
O28   O     O_3   0.267043 0.655093 0.172363 -0.523167
C52   C     C_3   0.210606 0.528381 0.197802 -0.096992
H22   H     H_    0.235479 0.392072 0.219495 0.137400
H23   H     H_    0.164902 0.513522 0.140902 0.180114
H24   H     H_    0.180910 0.585078 0.255480 0.138622
O29   O     O_3   0.963517 0.085507 0.247085 -0.568378
C53   C     C_3   0.954353 0.972046 0.170548 -0.105554
H25   H     H_    0.970185 0.825909 0.186243 0.124912
H26   H     H_    0.987324 0.027082 0.114983 0.142057
H27   H     H_    0.892157 0.980128 0.143659 0.167947
O30   O     O_3   0.036560 0.060825 0.752230 -0.553812
C54   C     C_3   0.050179 0.946412 0.829611 -0.095179
H28   H     H_    0.035389 0.800234 0.816164 0.093998
H29   H     H_    0.018319 0.000103 0.886351 0.158701
H30   H     H_    0.113151 0.953030 0.853071 0.161972
O31   O     O_3   0.539427 0.627931 0.248155 -0.548252
C55   C     C_3   0.550451 0.509480 0.324505 -0.110740
H31   H     H_    0.531093 0.365807 0.310833 0.079461
H32   H     H_    0.521600 0.567342 0.382400 0.158356
H33   H     H_    0.613645 0.505370 0.346874 0.172205
O32   O     O_3   0.463056 0.556246 0.747632 -0.554499
C56   C     C_3   0.450244 0.440269 0.672151 -0.098879
H34   H     H_    0.465601 0.294064 0.688111 0.096606
H35   H     H_    0.481974 0.492212 0.614612 0.159086
H36   H     H_    0.387334 0.447733 0.648230 0.170067

loop_
_geom_bond_atom_site_label_1
_geom_bond_atom_site_label_2
_ccdc_geom_bond_type
O17   V3    S    
O18   V4    S    
C8    C37   S    
C16   C36   A    
C31   C35   A    
O19   V1    S    
O13   V1    S    
O21   C45   S    
O3    C7    A    
C11   C12   S    
C47   H9    S    
O15   V3    S    
O32   C56   S    
C10   C42   T    
C51   H20   S    
C53   H25   S    
C9    C41   T    
O31   C55   S    
C2    C43   S    
O1    C5    A    
C35   C40   A    
O25   C49   S    
C45   H2    S    
C36   C39   A    
O9    V1    S    
C47   H8    S    
C14   C18   A    
C21   O26   S    
C52   H23   S    
C30   C34   A    
O4    C8    A    
C13   O29   S    
C16   O32   S    
C19   O23   S    
O1    V3    S    
C15   O31   S    
O28   C52   S    
O2    V4    S    
C18   C22   A    
O3    V1    S    
O30   C54   S    
C5    C40   S    
C6    C39   S    
C14   C34   A    
C29   C37   A    
C1    O15   A    
C7    C38   S    
C50   H16   S    
C2    O16   A    
C45   H3    S    
C31   C39   A    
O2    C6    A    
C32   C40   A    
O14   V2    S    
C21   C25   A    
C48   H11   S    
C16   C20   A    
C3    C42   S    
C56   H36   S    
C34   C37   A    
O11   C7    A    
O12   C8    A    
C25   Cl1   S    
C13   C17   A    
C27   Cl3   S    
O10   V2    S    
C51   H19   S    
O5    V1    S    
C54   H29   S    
O7    V3    S    
C45   H1    S    
O8    V4    S    
C33   C38   A    
C47   H7    S    
C52   H24   S    
C46   H5    S    
C29   C33   A    
O22   C46   S    
C15   C19   A    
C30   C38   A    
C49   H15   S    
C24   O27   S    
C32   C36   A    
O7    C3    A    
O5    C1    A    
C28   Cl4   S    
C53   H26   S    
O23   C47   S    
C11   C43   T    
O8    C4    A    
C15   C35   A    
C9    C10   S    
O9    C5    A    
C26   C30   A    
C48   H12   S    
C49   H14   S    
C55   H33   S    
C50   H17   S    
C18   O22   S    
C55   H32   S    
O29   C53   S    
O16   V4    S    
C54   H30   S    
C23   O28   S    
C3    O13   A    
O6    V2    S    
O6    C2    A    
C46   H6    S    
C23   C27   A    
C54   H28   S    
C12   C44   T    
O11   V3    S    
O12   V4    S    
C4    C41   S    
C22   C26   A    
O10   C6    A    
O20   V2    S    
C56   H34   S    
C1    C44   S    
C52   H22   S    
C22   O25   S    
C25   C29   A    
C27   C31   A    
C26   Cl2   S    
C49   H13   S    
O4    V2    S    
C53   H27   S    
C17   O21   S    
C46   H4    S    
C14   O30   S    
C28   C32   A    
C24   C28   A    
C50   H18   S    
O24   C48   S    
O26   C50   S    
C4    O14   A    
O27   C51   S    
C17   C21   A    
C48   H10   S    
C20   O24   S    
C19   C23   A    
C51   H21   S    
C13   C33   A    
C20   C24   A    
C55   H31   S    
C56   H35   S    
