data_mof_unit_2664.cif
_audit_creation_date              2012-10-26T20:16:52-0400
_audit_creation_method            fapswitch 2.2
_symmetry_space_group_name_H-M    P1
_symmetry_Int_Tables_number       1
_space_group_crystal_system       triclinic
_cell_length_a                    10.863924
_cell_length_b                    10.866781
_cell_length_c                    10.427882
_cell_angle_alpha                 90.680082
_cell_angle_beta                  90.446036
_cell_angle_gamma                 90.139785
_cell_volume                      1230.94484752

loop_
_atom_site_label
_atom_site_type_symbol
_atom_type_description
_atom_site_fract_x
_atom_site_fract_y
_atom_site_fract_z
_atom_type_partial_charge
C1    C     C_R   0.496667 0.261491 0.498964 0.539901
C2    C     C_R   0.692461 0.836833 0.747173 -0.098830
C3    C     C_R   0.426929 0.114856 0.262632 0.079742
C4    C     C_R   0.573069 0.885142 0.737367 0.079810
C5    C     C_R   0.504815 0.115671 0.154822 0.128604
C6    C     C_R   0.495192 0.884349 0.845183 0.128578
C7    C     C_R   0.461598 0.165868 0.039183 -0.082409
C8    C     C_R   0.538424 0.834198 0.960836 -0.082373
C9    C     C_R   0.342628 0.213644 0.030697 -0.115703
C10   C     C_R   0.657401 0.786433 0.969328 -0.115623
C11   C     C_R   0.473834 0.931888 0.388984 -0.133725
C12   C     C_R   0.503332 0.738508 0.501036 0.539909
C13   C     C_R   0.526164 0.068110 0.611017 -0.133681
C14   C     C_R   0.504913 0.872069 0.502743 -0.015700
C15   C     C_R   0.495083 0.127929 0.497257 -0.015732
C16   C     C_R   0.261537 0.503663 0.499292 0.543323
C17   C     C_R   0.738463 0.496339 0.500708 0.543314
C18   C     C_R   0.532489 0.940969 0.615177 -0.013675
C19   C     C_R   0.467505 0.059029 0.384824 -0.013795
C20   C     C_1   0.500028 0.500007 0.071947 0.094560
C21   C     C_1   0.499972 0.499995 0.928053 0.094546
C22   C     C_R   0.231333 0.746691 0.159058 -0.106717
C23   C     C_R   0.872029 0.494318 0.501968 -0.006023
C24   C     C_R   0.768669 0.253336 0.840967 -0.106730
C25   C     C_R   0.178657 0.702411 0.271536 -0.056966
C26   C     C_R   0.821341 0.297606 0.728482 -0.056953
C27   C     C_R   0.116943 0.588619 0.270385 0.056001
C28   C     C_R   0.883057 0.411398 0.729622 0.056006
C29   C     C_R   0.107642 0.520685 0.155343 -0.092198
C30   C     C_R   0.892361 0.479342 0.844658 -0.092195
C31   C     C_R   0.162091 0.564333 0.043667 -0.115151
C32   C     C_R   0.837916 0.435705 0.956340 -0.115144
C33   C     C_R   0.223747 0.677308 0.045470 -0.109074
C34   C     C_R   0.127971 0.505687 0.498032 -0.006021
C35   C     C_R   0.776261 0.322729 0.954550 -0.109090
C36   C     C_R   0.932485 0.533851 0.391756 -0.157701
C37   C     C_R   0.067515 0.466154 0.608245 -0.157700
C38   C     C_R   0.940187 0.458825 0.611437 -0.035383
C39   C     C_R   0.059814 0.541182 0.388564 -0.035381
C40   C     C_R   0.265698 0.211955 0.137198 -0.117003
C41   C     C_R   0.734321 0.788093 0.862817 -0.117011
C42   C     C_R   0.307544 0.163178 0.252830 -0.098796
Cu1   Cu    Cu3+1 0.500000 0.500000 0.625300 0.980380
Cu2   Cu    Cu3+1 0.500000 0.500000 0.374700 0.980383
H1    H     H_    0.265408 0.710961 0.958746 0.109466
H2    H     H_    0.814353 0.243436 0.640847 0.093722
H3    H     H_    0.058784 0.433782 0.152613 0.094813
H4    H     H_    0.941223 0.566244 0.847378 0.094813
H5    H     H_    0.156246 0.510733 0.955669 0.104621
H6    H     H_    0.843765 0.489311 0.044334 0.104623
H7    H     H_    0.880268 0.562721 0.308296 0.130011
H8    H     H_    0.119732 0.437286 0.691705 0.130013
H9    H     H_    0.309897 0.251645 0.941242 0.123261
H10   H     H_    0.690143 0.748460 0.058792 0.123267
H11   H     H_    0.173120 0.247494 0.129846 0.107942
H12   H     H_    0.734608 0.289082 0.041282 0.109473
H13   H     H_    0.826905 0.752564 0.870174 0.107938
H14   H     H_    0.246648 0.161999 0.334582 0.101255
H15   H     H_    0.753352 0.837998 0.665417 0.101241
H16   H     H_    0.678169 0.123328 0.224504 0.231108
H17   H     H_    0.669457 0.066590 0.074277 0.220129
H18   H     H_    0.321756 0.876452 0.775781 0.231094
H19   H     H_    0.330658 0.933693 0.925763 0.220205
H20   H     H_    0.519586 0.167482 0.955348 0.113535
H21   H     H_    0.480437 0.832600 0.044674 0.113553
H22   H     H_    0.451698 0.879420 0.302794 0.137589
H23   H     H_    0.548307 0.120579 0.697205 0.137573
H24   H     H_    0.277708 0.834886 0.159851 0.089939
H25   H     H_    0.722292 0.165140 0.840183 0.089936
H26   H     H_    0.185643 0.756573 0.359176 0.093738
N1    N     N_1   0.500010 0.499990 0.186410 -0.190639
N2    N     N_1   0.499990 0.500010 0.813590 -0.190650
N3    N     N_3   0.626718 0.065410 0.163756 -0.643277
N4    N     N_3   0.373269 0.934566 0.836236 -0.643336
O1    O     O_R   0.499990 0.319650 0.605810 -0.506625
O2    O     O_R   0.500010 0.680350 0.394190 -0.506633
O3    O     O_R   0.499990 0.319640 0.394190 -0.489783
O4    O     O_R   0.500010 0.680360 0.605810 -0.489781
O5    O     O_R   0.319640 0.500010 0.605810 -0.512061
O6    O     O_R   0.680360 0.499990 0.394190 -0.512062
O7    O     O_R   0.319650 0.500010 0.394190 -0.481291
O8    O     O_R   0.680350 0.499990 0.605810 -0.481295

loop_
_geom_bond_atom_site_label_1
_geom_bond_atom_site_label_2
_ccdc_geom_bond_type
C3    C42   A    
Cu1   N2    S    
C27   C29   A    
C34   C37   A    
C33   H1    S    
C14   C18   A    
C42   H14   S    
Cu1   O4    S    
C15   C19   A    
C11   C19   A    
C17   C23   S    
C13   C18   A    
C29   H3    S    
C30   H4    S    
Cu2   O3    S    
C24   C26   A    
C11   C14   A    
C2    C41   A    
Cu1   O5    S    
H16   N3    S    
C1    O3    A    
Cu2   N1    S    
C17   O8    A    
Cu2   O2    S    
C16   C34   S    
C27   C39   S    
C22   C25   A    
C12   O4    A    
C31   C33   A    
C20   N1    T    
C3    C19   S    
C1    C15   S    
C11   H22   S    
C4    C18   S    
C40   C42   A    
C8    H21   S    
C10   C41   A    
C31   H5    S    
C24   H25   S    
C6    N4    S    
Cu1   O1    S    
C24   C35   A    
C21   N2    T    
C34   C39   A    
C1    O1    A    
C32   C35   A    
Cu2   O6    S    
C4    C6    A    
Cu2   O7    S    
C5    C7    A    
C37   H8    S    
C2    H15   S    
C6    C8    A    
H17   N3    S    
C9    C40   A    
C2    C4    A    
Cu1   Cu2   S    
C37   C38   A    
C28   C38   S    
C40   H11   S    
C32   H6    S    
C22   H24   S    
C36   H7    S    
C12   C14   S    
C12   O2    A    
C9    H9    S    
C13   H23   S    
C7    C9    A    
C22   C33   A    
C35   H12   S    
C36   C39   A    
C3    C5    A    
H19   N4    S    
C25   C27   A    
C23   C38   A    
C26   C28   A    
C16   O5    A    
C13   C15   A    
C41   H13   S    
C29   C31   A    
C30   C32   A    
C28   C30   A    
C16   O7    A    
C17   O6    A    
C5    N3    S    
C10   H10   S    
C7    H20   S    
C26   H2    S    
C20   C21   S    
C8    C10   A    
C23   C36   A    
Cu1   O8    S    
H18   N4    S    
C25   H26   S    
