data_mof_unit_2215.cif
_audit_creation_date              2012-12-11T14:40:12-0500
_audit_creation_method            fapswitch 2.2
_symmetry_space_group_name_H-M    P1
_symmetry_Int_Tables_number       1
_space_group_crystal_system       triclinic
_cell_length_a                    19.64834
_cell_length_b                    10.926486
_cell_length_c                    19.493895
_cell_angle_alpha                 90.097917
_cell_angle_beta                  97.634661
_cell_angle_gamma                 89.927099
_cell_volume                      4147.98417974

loop_
_atom_site_label
_atom_site_type_symbol
_atom_type_description
_atom_site_fract_x
_atom_site_fract_y
_atom_site_fract_z
_atom_type_partial_charge
C1    C     C_R   0.707532 0.999636 0.366516 0.561958
C2    C     C_R   0.273815 0.949921 0.639812 0.539918
C3    C     C_R   0.224603 0.455538 0.361560 0.547083
C4    C     C_R   0.793425 0.503111 0.634336 0.562145
C5    C     C_3   0.702010 0.402424 0.482786 -0.130769
C6    C     C_3   0.307090 0.361194 0.519467 -0.132066
C7    C     C_3   0.223805 0.803955 0.482225 -0.116321
C8    C     C_3   0.769284 0.838977 0.513174 -0.124166
C9    C     C_3   0.753957 0.415752 0.430804 0.065876
C10   C     C_3   0.252144 0.393795 0.565970 0.070552
C11   C     C_3   0.247377 0.900238 0.432906 0.069446
C12   C     C_3   0.746290 0.917835 0.571135 0.069793
C13   C     C_3   0.771078 0.546664 0.454990 -0.157971
C14   C     C_3   0.242090 0.520253 0.534282 -0.161555
C15   C     C_3   0.212917 0.001843 0.469691 -0.144979
C16   C     C_3   0.772990 0.033531 0.539898 -0.145877
C17   C     C_3   0.829347 0.495259 0.509107 -0.130389
C18   C     C_3   0.185061 0.466534 0.480337 -0.104050
C19   C     C_3   0.281941 0.019140 0.517564 -0.096212
C20   C     C_3   0.700581 0.051438 0.497562 -0.131913
C21   C     C_3   0.811542 0.364770 0.484348 0.026281
C22   C     C_3   0.195649 0.339711 0.512560 0.025787
C23   C     C_3   0.315001 0.915988 0.480068 0.007016
C24   C     C_3   0.675279 0.934055 0.529649 0.008948
C25   C     C_3   0.759847 0.350428 0.536048 -0.097186
C26   C     C_3   0.249948 0.306663 0.465650 -0.131803
C27   C     C_3   0.292835 0.820006 0.529810 -0.106630
C28   C     C_3   0.697361 0.854767 0.471542 -0.097842
C29   C     C_3   0.777691 0.480497 0.560568 0.041586
C30   C     C_3   0.239746 0.432857 0.434083 0.052767
C31   C     C_3   0.258819 0.922242 0.566885 0.045700
C32   C     C_3   0.723293 0.971375 0.439888 0.045583
C33   C     C_3   0.533568 0.263698 0.977388 -0.165893
C34   C     C_3   0.474822 0.273997 0.022675 -0.159552
C35   C     C_3   0.033485 0.763823 0.977390 -0.166216
C36   C     C_3   0.974725 0.773899 0.022673 -0.159251
C37   C     C_3   0.565970 0.157776 0.023134 -0.106153
C38   C     C_3   0.432679 0.177668 0.977064 -0.108107
C39   C     C_3   0.065995 0.657987 0.023135 -0.106213
C40   C     C_3   0.932687 0.677450 0.977057 -0.107968
C41   C     C_3   0.506752 0.168923 0.068180 0.018902
C42   C     C_3   0.492030 0.168146 0.932097 0.020177
C43   C     C_3   0.006761 0.668911 0.068177 0.019377
C44   C     C_3   0.992049 0.668152 0.932092 0.019692
C45   C     C_R   0.535465 0.180242 0.338116 0.533907
C46   C     C_R   0.464557 0.180060 0.661894 0.540079
C47   C     C_R   0.035830 0.680210 0.338414 0.541160
C48   C     C_R   0.965221 0.679975 0.662348 0.535059
C49   C     C_3   0.465960 0.073123 0.023252 0.267420
C50   C     C_3   0.522986 0.062969 0.977167 0.275082
C51   C     C_3   0.966074 0.572993 0.023242 0.267595
C52   C     C_3   0.023113 0.563057 0.977161 0.274883
C53   C     C_1   0.763231 0.425795 0.904362 -0.000941
C54   C     C_1   0.236726 0.425619 0.095624 0.001602
C55   C     C_1   0.263231 0.925798 0.904365 0.000859
C56   C     C_1   0.736723 0.925627 0.095622 -0.000055
C57   C     C_1   0.747667 0.407846 0.034661 -0.012877
C58   C     C_1   0.252288 0.408054 0.965326 -0.021509
C59   C     C_1   0.247667 0.907849 0.034662 -0.013166
C60   C     C_1   0.752284 0.908066 0.965323 -0.021181
C61   C     C_1   0.754638 0.415536 0.963964 -0.018290
C62   C     C_1   0.245308 0.415508 0.036010 -0.023473
C63   C     C_1   0.254637 0.915539 0.963966 -0.018016
C64   C     C_1   0.745304 0.915519 0.036007 -0.023800
C65   C     C_1   0.742590 0.394480 0.094932 0.006518
C66   C     C_1   0.257389 0.394756 0.905049 0.004107
C67   C     C_1   0.242591 0.894484 0.094934 0.006433
C68   C     C_1   0.757386 0.894766 0.905046 0.004717
C69   C     C_R   0.740224 0.364890 0.361382 0.543037
C70   C     C_R   0.260710 0.361239 0.637795 0.547988
C71   C     C_R   0.240128 0.865926 0.360886 0.540433
C72   C     C_R   0.759019 0.868047 0.640352 0.538545
C73   C     C_R   0.721736 0.952902 0.163605 0.552926
C74   C     C_R   0.278266 0.953007 0.836414 0.542058
C75   C     C_R   0.221736 0.452903 0.163604 0.543389
C76   C     C_R   0.778264 0.453001 0.836410 0.552319
C77   C     C_R   0.528963 0.178356 0.141539 0.546823
C78   C     C_R   0.470785 0.178222 0.858621 0.549859
C79   C     C_R   0.028962 0.678353 0.141538 0.546408
C80   C     C_R   0.970792 0.678222 0.858618 0.551042
C81   C     C_R   0.735779 0.360028 0.164250 0.544168
C82   C     C_R   0.264198 0.360151 0.835722 0.543141
C83   C     C_R   0.235780 0.860031 0.164251 0.541134
C84   C     C_R   0.764197 0.860155 0.835720 0.542683
C85   C     C_1   0.485571 0.172865 0.594670 -0.023994
C86   C     C_1   0.514378 0.173238 0.405301 -0.022483
C87   C     C_1   0.988069 0.672422 0.595889 -0.022349
C88   C     C_1   0.016011 0.672838 0.406192 -0.017833
C89   C     C_1   0.504237 0.170930 0.464735 -0.070359
C90   C     C_1   0.495647 0.170803 0.535207 -0.071451
C91   C     C_1   0.006962 0.669793 0.465975 -0.065480
C92   C     C_1   0.998980 0.669713 0.536645 -0.068726
C93   C     C_3   0.719514 0.533828 0.508556 -0.126943
C94   C     C_3   0.296673 0.489052 0.486256 -0.120937
C95   C     C_3   0.190042 0.906534 0.520584 -0.141050
C96   C     C_3   0.795272 0.955055 0.480572 -0.120784
Cr1   Cr    Cr6+3 0.765830 0.160660 0.268180 1.012381
Cr2   Cr    Cr6+3 0.234170 0.160660 0.731820 1.016803
Cr3   Cr    Cr6+3 0.265830 0.660660 0.268180 1.015985
Cr4   Cr    Cr6+3 0.734170 0.660660 0.731820 1.017961
Cr5   Cr    Cr6+3 0.612110 0.009150 0.248770 1.000994
Cr6   Cr    Cr6+3 0.387890 0.009150 0.751230 1.003732
Cr7   Cr    Cr6+3 0.112110 0.509150 0.248770 1.004146
Cr8   Cr    Cr6+3 0.887890 0.509150 0.751230 0.998641
Cr9   Cr    Cr6+3 0.615930 0.324050 0.248450 1.020543
Cr10  Cr    Cr6+3 0.384070 0.324050 0.751550 1.023064
Cr11  Cr    Cr6+3 0.115930 0.824050 0.248450 1.023663
Cr12  Cr    Cr6+3 0.884070 0.824050 0.751550 1.017591
H1    H     H_    0.649375 0.364470 0.470691 0.121195
H2    H     H_    0.357547 0.318514 0.537619 0.125725
H3    H     H_    0.197384 0.718781 0.462947 0.118899
H4    H     H_    0.800479 0.755000 0.523404 0.109487
H5    H     H_    0.681776 0.603008 0.521366 0.128748
H6    H     H_    0.337993 0.550223 0.472854 0.128743
H7    H     H_    0.139103 0.900790 0.539095 0.120156
H8    H     H_    0.844547 0.961791 0.458810 0.124826
H9    H     H_    0.775267 0.624978 0.419612 0.120026
H10   H     H_    0.237461 0.601762 0.567182 0.105991
H11   H     H_    0.179045 0.071440 0.441502 0.115764
H12   H     H_    0.807016 0.099581 0.570909 0.116269
H13   H     H_    0.307863 0.105563 0.535584 0.115235
H14   H     H_    0.671044 0.137866 0.489162 0.101868
H15   H     H_    0.881815 0.532583 0.521390 0.118388
H16   H     H_    0.134674 0.509639 0.462301 0.122730
H17   H     H_    0.752926 0.275826 0.572696 0.122465
H18   H     H_    0.255304 0.225779 0.432580 0.102819
H19   H     H_    0.326083 0.746776 0.555531 0.117225
H20   H     H_    0.666249 0.781600 0.442970 0.126393
H21   H     H_    0.621400 0.148647 0.043150 0.129116
H22   H     H_    0.377188 0.185201 0.956991 0.129513
H23   H     H_    0.121433 0.649038 0.043155 0.129384
H24   H     H_    0.877188 0.684806 0.956981 0.129516
H25   H     H_    0.562641 0.340640 0.958176 0.136629
H26   H     H_    0.453456 0.359826 0.041703 0.138834
H27   H     H_    0.062480 0.840873 0.958185 0.136307
H28   H     H_    0.953268 0.859646 0.041703 0.138954
O1    O     O_R   0.783230 0.287800 0.346510 -0.531259
O2    O     O_R   0.216770 0.287800 0.653490 -0.526132
O3    O     O_R   0.283230 0.787800 0.346510 -0.522532
O4    O     O_R   0.716770 0.787800 0.653490 -0.533679
O5    O     O_R   0.554500 0.081650 0.170370 -0.518111
O6    O     O_R   0.445500 0.081650 0.829630 -0.515181
O7    O     O_R   0.054500 0.581650 0.170370 -0.518138
O8    O     O_R   0.945500 0.581650 0.829630 -0.514497
O9    O     O_R   0.545430 0.285140 0.163100 -0.510893
O10   O     O_R   0.454570 0.285140 0.836900 -0.512630
O11   O     O_R   0.045430 0.785140 0.163100 -0.512127
O12   O     O_R   0.954570 0.785140 0.836900 -0.511870
O13   O     O_R   0.677850 0.374730 0.185500 -0.494433
O14   O     O_R   0.322150 0.374730 0.814500 -0.499252
O15   O     O_R   0.177850 0.874730 0.185500 -0.497427
O16   O     O_R   0.822150 0.874730 0.814500 -0.498109
O17   O     O_3   0.664630 0.164620 0.255130 -0.271988
O18   O     O_3   0.335370 0.164620 0.744870 -0.253311
O19   O     O_3   0.164630 0.664620 0.255130 -0.253681
O20   O     O_3   0.835370 0.664620 0.744870 -0.274635
O21   O     O_R   0.760130 0.037060 0.338610 -0.506163
O22   O     O_R   0.239870 0.037060 0.661390 -0.507882
O23   O     O_R   0.260130 0.537060 0.338610 -0.506941
O24   O     O_R   0.739870 0.537060 0.661390 -0.499930
O25   O     O_R   0.666620 0.921370 0.332440 -0.517759
O26   O     O_R   0.333380 0.921370 0.667560 -0.517023
O27   O     O_R   0.166620 0.421370 0.332440 -0.520263
O28   O     O_R   0.833380 0.421370 0.667560 -0.517074
O29   O     O_R   0.557170 0.082420 0.312350 -0.515652
O30   O     O_R   0.442830 0.082420 0.687650 -0.499262
O31   O     O_R   0.057170 0.582420 0.312350 -0.504420
O32   O     O_R   0.942830 0.582420 0.687650 -0.516840
O33   O     O_R   0.548310 0.285980 0.316250 -0.508807
O34   O     O_R   0.451690 0.285980 0.683750 -0.509371
O35   O     O_R   0.048310 0.785980 0.316250 -0.506790
O36   O     O_R   0.951690 0.785980 0.683750 -0.506365
O37   O     O_R   0.680520 0.375500 0.327470 -0.502915
O38   O     O_R   0.319480 0.375500 0.672530 -0.504055
O39   O     O_R   0.180520 0.875500 0.327470 -0.502444
O40   O     O_R   0.819480 0.875500 0.672530 -0.502801
O41   O     O_R   0.780350 0.286970 0.193350 -0.511088
O42   O     O_R   0.219650 0.286970 0.806650 -0.504896
O43   O     O_R   0.280350 0.786970 0.193350 -0.512232
O44   O     O_R   0.719650 0.786970 0.806650 -0.506053
O45   O     O_R   0.757460 0.036290 0.196640 -0.493183
O46   O     O_R   0.242540 0.036290 0.803360 -0.496127
O47   O     O_R   0.257460 0.536290 0.196640 -0.498080
O48   O     O_R   0.742540 0.536290 0.803360 -0.490252
O49   O     O_R   0.663740 0.920540 0.179290 -0.508114
O50   O     O_R   0.336260 0.920540 0.820710 -0.524162
O51   O     O_R   0.163740 0.420540 0.179290 -0.512500
O52   O     O_R   0.836260 0.420540 0.820710 -0.519763
C97   C     C_3   0.868139 0.273047 0.475309 -0.376613
H29   H     H_    0.899526 0.255956 0.526047 0.121766
H30   H     H_    0.845479 0.185769 0.454677 0.157129
H31   H     H_    0.901726 0.310219 0.438850 0.145366
C98   C     C_3   0.134171 0.261039 0.524178 -0.376862
H32   H     H_    0.102884 0.241147 0.473723 0.118603
H33   H     H_    0.151672 0.173709 0.549484 0.164664
H34   H     H_    0.101820 0.310940 0.557539 0.143678
C99   C     C_3   0.386007 0.923608 0.457512 -0.391375
H35   H     H_    0.424675 0.939773 0.503469 0.137439
H36   H     H_    0.398405 0.836414 0.432682 0.151526
H37   H     H_    0.387436 0.999861 0.420222 0.134418
C100  C     C_3   0.606493 0.921747 0.556691 -0.385395
H38   H     H_    0.564491 0.940728 0.514196 0.132151
H39   H     H_    0.600131 0.827199 0.575440 0.151380
H40   H     H_    0.603785 0.987458 0.599696 0.141110
O53   O     O_3   0.423693 0.978666 0.043089 -0.585714
C101  C     C_3   0.462209 0.895718 0.087946 -0.094468
H41   H     H_    0.460595 0.923871 0.142398 0.147303
H42   H     H_    0.516373 0.884801 0.077880 0.157907
H43   H     H_    0.437600 0.804425 0.081059 0.131210
O54   O     O_3   0.555601 0.956218 0.956737 -0.579739
C102  C     C_3   0.508116 0.877256 0.918317 -0.078668
H44   H     H_    0.513988 0.884122 0.862640 0.147977
H45   H     H_    0.453456 0.893660 0.925023 0.166343
H46   H     H_    0.520632 0.781808 0.934755 0.124540
O55   O     O_3   0.923902 0.478386 0.043076 -0.585505
C103  C     C_3   0.962513 0.395455 0.087868 -0.094250
H47   H     H_    0.960844 0.423416 0.142341 0.147675
H48   H     H_    0.016699 0.384813 0.077820 0.157869
H49   H     H_    0.938022 0.304074 0.080889 0.131024
O56   O     O_3   0.055846 0.456417 0.956751 -0.579766
C104  C     C_3   0.008467 0.377400 0.918234 -0.078714
H50   H     H_    0.014294 0.384596 0.862561 0.148621
H51   H     H_    0.953793 0.393455 0.925014 0.166030
H52   H     H_    0.021141 0.281932 0.934519 0.124547

loop_
_geom_bond_atom_site_label_1
_geom_bond_atom_site_label_2
_ccdc_geom_bond_type
C58   C62   S    
Cr9   O17   S    
Cr2   O18   S    
C67   C83   S    
C71   O3    A    
Cr10  O14   S    
Cr3   O23   S    
C99   H37   S    
C17   C29   S    
C100  H38   S    
C14   C18   S    
C19   C23   S    
C35   C36   S    
C8    C96   S    
C103  H49   S    
C44   C80   S    
C19   C31   S    
C2    O26   A    
C94   H6    S    
C49   C50   S    
C38   C49   S    
Cr11  O35   S    
O53   C101  S    
C10   C22   S    
C15   C19   S    
Cr6   O50   S    
Cr9   O33   S    
Cr2   O2    S    
C37   C41   S    
C73   O49   A    
C33   C42   S    
C38   H22   S    
C9    C69   S    
C38   C42   S    
C104  H52   S    
C78   O6    A    
C15   C95   S    
C11   C71   S    
C13   H9    S    
C66   C82   S    
C4    O28   A    
C34   H26   S    
C43   C79   S    
C71   O39   A    
C7    C27   S    
C99   H36   S    
C12   C24   S    
C26   H18   S    
C41   C49   S    
C57   C61   S    
C97   H30   S    
C9    C13   S    
C25   H17   S    
Cr4   O4    S    
C59   C67   T    
Cr12  O16   S    
C55   C74   S    
Cr5   O5    S    
C17   H15   S    
C79   O7    A    
Cr2   O22   S    
C97   H31   S    
C95   H7    S    
C80   O8    A    
C55   C63   T    
C101  H43   S    
C56   C64   T    
C22   C98   S    
C18   C30   S    
Cr1   O17   S    
Cr2   O42   S    
C18   C22   S    
Cr10  O18   S    
C73   O45   A    
Cr6   O18   S    
C20   H14   S    
C4    C29   S    
C76   O52   A    
Cr6   O6    S    
C16   C20   S    
C46   C85   S    
Cr11  O15   S    
C44   C52   S    
C72   O40   A    
C39   C52   S    
C40   H24   S    
C75   O47   A    
Cr5   O25   S    
Cr6   O30   S    
C48   O36   A    
C87   C92   T    
C25   C29   S    
C47   O35   A    
C6    H2    S    
Cr3   O3    S    
C99   H35   S    
C34   C41   S    
C27   H19   S    
C100  H39   S    
Cr5   O49   S    
C36   H28   S    
Cr1   O1    S    
O56   C104  S    
C29   C93   S    
C58   C66   T    
C7    C11   S    
C83   O15   A    
C23   C27   S    
C69   O1    A    
C12   C16   S    
Cr8   O52   S    
C24   C100  S    
C52   O56   S    
C16   C96   S    
C27   C31   S    
C51   C52   S    
C68   C84   S    
C20   C24   S    
C21   C97   S    
C36   C40   S    
Cr7   O51   S    
C103  H47   S    
C10   C14   S    
C35   H27   S    
C91   C92   S    
C101  H41   S    
C79   O11   A    
C54   C62   T    
C6    C94   S    
Cr11  O11   S    
C39   C43   S    
C69   O37   A    
C33   C37   S    
C46   O34   A    
Cr3   O19   S    
C2    C31   S    
Cr1   O21   S    
Cr3   O43   S    
Cr2   O46   S    
C3    C30   S    
C35   C39   S    
O55   C103  S    
C5    C9    S    
C104  H50   S    
Cr8   O32   S    
C47   O31   A    
C84   O44   A    
Cr4   O24   S    
Cr1   O41   S    
C102  H44   S    
Cr12  O20   S    
C88   C91   T    
C28   C32   S    
C8    C12   S    
C98   H34   S    
Cr9   O9    S    
C82   O42   A    
C98   H33   S    
C33   C34   S    
Cr10  O38   S    
C48   C87   S    
C1    O21   A    
C3    O23   A    
Cr12  O12   S    
C93   H5    S    
Cr7   O31   S    
Cr8   O20   S    
Cr5   O29   S    
C35   C44   S    
C70   O38   A    
C60   C68   T    
C82   O14   A    
C42   C50   S    
C5    C25   S    
C84   O16   A    
Cr7   O19   S    
C32   C96   S    
C49   O53   S    
C80   O12   A    
O54   C102  S    
C11   C15   S    
Cr12  O36   S    
C22   C26   S    
C8    C28   S    
C100  H40   S    
C59   C63   S    
Cr11  O39   S    
C53   C76   S    
Cr4   O20   S    
Cr5   O17   S    
C53   C61   T    
Cr4   O44   S    
C10   C70   S    
C24   C28   S    
Cr9   O13   S    
Cr6   O26   S    
C42   C78   S    
C14   H10   S    
C20   C32   S    
C51   O55   S    
C21   C25   S    
C19   H13   S    
C56   C73   S    
C46   O30   A    
C102  H45   S    
C34   C38   S    
Cr3   O47   S    
C75   O51   A    
C72   O4    A    
C103  H48   S    
C86   C89   T    
Cr7   O7    S    
C6    C10   S    
C5    C93   S    
C85   C90   T    
Cr1   O45   S    
C6    C26   S    
C74   O46   A    
C3    O27   A    
C7    H3    S    
C40   C51   S    
C7    C95   S    
C23   C99   S    
Cr7   O27   S    
C83   O43   A    
Cr10  O10   S    
C13   C17   S    
C60   C64   S    
C47   C88   S    
C16   H12   S    
C45   C86   S    
C81   O41   A    
C104  H51   S    
C41   C77   S    
C37   C50   S    
C70   O2    A    
C9    C21   S    
Cr8   O28   S    
C4    O24   A    
C77   O9    A    
C39   H23   S    
C43   C51   S    
C81   O13   A    
Cr12  O40   S    
C11   C23   S    
C8    H4    S    
C15   H11   S    
C101  H42   S    
C1    C32   S    
C12   C72   S    
C97   H29   S    
Cr4   O48   S    
C77   O5    A    
C31   C95   S    
C78   O10   A    
C1    O25   A    
C54   C75   S    
C14   C94   S    
C33   H25   S    
C40   C44   S    
C102  H46   S    
C2    O22   A    
C50   O54   S    
C30   C94   S    
C98   H32   S    
Cr10  O34   S    
C13   C93   S    
C65   C81   S    
C96   H8    S    
C36   C43   S    
Cr9   O37   S    
C5    H1    S    
C74   O50   A    
C89   C90   S    
C76   O48   A    
Cr8   O8    S    
C45   O29   A    
C48   O32   A    
C37   H21   S    
Cr11  O19   S    
C45   O33   A    
C28   H20   S    
C18   H16   S    
C57   C65   T    
C26   C30   S    
C17   C21   S    
