data_mof_unit_1555.cif
_audit_creation_date              2012-12-10T21:00:42-0500
_audit_creation_method            fapswitch 2.2
_symmetry_space_group_name_H-M    P1
_symmetry_Int_Tables_number       1
_space_group_crystal_system       triclinic
_cell_length_a                    18.137988
_cell_length_b                    18.350691
_cell_length_c                    18.380985
_cell_angle_alpha                 120.079279
_cell_angle_beta                  89.701932
_cell_angle_gamma                 120.270598
_cell_volume                      4314.39641557

loop_
_atom_site_label
_atom_site_type_symbol
_atom_type_description
_atom_site_fract_x
_atom_site_fract_y
_atom_site_fract_z
_atom_type_partial_charge
C1    C     C_R   0.112076 0.220261 0.609824 0.538167
C2    C     C_3   0.451166 0.896993 0.945896 -0.037384
C3    C     C_2   0.826645 0.314125 0.413218 0.628844
C4    C     C_2   0.773067 0.938493 0.097418 0.649593
C5    C     C_2   0.250054 0.053579 0.865556 0.644021
C6    C     C_2   0.892114 0.626202 0.723834 0.605276
C7    C     C_2   0.124900 0.392275 0.283231 0.637423
C8    C     C_2   0.074701 0.764263 0.857340 0.683553
C9    C     C_2   0.937864 0.247504 0.154513 0.661385
C10   C     C_2   0.825762 0.357769 0.779048 0.604480
C11   C     C_2   0.172846 0.649696 0.221115 0.604861
C12   C     C_2   0.778872 0.408378 0.668441 0.663380
C13   C     C_3   0.445457 0.029303 0.027139 0.026372
C14   C     C_2   0.229560 0.606427 0.333121 0.660458
C15   C     C_2   0.375757 0.931516 0.850406 0.611680
C16   C     C_2   0.625471 0.071729 0.151370 0.612706
C17   C     C_2   0.383376 0.060364 0.057998 0.640128
C18   C     C_2   0.617074 0.939934 0.943445 0.635075
C19   C     C_2   0.428095 0.293312 0.355511 0.616125
C20   C     C_2   0.570141 0.704853 0.642392 0.621199
C21   C     C_2   0.501462 0.609462 0.433069 0.630912
C22   C     C_2   0.494535 0.383633 0.561473 0.640761
C23   C     C_3   0.554803 0.970949 0.973719 0.023910
C24   C     C_3   0.413999 0.452879 0.451650 -0.131008
C25   C     C_3   0.584798 0.544989 0.547411 -0.129963
C26   C     C_3   0.465104 0.401923 0.431832 0.008750
C27   C     C_3   0.533803 0.596167 0.566942 0.004777
C28   C     C_3   0.550067 0.499295 0.447908 -0.021065
C29   C     C_3   0.448894 0.498839 0.551141 -0.034074
C30   C     C_3   0.500169 0.550743 0.467910 0.009949
C31   C     C_R   0.888080 0.779844 0.390328 0.533911
C32   C     C_3   0.498469 0.446892 0.530814 0.005501
C33   C     C_R   0.069191 0.193138 0.841665 -0.075011
C34   C     C_R   0.926318 0.813549 0.160027 -0.074261
C35   C     C_R   0.393168 0.780994 0.887351 0.525915
C36   C     C_R   0.606868 0.219074 0.112839 0.527131
C37   C     C_R   0.068791 0.139091 0.753864 0.132953
C38   C     C_R   0.929796 0.867710 0.249107 0.129648
C39   C     C_R   0.002396 0.107134 0.683224 0.038347
C40   C     C_R   0.995402 0.893898 0.316545 0.042624
C41   C     C_R   0.937305 0.127788 0.702118 -0.079086
C42   C     C_3   0.037765 0.512247 0.439372 -0.121956
C43   C     C_R   0.056449 0.867438 0.293266 -0.070575
C44   C     C_R   0.937899 0.179886 0.789649 -0.070434
C45   C     C_R   0.052759 0.815347 0.204573 -0.072969
C46   C     C_R   0.003830 0.212772 0.859239 -0.100457
C47   C     C_R   0.987615 0.788028 0.138123 -0.113707
C48   C     C_R   0.942190 0.945793 0.533279 0.055999
C49   C     C_R   0.060741 0.054586 0.468460 0.058485
C50   C     C_R   0.942906 0.892486 0.445292 0.006578
C51   C     C_R   0.058225 0.107822 0.555507 0.011289
C52   C     C_R   0.999840 0.947164 0.411731 -0.046350
C53   C     C_3   0.964411 0.489817 0.560535 -0.124673
C54   C     C_R   0.001003 0.053373 0.589026 -0.045476
C55   C     C_R   0.691813 0.693248 0.869900 0.022956
C56   C     C_R   0.296741 0.268509 0.099742 0.014961
C57   C     C_R   0.626295 0.616672 0.880792 0.064569
C58   C     C_R   0.363069 0.357283 0.103211 0.051191
C59   C     C_R   0.108756 0.498441 0.887319 0.516391
C60   C     C_R   0.891138 0.501486 0.112602 0.520356
C61   C     C_R   0.600914 0.647378 0.958161 -0.000298
C62   C     C_R   0.399599 0.344385 0.032959 -0.009906
C63   C     C_R   0.645456 0.752434 0.026260 -0.112187
C64   C     C_3   0.440405 0.966371 0.929737 0.013323
C65   C     C_R   0.365944 0.244777 0.958506 -0.094162
C66   C     C_R   0.716660 0.828062 0.020113 0.029532
C67   C     C_R   0.293117 0.157487 0.949985 0.067850
C68   C     C_R   0.737359 0.797957 0.940967 -0.083840
C69   C     C_R   0.260184 0.169955 0.021450 -0.084031
C70   C     C_R   0.593695 0.569178 0.034201 -0.129897
C71   C     C_R   0.406188 0.437013 0.972219 -0.130477
C72   C     C_R   0.549406 0.498078 0.055286 0.057665
C73   C     C_R   0.450524 0.505460 0.948400 0.052196
C74   C     C_R   0.454152 0.429984 0.023069 -0.010847
C75   C     C_3   0.559842 0.034068 0.071123 0.011796
C76   C     C_R   0.545823 0.572954 0.980038 -0.019663
C77   C     C_R   0.003864 0.663400 0.840535 -0.051892
C78   C     C_R   0.005642 0.346656 0.167026 0.006955
C79   C     C_R   0.025008 0.636744 0.892238 -0.150900
C80   C     C_R   0.980699 0.368773 0.112837 -0.126277
C81   C     C_R   0.967941 0.537964 0.872542 -0.016133
C82   C     C_R   0.034583 0.466523 0.129777 -0.031711
C83   C     C_R   0.392312 0.499715 0.608006 0.585736
C84   C     C_R   0.607507 0.500095 0.391847 0.571191
C85   C     C_R   0.886906 0.462702 0.798964 0.036848
C86   C     C_3   0.544510 0.040563 0.956884 -0.146828
C87   C     C_R   0.115906 0.545330 0.203003 0.035138
C88   C     C_R   0.862519 0.489428 0.747507 0.000565
C89   C     C_R   0.144700 0.522723 0.255766 -0.001525
C90   C     C_R   0.919776 0.591875 0.770364 -0.013491
C91   C     C_R   0.091150 0.421439 0.235538 -0.016831
C92   C     C_R   0.936796 0.520927 0.994970 -0.131371
C93   C     C_R   0.062616 0.478575 0.004588 -0.133417
C94   C     C_R   0.947995 0.500867 0.056457 0.054719
C95   C     C_R   0.051549 0.498770 0.943182 0.053065
C96   C     C_R   0.012312 0.480215 0.061981 0.001227
C97   C     C_3   0.455754 0.959677 0.043934 -0.151510
C98   C     C_R   0.987504 0.519933 0.937941 0.004214
C99   C     C_R   0.394358 0.501857 0.890091 0.554672
C100  C     C_R   0.605632 0.498707 0.110513 0.549384
C101  C     C_R   0.109279 0.500105 0.607505 0.563894
C102  C     C_R   0.891165 0.500277 0.392499 0.549997
C103  C     C_3   0.082768 0.589612 0.541387 0.057659
C104  C     C_3   0.919679 0.412452 0.458546 0.058252
C105  C     C_3   0.994769 0.580441 0.552268 -0.102128
C106  C     C_3   0.007776 0.421830 0.447782 -0.105089
C107  C     C_3   0.949387 0.501449 0.450180 0.007625
C108  C     C_3   0.548966 0.103180 0.054754 -0.034390
C109  C     C_3   0.052798 0.500512 0.549789 -0.001608
C110  C     C_2   0.140898 0.122167 0.738589 0.611080
C111  C     C_2   0.862872 0.892930 0.268869 0.615592
C112  C     C_2   0.877564 0.890342 0.567230 0.607847
C113  C     C_2   0.130079 0.110267 0.437515 0.608578
C114  C     C_2   0.714346 0.668480 0.786106 0.610409
C115  C     C_2   0.265484 0.274758 0.176506 0.646142
C116  C     C_2   0.591977 0.506764 0.818697 0.621210
C117  C     C_2   0.386681 0.461307 0.173162 0.634037
C118  C     C_2   0.175951 0.687650 0.584599 0.643191
H1    H     H_    0.629171 0.773659 0.087241 0.121624
H2    H     H_    0.876632 0.791821 0.107162 0.149042
H3    H     H_    0.271222 0.178147 0.783845 0.363525
H4    H     H_    0.739979 0.856555 0.224486 0.351558
H5    H     H_    0.886248 0.103653 0.648863 0.150636
H6    H     H_    0.106788 0.887102 0.344016 0.150804
H7    H     H_    0.887264 0.195016 0.803685 0.177039
H8    H     H_    0.100391 0.795927 0.187128 0.174430
H9    H     H_    0.748076 0.794860 0.552632 0.377426
H10   H     H_    0.262326 0.206971 0.459563 0.363803
H11   H     H_    0.790173 0.857263 0.935336 0.210019
H12   H     H_    0.392117 0.236153 0.903742 0.166265
H13   H     H_    0.206694 0.101924 0.016463 0.217488
H14   H     H_    0.782816 0.723017 0.718082 0.366954
H15   H     H_    0.177879 0.198928 0.221986 0.391019
H16   H     H_    0.621143 0.402247 0.765727 0.378374
H17   H     H_    0.483781 0.614009 0.258824 0.356245
H18   H     H_    0.308246 0.762752 0.646122 0.351607
H19   H     H_    0.693011 0.247112 0.392253 0.351285
H20   H     H_    0.672207 0.933378 0.148176 0.315217
H21   H     H_    0.244766 0.968237 0.739116 0.380168
H22   H     H_    0.666972 0.621430 0.058158 0.178374
H23   H     H_    0.067029 0.525160 0.390672 0.163749
H24   H     H_    0.332947 0.385489 0.949004 0.182451
H25   H     H_    0.826142 0.591483 0.610824 0.353327
H26   H     H_    0.193488 0.432375 0.397890 0.359528
H27   H     H_    0.100144 0.845724 0.990706 0.293680
H28   H     H_    0.879489 0.174138 0.212755 0.423861
H29   H     H_    0.087555 0.693119 0.948138 0.144344
H30   H     H_    0.917859 0.309588 0.057129 0.169958
H31   H     H_    0.698591 0.240535 0.748858 0.353648
H32   H     H_    0.297201 0.769945 0.249470 0.351736
H33   H     H_    0.706726 0.266024 0.552896 0.367125
H34   H     H_    0.935035 0.477212 0.609324 0.164250
H35   H     H_    0.299392 0.747703 0.449704 0.365408
H36   H     H_    0.886937 0.535937 0.990144 0.138852
H37   H     H_    0.112768 0.464046 0.009726 0.138240
H38   H     H_    0.581002 0.073923 0.921181 0.185370
H39   H     H_    0.419390 0.926374 0.079717 0.181943
H40   H     H_    0.359761 0.938139 0.745858 0.361970
H41   H     H_    0.643585 0.069926 0.258452 0.371552
H42   H     H_    0.288254 0.048379 0.117493 0.374304
H43   H     H_    0.711668 0.950778 0.883357 0.376477
H44   H     H_    0.451220 0.184375 0.288184 0.359195
H45   H     H_    0.990864 0.646836 0.594635 0.199036
H46   H     H_    0.546323 0.813492 0.707336 0.360105
H47   H     H_    0.343312 0.415439 0.414674 0.210642
H48   H     H_    0.655329 0.582028 0.584143 0.185344
H49   H     H_    0.576189 0.727595 0.421885 0.354625
H50   H     H_    0.429229 0.302287 0.611389 0.377091
H51   H     H_    0.013276 0.356575 0.406074 0.214042
H52   H     H_    0.004319 0.253607 0.927029 0.128019
H53   H     H_    0.984720 0.747151 0.069405 0.111036
H54   H     H_    0.119794 0.219517 0.896806 0.142891
O1    O     O_3   0.251620 0.500000 0.748430 -0.477893
O2    O     O_R   0.570330 0.268390 0.136490 -0.507528
O3    O     O_R   0.134680 0.268390 0.572240 -0.503004
O4    O     O_R   0.865320 0.731610 0.427760 -0.504120
O5    O     O_R   0.306670 0.731630 0.863510 -0.502695
O6    O     O_R   0.693330 0.268370 0.136490 -0.505822
O7    O     O_R   0.135450 0.439270 0.865360 -0.551302
O8    O     O_R   0.864550 0.560730 0.134640 -0.547738
O9    O     O_R   0.429670 0.560710 0.692610 -0.501023
O10   O     O_R   0.570330 0.439290 0.307390 -0.505900
O11   O     O_R   0.308540 0.439240 0.865360 -0.540674
O12   O     O_3   0.748380 0.500000 0.251570 -0.477529
O13   O     O_R   0.691460 0.560760 0.134640 -0.551238
O14   O     O_R   0.133580 0.439310 0.571150 -0.533104
O15   O     O_R   0.866420 0.560690 0.428850 -0.527908
O16   O     O_R   0.430770 0.560690 0.864590 -0.519495
O17   O     O_R   0.569230 0.439310 0.135410 -0.513355
O18   O     O_R   0.133580 0.560760 0.692610 -0.506991
O19   O     O_R   0.866420 0.439240 0.307390 -0.521930
O20   O     O_2   0.126646 0.046253 0.669126 -0.470494
O21   O     O_R   0.226094 0.194262 0.804053 -0.724479
O22   O     O_2   0.879364 0.965892 0.342381 -0.476874
O23   O     O_R   0.134680 0.560740 0.864590 -0.549931
O24   O     O_R   0.780386 0.833031 0.202544 -0.726779
O25   O     O_2   0.905913 0.897870 0.632618 -0.461812
O26   O     O_R   0.784559 0.829034 0.523639 -0.651647
O27   O     O_2   0.106912 0.102524 0.370211 -0.470217
O28   O     O_R   0.221839 0.172553 0.486601 -0.660269
O29   O     O_2   0.679354 0.579121 0.722902 -0.446334
O30   O     O_R   0.774663 0.748698 0.778674 -0.629468
O31   O     O_2   0.307434 0.355470 0.251078 -0.448851
O32   O     O_R   0.189908 0.186310 0.164293 -0.643239
O33   O     O_2   0.510670 0.439670 0.782881 -0.495903
O34   O     O_R   0.865320 0.439260 0.135410 -0.549293
O35   O     O_R   0.652856 0.479830 0.805720 -0.639304
O36   O     O_2   0.326549 0.472331 0.191461 -0.434289
O37   O     O_R   0.476999 0.547060 0.215445 -0.675522
O38   O     O_2   0.189202 0.758462 0.582123 -0.487913
O39   O     O_R   0.247680 0.696087 0.624652 -0.656116
O40   O     O_2   0.816077 0.231157 0.365693 -0.464607
O41   O     O_R   0.752470 0.318194 0.426007 -0.646160
O42   O     O_2   0.851429 0.994664 0.104422 -0.423086
O43   O     O_R   0.739868 0.980441 0.163604 -0.622932
O44   O     O_2   0.184620 0.977742 0.857293 -0.391780
O45   O     O_R   0.306670 0.439270 0.571150 -0.528186
O46   O     O_R   0.282530 0.042177 0.794151 -0.688870
O47   O     O_2   0.915038 0.715272 0.765369 -0.451095
O48   O     O_R   0.840346 0.558157 0.633448 -0.651376
O49   O     O_2   0.109046 0.306272 0.242153 -0.442651
O50   O     O_R   0.174804 0.462119 0.374216 -0.668259
O51   O     O_2   0.092756 0.767769 0.794603 -0.374533
O52   O     O_R   0.123326 0.855141 0.943692 -0.604171
O53   O     O_2   0.885694 0.169957 0.080077 -0.450659
O54   O     O_R   0.930629 0.244271 0.228732 -0.644283
O55   O     O_2   0.856919 0.312240 0.779117 -0.536731
O56   O     O_R   0.693330 0.560730 0.428850 -0.528430
O57   O     O_R   0.732790 0.311597 0.761097 -0.671272
O58   O     O_2   0.137870 0.691477 0.220217 -0.540863
O59   O     O_R   0.266167 0.699685 0.238444 -0.659637
O60   O     O_2   0.720397 0.421505 0.661206 -0.366185
O61   O     O_R   0.766584 0.315834 0.602950 -0.666638
O62   O     O_2   0.291706 0.597878 0.337163 -0.366395
O63   O     O_R   0.238677 0.696090 0.400510 -0.654242
O64   O     O_2   0.294360 0.873461 0.832632 -0.407208
O65   O     O_R   0.409369 0.966474 0.797557 -0.687129
O66   O     O_2   0.706664 0.129518 0.167965 -0.425111
O67   O     O_R   0.135450 0.268370 0.694460 -0.546709
O68   O     O_R   0.593171 0.040578 0.206865 -0.703421
O69   O     O_2   0.382935 0.120302 0.046946 -0.495910
O70   O     O_R   0.326881 0.021391 0.099687 -0.676258
O71   O     O_2   0.618586 0.881589 0.956280 -0.507532
O72   O     O_R   0.672722 0.977397 0.900491 -0.666777
O73   O     O_2   0.350204 0.235929 0.305538 -0.492899
O74   O     O_R   0.483243 0.258537 0.342019 -0.652002
O75   O     O_2   0.647646 0.762734 0.693287 -0.482225
O76   O     O_R   0.514803 0.739204 0.653897 -0.666700
O77   O     O_2   0.430359 0.584876 0.393495 -0.396123
O78   O     O_R   0.864550 0.731630 0.305540 -0.548878
O79   O     O_R   0.583908 0.692910 0.447149 -0.677175
O80   O     O_2   0.546212 0.357813 0.549767 -0.396764
O81   O     O_R   0.429340 0.350648 0.599522 -0.661509
O82   O     O_R   0.429670 0.731610 0.863510 -0.511291
Zn1   Zn    Zn3+2 0.207400 0.586780 0.791530 0.997525
Zn2   Zn    Zn3+2 0.792600 0.413220 0.208470 0.992944
Zn3   Zn    Zn3+2 0.208510 0.413230 0.792630 0.967889
Zn4   Zn    Zn3+2 0.791490 0.586770 0.207370 0.961171
Zn5   Zn    Zn3+2 0.383150 0.586740 0.791530 1.032347
Zn6   Zn    Zn3+2 0.616850 0.413260 0.208470 1.029917
Zn7   Zn    Zn3+2 0.207400 0.413250 0.618010 1.027299
Zn8   Zn    Zn3+2 0.792600 0.586750 0.381990 1.021530

loop_
_geom_bond_atom_site_label_1
_geom_bond_atom_site_label_2
_ccdc_geom_bond_type
C2    C35   S    
C58   C62   A    
C66   C68   A    
C117  O37   S    
C10   C85   S    
C26   C32   S    
O23   Zn1   S    
C27   C29   S    
C16   C75   S    
C92   C94   A    
C9    O53   D    
C49   C113  S    
C100  O17   A    
C5    C67   S    
C117  O36   D    
O34   Zn2   S    
C42   C103  S    
C34   C47   A    
C104  C106  S    
C55   C68   A    
O7    Zn3   S    
C95   C98   A    
C92   C98   A    
C39   C41   A    
H27   O52   S    
C62   C65   A    
C1    O67   A    
C25   C28   S    
C36   O2    A    
C105  C107  S    
C20   C27   S    
C83   O9    A    
C118  O38   D    
O12   Zn6   S    
C22   C32   S    
O11   Zn3   S    
C38   C40   A    
C24   C26   S    
O1    Zn5   S    
C29   C32   S    
C18   O71   D    
O2    Zn6   S    
C83   O45   A    
C78   C80   A    
C39   C54   S    
C28   C84   S    
C81   C98   S    
C110  O20   D    
C53   C104  S    
C101  C109  S    
C82   C87   A    
H33   O61   S    
C29   C83   S    
C75   C97   S    
H49   O79   S    
H35   O63   S    
H3    O21   S    
C61   C63   A    
C19   C26   S    
C86   H38   S    
C24   C29   S    
C99   O16   A    
H43   O72   S    
H25   O48   S    
C56   C115  S    
C40   C43   A    
C2    C97   S    
C11   C87   S    
C49   C51   A    
C23   C86   S    
C115  O31   D    
C15   O64   D    
C35   O82   A    
O12   Zn8   S    
C15   C64   S    
C114  O30   S    
C9    O54   S    
C89   C91   A    
C42   C107  S    
C62   C74   S    
O1    Zn7   S    
C116  O33   D    
C8    O52   S    
C111  O24   S    
C58   C117  S    
O8    Zn4   S    
C25   C32   S    
C48   C50   A    
C63   C66   A    
C16   O66   D    
C75   C108  S    
C93   C95   A    
C4    O43   S    
C27   C30   S    
C33   C46   A    
C59   C95   S    
C110  O21   S    
C13   C108  S    
C112  O26   S    
C14   O63   S    
C77   C79   A    
C44   C46   A    
C12   O60   D    
C57   C116  S    
C24   C30   S    
C31   O4    A    
C45   C47   A    
O14   Zn7   S    
C34   H2    S    
C12   O61   S    
O5    Zn1   S    
C77   C90   A    
C64   C86   S    
C4    O42   D    
O45   Zn7   S    
C12   C88   S    
C18   C23   S    
C22   O81   S    
C35   O5    A    
C93   H37   S    
O6    Zn2   S    
C82   C96   S    
C2    C64   S    
C72   C74   A    
C101  O18   A    
H4    O24   S    
C3    C104  S    
C71   C73   A    
C7    O50   S    
C79   H29   S    
H28   O54   S    
C65   C67   A    
C40   C52   S    
C5    O44   D    
C20   O75   D    
C10   O57   S    
O12   Zn4   S    
H32   O59   S    
C46   H52   S    
C31   O78   A    
C118  O39   S    
C67   C69   A    
C97   H39   S    
H44   O74   S    
C48   C54   A    
H10   O28   S    
C14   C89   S    
O1    Zn3   S    
C53   H34   S    
H18   O39   S    
C63   H1    S    
C61   C76   S    
O13   Zn4   S    
C50   C52   A    
C5    O46   S    
C80   H30   S    
C45   H8    S    
C69   H13   S    
C49   C52   A    
C7    C91   S    
C115  O32   S    
C42   H23   S    
C105  H45   S    
C102  O19   A    
H41   O68   S    
C114  O29   D    
C36   O6    A    
C102  C107  S    
C103  C105  S    
C70   H22   S    
C94   C96   A    
C43   C45   A    
C37   C110  S    
C8    O51   D    
C80   C82   A    
H20   O43   S    
C71   H24   S    
C6    O48   S    
O4    Zn8   S    
H17   O37   S    
C88   C90   A    
C17   O70   S    
C93   C96   A    
C59   O7    A    
C55   C57   A    
C70   C76   A    
C8    C77   S    
C25   H48   S    
C41   C44   A    
C103  C118  S    
C25   C27   S    
H40   O65   S    
C31   C50   S    
C101  O14   A    
C84   O56   A    
H9    O26   S    
C112  O25   D    
C14   O62   D    
C19   O73   D    
C79   C81   A    
C22   O80   D    
C72   C100  S    
C85   C88   A    
C53   C109  S    
C3    O40   D    
C73   C99   S    
C1    O3    A    
C11   O59   S    
O17   Zn6   S    
H19   O41   S    
C4    C66   S    
C34   C38   A    
H26   O50   S    
C84   O10   A    
O67   Zn3   S    
C86   C108  S    
C60   O8    A    
O19   Zn2   S    
C23   C75   S    
C21   O79   S    
C71   C74   A    
C47   H53   S    
C44   H7    S    
C57   C61   A    
O9    Zn5   S    
C55   C114  S    
C13   C17   S    
C78   C91   A    
O56   Zn8   S    
O10   Zn6   S    
C21   C30   S    
C15   O65   S    
O15   Zn8   S    
C26   C28   S    
C102  O15   A    
C1    C51   S    
C65   H12   S    
C36   C108  S    
C103  C109  S    
C51   C54   A    
C59   O23   A    
C41   H5    S    
C87   C89   A    
C100  O13   A    
H31   O57   S    
C28   C30   S    
C37   C39   A    
C6    C90   S    
O3    Zn7   S    
C21   O77   D    
H21   O46   S    
C60   O34   A    
H16   O35   S    
O18   Zn1   S    
C13   C64   S    
O82   Zn5   S    
H15   O32   S    
C7    O49   D    
H50   O81   S    
O16   Zn5   S    
C18   O72   S    
C11   O58   D    
C106  H51   S    
C113  O28   S    
C56   C58   A    
C24   H47   S    
C9    C78   S    
O12   Zn2   S    
C13   C97   S    
C68   H11   S    
H46   O76   S    
C33   C37   A    
O1    Zn1   S    
C116  O35   S    
C111  O22   D    
C17   O69   D    
C6    O47   D    
C42   C106  S    
C53   C105  S    
C3    O41   S    
C20   O76   S    
C70   C72   A    
C73   C76   A    
C16   O68   S    
C56   C69   A    
C2    C23   S    
C48   C112  S    
C10   O55   D    
C92   H36   S    
C99   O11   A    
C113  O27   D    
H42   O70   S    
C38   C111  S    
C33   H54   S    
H14   O30   S    
C43   H6    S    
O78   Zn4   S    
C104  C107  S    
C81   C85   A    
C19   O74   S    
C106  C109  S    
C60   C94   S    
