data_mof_unit_1970.cif
_audit_creation_date              2012-12-10T17:02:29-0500
_audit_creation_method            fapswitch 2.2
_symmetry_space_group_name_H-M    P1
_symmetry_Int_Tables_number       1
_space_group_crystal_system       triclinic
_cell_length_a                    10.87695
_cell_length_b                    11.023625
_cell_length_c                    9.771165
_cell_angle_alpha                 111.60656
_cell_angle_beta                  97.012869
_cell_angle_gamma                 90.653997
_cell_volume                      1079.10474004

loop_
_atom_site_label
_atom_site_type_symbol
_atom_type_description
_atom_site_fract_x
_atom_site_fract_y
_atom_site_fract_z
_atom_type_partial_charge
C1    C     C_R   0.486423 0.253978 0.440607 0.840562
C2    C     C_R   0.508559 0.746237 0.559804 0.874405
C3    C     C_2   0.477942 0.114336 0.406982 -0.369809
C4    C     C_2   0.511495 0.886037 0.593872 -0.366290
C5    C     C_2   0.492484 0.069898 0.517179 -0.158692
C6    C     C_2   0.489274 0.930535 0.484187 -0.157478
C7    C     C_2   0.514199 0.507038 0.081099 -0.075518
C8    C     C_2   0.502088 0.479204 0.916915 -0.114983
C9    C     C_R   0.262319 0.488739 0.500676 0.801830
C10   C     C_R   0.737291 0.498107 0.496369 0.788509
C11   C     C_R   0.137256 0.599042 0.778184 0.148824
C12   C     C_R   0.845016 0.282191 0.260290 0.136049
C13   C     C_R   0.103119 0.720142 0.878280 0.191300
C14   C     C_R   0.888517 0.224174 0.121205 0.237932
C15   C     C_R   0.990933 0.768775 0.839133 -0.182008
C16   C     C_R   0.015754 0.233578 0.116758 -0.217121
C17   C     C_R   0.912399 0.694334 0.710787 -0.202208
C18   C     C_R   0.095822 0.303907 0.244915 -0.209588
C19   C     C_R   0.951255 0.577546 0.609185 0.060478
C20   C     C_R   0.049408 0.388502 0.373686 0.069579
C21   C     C_R   0.074381 0.547409 0.630682 0.016906
C22   C     C_R   0.919402 0.386304 0.375013 0.001132
C23   C     C_R   0.870408 0.488387 0.489792 -0.177288
C24   C     C_R   0.128242 0.469613 0.503896 -0.199756
Cu1   Cu    Cu3+1 0.521920 0.521810 0.644910 0.924209
Cu2   Cu    Cu3+1 0.478080 0.478190 0.355090 0.920782
H1    H     H_    0.053910 0.179119 0.015943 0.142873
H2    H     H_    0.958451 0.858701 0.912016 0.147017
H3    H     H_    0.822405 0.730105 0.690414 0.148316
H4    H     H_    0.193135 0.289778 0.239054 0.174964
H5    H     H_    0.469474 0.863915 0.368791 0.180633
H6    H     H_    0.508845 0.136564 0.632754 0.178764
H7    H     H_    0.531395 0.952917 0.709074 0.146923
H8    H     H_    0.462097 0.047472 0.291547 0.150366
H9    H     H_    0.443743 0.395027 0.841666 0.159690
H10   H     H_    0.583149 0.581561 0.155214 0.165680
H11   H     H_    0.607390 0.635548 0.937314 0.193969
H12   H     H_    0.381257 0.374143 0.064426 0.188728
N1    N     N_2   0.445130 0.445420 0.137360 -0.289056
N2    N     N_2   0.554870 0.554580 0.862640 -0.283566
O1    O     O_R   0.511700 0.332340 0.577400 -0.578743
O2    O     O_R   0.488300 0.667660 0.422600 -0.573716
O3    O     O_R   0.474680 0.295500 0.332650 -0.598660
O4    O     O_R   0.525320 0.704500 0.667350 -0.580773
O5    O     O_R   0.338170 0.518410 0.622370 -0.586571
O6    O     O_R   0.661830 0.481590 0.377630 -0.578771
O7    O     O_R   0.301150 0.481570 0.377630 -0.571781
O8    O     O_R   0.698850 0.518430 0.622370 -0.562835
C25   C     C_3   0.197287 0.504124 0.841820 -0.402428
C26   C     C_3   0.104074 0.447602 0.911114 -0.846090
H13   H     H_    0.069120 0.525571 0.004527 0.260671
H14   H     H_    0.024210 0.395791 0.826122 0.258743
H15   H     H_    0.149547 0.376810 0.954310 0.236333
H16   H     H_    0.230784 0.419419 0.754581 0.217222
H17   H     H_    0.276680 0.553983 0.927334 0.208249
C27   C     C_3   0.746434 0.206448 0.298996 -0.381948
C28   C     C_3   0.786029 0.069889 0.284977 -0.885730
H18   H     H_    0.717128 0.021668 0.326419 0.256709
H19   H     H_    0.791722 0.007252 0.167671 0.243728
H20   H     H_    0.877795 0.077082 0.352313 0.261979
H21   H     H_    0.731061 0.254912 0.416098 0.206683
H22   H     H_    0.657880 0.198158 0.226565 0.219410
C29   C     C_3   0.183688 0.789808 0.027133 -0.405984
C30   C     C_3   0.158437 0.933216 0.107894 -0.863456
H23   H     H_    0.164371 0.988380 0.033833 0.248980
H24   H     H_    0.065930 0.941774 0.146620 0.254950
H25   H     H_    0.229188 0.977514 0.207204 0.248502
H26   H     H_    0.172976 0.736547 0.102157 0.215206
H27   H     H_    0.282378 0.787569 0.007581 0.199550
C31   C     C_3   0.804388 0.143008 0.980247 -0.438311
C32   C     C_3   0.800076 0.205478 0.863904 -0.819582
H28   H     H_    0.768071 0.306233 0.909137 0.263143
H29   H     H_    0.893003 0.208809 0.829026 0.247177
H30   H     H_    0.734382 0.146596 0.764352 0.243634
H31   H     H_    0.838447 0.043427 0.933910 0.191614
H32   H     H_    0.707775 0.131960 0.000734 0.205834

loop_
_geom_bond_atom_site_label_1
_geom_bond_atom_site_label_2
_ccdc_geom_bond_type
C10   O6    A    
C32   H30   S    
C19   C23   A    
C9    C24   S    
C9    O5    A    
C31   C32   S    
C18   H4    S    
C14   C16   A    
Cu1   O5    S    
C10   C23   S    
C17   H3    S    
C7    H10   S    
C2    C4    S    
C13   C29   S    
C20   C22   A    
C7    N1    D    
C3    C5    D    
C5    H6    S    
C30   H23   S    
C16   H1    S    
C26   H13   S    
C15   H2    S    
C32   H28   S    
C25   H17   S    
C10   O8    A    
C1    O1    A    
C11   C13   A    
Cu1   O8    S    
C28   H18   S    
C12   C27   S    
Cu2   O7    S    
C2    O2    A    
C11   C25   S    
C15   C17   A    
Cu1   O4    S    
C16   C18   A    
C17   C19   A    
C12   C14   A    
Cu2   O3    S    
C9    O7    A    
H11   N2    S    
C18   C20   A    
C13   C15   A    
Cu1   N2    S    
C31   H32   S    
C5    C6    S    
C14   C31   S    
C27   H22   S    
Cu2   N1    S    
C26   H14   S    
C26   H15   S    
C28   H19   S    
Cu2   O6    S    
C11   C21   A    
C25   H16   S    
C30   H25   S    
C12   C22   A    
C7    C8    S    
H12   N1    S    
C27   C28   S    
Cu2   O2    S    
C4    C6    D    
C25   C26   S    
C21   C24   A    
Cu1   O1    S    
C31   H31   S    
C32   H29   S    
C4    H7    S    
C20   C24   A    
C29   H26   S    
C28   H20   S    
C6    H5    S    
C8    N2    D    
C3    H8    S    
C19   C21   A    
Cu1   Cu2   S    
C27   H21   S    
C1    O3    A    
C22   C23   A    
C29   H27   S    
C2    O4    A    
C29   C30   S    
C1    C3    S    
C8    H9    S    
C30   H24   S    
