data_mof_unit_990.cif
_audit_creation_date              2012-12-10T20:42:37-0500
_audit_creation_method            fapswitch 2.2
_symmetry_space_group_name_H-M    P1
_symmetry_Int_Tables_number       1
_space_group_crystal_system       triclinic
_cell_length_a                    8.872026
_cell_length_b                    10.793639
_cell_length_c                    9.948538
_cell_angle_alpha                 90.410526
_cell_angle_beta                  89.988416
_cell_angle_gamma                 90.175676
_cell_volume                      952.657435149

loop_
_atom_site_label
_atom_site_type_symbol
_atom_type_description
_atom_site_fract_x
_atom_site_fract_y
_atom_site_fract_z
_atom_type_partial_charge
C1    C     C_R   0.500477 0.260767 0.499445 0.879769
C2    C     C_R   0.474677 0.938861 0.373982 -0.019418
C3    C     C_R   0.473695 0.872997 0.496712 -0.170176
C4    C     C_R   0.475014 0.939078 0.617075 0.052140
C5    C     C_3   0.364314 0.948080 0.732094 -0.211398
C6    C     C_3   0.387593 0.087075 0.731319 -0.504959
C7    C     C_R   0.394287 0.434060 0.070148 0.216639
C8    C     C_R   0.619876 0.544228 0.072180 -0.098451
C9    C     C_R   0.619840 0.544295 0.928411 -0.155097
C10   C     C_R   0.393936 0.434531 0.928813 0.212152
C11   C     C_3   0.226599 0.445997 0.923348 -0.511803
C12   C     C_R   0.219064 0.499958 0.499992 0.924704
C13   C     C_3   0.226994 0.444419 0.076583 -0.504903
C14   C     C_R   0.489922 0.739820 0.499673 0.843081
C15   C     C_R   0.780950 0.499895 0.500010 0.932651
C16   C     C_1   0.065575 0.499548 0.499999 -0.209987
C17   C     C_1   0.934488 0.499441 0.499985 -0.215202
C18   C     C_R   0.493081 0.065376 0.617532 0.121276
C19   C     C_R   0.501281 0.129362 0.497678 -0.098782
C20   C     C_R   0.495532 0.065799 0.375390 -0.278046
H1    H     H_    0.495728 0.115193 0.280782 0.173885
H2    H     H_    0.172826 0.362410 0.878113 0.203990
H3    H     H_    0.188414 0.532208 0.123482 0.222781
H4    H     H_    0.174189 0.359610 0.118666 0.200679
H5    H     H_    0.416184 0.909484 0.821216 0.167259
H6    H     H_    0.287027 0.141708 0.701043 0.205355
H7    H     H_    0.446686 0.122844 0.822293 0.192609
H8    H     H_    0.713563 0.585596 0.125839 0.145963
H9    H     H_    0.713655 0.585455 0.875321 0.150768
H10   H     H_    0.188231 0.535337 0.880685 0.215748
N1    N     N_R   0.499010 0.499140 0.142800 -0.098794
N2    N     N_R   0.499010 0.499180 0.857150 -0.112338
O1    O     O_R   0.500020 0.316790 0.614690 -0.614827
O2    O     O_R   0.500000 0.316760 0.385350 -0.627823
O3    O     O_R   0.285350 0.500020 0.614650 -0.617869
O4    O     O_R   0.285340 0.499980 0.385310 -0.618843
O5    O     O_R   0.500000 0.683240 0.614650 -0.626281
O6    O     O_R   0.499980 0.683210 0.385310 -0.600070
O7    O     O_R   0.714660 0.500020 0.614690 -0.616146
O8    O     O_R   0.714650 0.499980 0.385350 -0.623201
Zn1   Zn    Zn3+2 0.500010 0.500020 0.653130 0.933679
Zn2   Zn    Zn3+2 0.499990 0.499980 0.346870 0.949053
C21   C     C_R   0.435858 0.881669 0.244553 0.185971
C22   C     C_R   0.546662 0.866727 0.146026 -0.150903
C23   C     C_R   0.510798 0.806646 0.026269 -0.171194
C24   C     C_R   0.364663 0.761082 0.004575 -0.096689
C25   C     C_R   0.252427 0.780737 0.100260 -0.167098
C26   C     C_R   0.287825 0.840741 0.220571 -0.128616
H11   H     H_    0.660600 0.899683 0.162897 0.115906
H12   H     H_    0.596402 0.795933 0.949615 0.123617
H13   H     H_    0.337368 0.715044 0.910868 0.145846
H14   H     H_    0.138266 0.749723 0.081087 0.125764
H15   H     H_    0.200283 0.855255 0.294594 0.106969
C27   C     C_R   0.198379 0.912075 0.719403 0.182305
C28   C     C_R   0.103040 0.942509 0.827928 -0.168736
C29   C     C_R   0.950040 0.911130 0.825514 -0.165549
C30   C     C_R   0.889473 0.849287 0.714346 -0.109471
C31   C     C_R   0.982094 0.818343 0.605925 -0.149268
C32   C     C_R   0.135664 0.848254 0.608614 -0.123712
H16   H     H_    0.147814 0.990634 0.915203 0.141640
H17   H     H_    0.878433 0.934905 0.909903 0.126016
H18   H     H_    0.770988 0.825148 0.712313 0.135894
H19   H     H_    0.934863 0.770688 0.519554 0.125554
H20   H     H_    0.202170 0.820233 0.523976 0.105985

loop_
_geom_bond_atom_site_label_1
_geom_bond_atom_site_label_2
_ccdc_geom_bond_type
C22   H11   S    
C7    C10   A    
C28   C29   A    
C25   H14   S    
N1    Zn2   S    
C14   O6    A    
C21   C26   A    
C27   C28   A    
C11   H2    S    
O4    Zn2   S    
C19   C20   A    
O2    Zn2   S    
C6    H7    S    
C9    H9    S    
C2    C21   S    
N2    Zn1   S    
O1    Zn1   S    
O8    Zn2   S    
C2    C3    A    
C30   C31   A    
C4    C18   A    
C30   H18   S    
O7    Zn1   S    
C23   C24   A    
C22   C23   A    
C12   O3    A    
C4    C5    S    
C11   C13   S    
C15   O7    A    
C32   H20   S    
C6    H6    S    
C3    C14   S    
C23   H12   S    
O3    Zn1   S    
C5    C6    S    
C13   H4    S    
C1    O2    A    
O6    Zn2   S    
C27   C32   A    
C21   C22   A    
O5    Zn1   S    
C26   H15   S    
C8    H8    S    
C6    C18   S    
C5    H5    S    
C15   O8    A    
C1    C19   S    
C12   O4    A    
C10   C11   S    
C1    O1    A    
C3    C4    A    
C10   N2    A    
C5    C27   S    
C7    C13   S    
C7    N1    A    
C20   H1    S    
C13   H3    S    
C15   C17   S    
C18   C19   A    
C24   C25   A    
C31   H19   S    
C29   C30   A    
C29   H17   S    
C16   C17   T    
C12   C16   S    
C9    N2    A    
C31   C32   A    
C28   H16   S    
C8    N1    A    
C2    C20   A    
C24   H13   S    
C25   C26   A    
C11   H10   S    
C8    C9    A    
C14   O5    A    
