data_mof_unit_3001.cif
_audit_creation_date              2012-12-10T19:03:58-0500
_audit_creation_method            fapswitch 2.2
_symmetry_space_group_name_H-M    P1
_symmetry_Int_Tables_number       1
_space_group_crystal_system       triclinic
_cell_length_a                    19.399905
_cell_length_b                    19.111424
_cell_length_c                    13.041616
_cell_angle_alpha                 89.994891
_cell_angle_beta                  95.945464
_cell_angle_gamma                 89.998916
_cell_volume                      4809.29763509

loop_
_atom_site_label
_atom_site_type_symbol
_atom_type_description
_atom_site_fract_x
_atom_site_fract_y
_atom_site_fract_z
_atom_type_partial_charge
C1    C     C_R   0.408117 0.093253 0.481278 0.900617
C2    C     C_1   0.520354 0.995769 0.147692 0.067926
C3    C     C_R   0.784431 0.324513 0.689381 -0.137943
C4    C     C_R   0.808036 0.779886 0.636607 0.147109
C5    C     C_R   0.838072 0.842355 0.676964 -0.154594
C6    C     C_R   0.884516 0.841366 0.766357 -0.154489
C7    C     C_R   0.901416 0.778091 0.816285 -0.108729
C8    C     C_R   0.871230 0.715873 0.777576 -0.124111
C9    C     C_R   0.823949 0.716673 0.689022 -0.142016
C10   C     C_R   0.221874 0.257488 0.355004 0.147299
C11   C     C_R   0.187901 0.200938 0.302590 -0.146652
C12   C     C_R   0.147294 0.211739 0.208857 -0.147106
C13   C     C_1   0.979659 0.495735 0.852309 0.067889
C14   C     C_R   0.140640 0.278843 0.166308 -0.112933
C15   C     C_R   0.174897 0.335232 0.217100 -0.115218
C16   C     C_R   0.215663 0.324665 0.310656 -0.137866
C17   C     C_1   0.020359 0.495784 0.147692 0.067922
C18   C     C_1   0.641416 0.146774 0.533717 -0.187989
C19   C     C_1   0.349756 0.863279 0.465225 -0.185709
C20   C     C_1   0.358591 0.146789 0.466262 -0.187992
C21   C     C_1   0.650223 0.863250 0.534795 -0.185715
C22   C     C_1   0.141417 0.646775 0.533720 -0.187995
C23   C     C_1   0.849768 0.363266 0.465222 -0.185700
C24   C     C_1   0.858594 0.646790 0.466265 -0.187985
C25   C     C_R   0.592627 0.907603 0.518798 0.899279
C26   C     C_1   0.150235 0.363263 0.534793 -0.185726
C27   C     C_2   0.734036 0.245934 0.545712 -0.024143
C28   C     C_2   0.241299 0.782699 0.458721 -0.032252
C29   C     C_2   0.265995 0.245981 0.454263 -0.024156
C30   C     C_2   0.758648 0.782619 0.541355 -0.032238
C31   C     C_2   0.234035 0.745939 0.545729 -0.024135
C32   C     C_2   0.741329 0.282661 0.458684 -0.032242
C33   C     C_2   0.765999 0.745981 0.454277 -0.024160
C34   C     C_2   0.258676 0.282654 0.541320 -0.032243
C35   C     C_1   0.299786 0.827109 0.457582 -0.054050
C36   C     C_R   0.591882 0.093251 0.518715 0.900632
C37   C     C_1   0.683294 0.192295 0.542928 -0.043763
C38   C     C_1   0.700176 0.827054 0.542463 -0.054025
C39   C     C_1   0.316724 0.192324 0.457041 -0.043745
C40   C     C_1   0.799808 0.327083 0.457566 -0.054057
C41   C     C_1   0.183294 0.692297 0.542937 -0.043743
C42   C     C_1   0.200197 0.327079 0.542448 -0.054019
C43   C     C_1   0.816728 0.692326 0.457050 -0.043764
C44   C     C_2   0.528096 0.989487 0.036674 -0.097116
C45   C     C_2   0.471923 0.989442 0.963328 -0.097115
C46   C     C_2   0.028111 0.489528 0.036675 -0.097138
C47   C     C_R   0.407370 0.907607 0.481208 0.899277
C48   C     C_2   0.971938 0.489397 0.963329 -0.097089
C49   C     C_R   0.400073 0.981127 0.992438 0.133125
C50   C     C_R   0.346390 0.024618 0.948935 -0.157936
C51   C     C_R   0.278612 0.015518 0.974073 -0.147391
C52   C     C_R   0.263572 0.962419 0.041948 -0.112801
C53   C     C_R   0.316209 0.918033 0.084278 -0.127497
C54   C     C_R   0.384025 0.926948 0.059280 -0.153627
C55   C     C_R   0.599961 0.981312 0.007565 0.133168
C56   C     C_R   0.653561 0.024900 0.051052 -0.157983
C57   C     C_R   0.721356 0.015933 0.025912 -0.147336
C58   C     C_R   0.908118 0.593253 0.481279 0.900622
C59   C     C_R   0.736496 0.962873 0.958050 -0.112836
C60   C     C_R   0.683944 0.918392 0.915735 -0.127534
C61   C     C_R   0.616111 0.927173 0.940735 -0.153628
C62   C     C_R   0.900102 0.480949 0.992439 0.133178
C63   C     C_R   0.846341 0.524343 0.948928 -0.158060
C64   C     C_R   0.778578 0.515113 0.974059 -0.147517
C65   C     C_R   0.763632 0.461981 0.041938 -0.112754
C66   C     C_R   0.816347 0.417692 0.084279 -0.127490
C67   C     C_R   0.884149 0.426735 0.059286 -0.153695
C68   C     C_R   0.099990 0.481489 0.007566 0.133107
C69   C     C_R   0.092629 0.407604 0.518798 0.899274
C70   C     C_R   0.153513 0.525168 0.051058 -0.157861
C71   C     C_R   0.221322 0.516335 0.025910 -0.147208
C72   C     C_R   0.236555 0.463318 0.958037 -0.112891
C73   C     C_R   0.184083 0.418746 0.915721 -0.127542
C74   C     C_R   0.116236 0.427393 0.940729 -0.153544
C75   C     C_R   0.691858 0.280058 0.363513 0.147070
C76   C     C_R   0.661846 0.342592 0.323332 -0.154468
C77   C     C_R   0.615326 0.341729 0.234019 -0.154549
C78   C     C_R   0.598321 0.278517 0.183997 -0.108816
C79   C     C_R   0.628479 0.216235 0.222531 -0.124176
C80   C     C_R   0.091883 0.593251 0.518716 0.900626
C81   C     C_R   0.675839 0.216909 0.310999 -0.142091
C82   C     C_R   0.278226 0.757339 0.644950 0.147294
C83   C     C_R   0.312200 0.700727 0.697222 -0.146636
C84   C     C_R   0.352861 0.711425 0.790932 -0.147121
C85   C     C_R   0.359570 0.778487 0.833599 -0.112947
C86   C     C_R   0.325314 0.834935 0.782947 -0.115214
C87   C     C_R   0.284492 0.824472 0.689417 -0.137868
C88   C     C_R   0.308115 0.279979 0.636521 0.147115
C89   C     C_R   0.338163 0.342474 0.676763 -0.154615
C90   C     C_R   0.384661 0.341539 0.766098 -0.154446
C91   C     C_R   0.907372 0.407605 0.481208 0.899284
C92   C     C_R   0.401606 0.278294 0.816083 -0.108730
C93   C     C_R   0.371410 0.216051 0.777489 -0.124136
C94   C     C_R   0.324073 0.216797 0.688995 -0.142025
C95   C     C_R   0.721918 0.757529 0.354995 0.147326
C96   C     C_R   0.687955 0.701002 0.302511 -0.146652
C97   C     C_R   0.647384 0.711841 0.208757 -0.147148
C98   C     C_R   0.640757 0.778962 0.166258 -0.112851
C99   C     C_R   0.675004 0.835328 0.217123 -0.115190
C100  C     C_R   0.715735 0.824723 0.310698 -0.137945
C101  C     C_R   0.191779 0.780153 0.363599 0.147079
C102  C     C_1   0.479654 0.995752 0.852309 0.067893
C103  C     C_R   0.161751 0.842710 0.323538 -0.154489
C104  C     C_R   0.115177 0.841900 0.234283 -0.154504
C105  C     C_R   0.098134 0.778718 0.184199 -0.108820
C106  C     C_R   0.128307 0.716414 0.222613 -0.124202
C107  C     C_R   0.175720 0.717035 0.311023 -0.142098
C108  C     C_R   0.778194 0.257368 0.644952 0.147323
C109  C     C_R   0.812167 0.200776 0.697277 -0.146636
C110  C     C_R   0.852798 0.211505 0.791004 -0.147161
C111  C     C_R   0.859478 0.278579 0.833634 -0.112870
C112  C     C_R   0.825224 0.335008 0.782928 -0.115190
H1    H     H_    0.356957 0.065581 0.895757 0.117941
H2    H     H_    0.576406 0.891154 0.908970 0.126259
H3    H     H_    0.856836 0.565328 0.895744 0.117953
H4    H     H_    0.737597 0.549072 0.940626 0.128863
H5    H     H_    0.711144 0.454843 0.061226 0.122996
H6    H     H_    0.804602 0.376062 0.136025 0.141020
H7    H     H_    0.923986 0.390858 0.091069 0.126270
H8    H     H_    0.142794 0.566071 0.104232 0.117927
H9    H     H_    0.262115 0.550515 0.059323 0.128873
H10   H     H_    0.289078 0.456489 0.938734 0.122787
H11   H     H_    0.196053 0.377205 0.863980 0.141040
H12   H     H_    0.237692 0.049552 0.940649 0.128867
H13   H     H_    0.076596 0.391305 0.908961 0.126272
H14   H     H_    0.674079 0.391988 0.361716 0.125627
H15   H     H_    0.592234 0.390050 0.203869 0.124318
H16   H     H_    0.561923 0.277799 0.115241 0.122543
H17   H     H_    0.615068 0.167477 0.183728 0.124395
H18   H     H_    0.699959 0.168333 0.338169 0.130970
H19   H     H_    0.307645 0.648482 0.665060 0.125330
H20   H     H_    0.379186 0.667675 0.830495 0.124743
H21   H     H_    0.391076 0.786682 0.906077 0.122740
H22   H     H_    0.330158 0.886773 0.816318 0.146899
H23   H     H_    0.211073 0.955382 0.061242 0.122962
H24   H     H_    0.257515 0.868639 0.651868 0.127436
H25   H     H_    0.325976 0.391893 0.638406 0.125603
H26   H     H_    0.407783 0.389830 0.796294 0.124301
H27   H     H_    0.437986 0.277521 0.884857 0.122548
H28   H     H_    0.384772 0.167267 0.816264 0.124390
H29   H     H_    0.299926 0.168249 0.661771 0.130941
H30   H     H_    0.692445 0.648713 0.334544 0.125351
H31   H     H_    0.621064 0.668156 0.169030 0.124791
H32   H     H_    0.609319 0.787266 0.093746 0.122791
H33   H     H_    0.670222 0.887211 0.183883 0.146878
H34   H     H_    0.304391 0.876429 0.136021 0.141013
H35   H     H_    0.742705 0.868829 0.348417 0.127407
H36   H     H_    0.174012 0.892082 0.361974 0.125614
H37   H     H_    0.092072 0.890238 0.204226 0.124322
H38   H     H_    0.061694 0.778041 0.115488 0.122531
H39   H     H_    0.114866 0.667678 0.183763 0.124403
H40   H     H_    0.199848 0.668442 0.338102 0.130985
H41   H     H_    0.807634 0.148522 0.665142 0.125336
H42   H     H_    0.879123 0.167770 0.830608 0.124762
H43   H     H_    0.890961 0.286799 0.906126 0.122798
H44   H     H_    0.830046 0.386854 0.816269 0.146957
H45   H     H_    0.423798 0.891000 0.091057 0.126279
H46   H     H_    0.757455 0.368666 0.651789 0.127426
H47   H     H_    0.825918 0.891797 0.638655 0.125615
H48   H     H_    0.907627 0.889637 0.796644 0.124298
H49   H     H_    0.937753 0.777276 0.885107 0.122563
H50   H     H_    0.884556 0.667066 0.816309 0.124382
H51   H     H_    0.799808 0.668144 0.661708 0.130923
H52   H     H_    0.192412 0.148661 0.334663 0.125343
H53   H     H_    0.120967 0.168036 0.169186 0.124770
H54   H     H_    0.109175 0.287118 0.093811 0.122728
H55   H     H_    0.170094 0.387103 0.183818 0.146819
H56   H     H_    0.642915 0.065834 0.104220 0.117939
H57   H     H_    0.242639 0.368787 0.348318 0.127417
H58   H     H_    0.762212 0.050041 0.059325 0.128871
H59   H     H_    0.789008 0.955940 0.938755 0.122822
H60   H     H_    0.695841 0.876818 0.864002 0.141046
N1    N     N_1   0.515180 0.000000 0.235860 -0.089017
N2    N     N_1   0.484820 0.000000 0.764140 -0.089018
N3    N     N_1   0.015180 0.500000 0.235860 -0.089019
N4    N     N_1   0.984820 0.500000 0.764140 -0.089016
O1    O     O_R   0.435400 0.070190 0.403000 -0.599328
O2    O     O_R   0.574340 0.929830 0.427410 -0.603863
O3    O     O_R   0.574340 0.070170 0.427410 -0.610440
O4    O     O_R   0.425660 0.929830 0.572590 -0.603895
O5    O     O_R   0.925660 0.570170 0.572590 -0.610391
O6    O     O_R   0.074340 0.429830 0.427410 -0.603860
O7    O     O_R   0.074340 0.570170 0.427410 -0.610452
O8    O     O_R   0.925660 0.429830 0.572590 -0.603898
O9    O     O_R   0.564600 0.929810 0.597000 -0.606850
O10   O     O_R   0.564600 0.070190 0.597000 -0.599312
O11   O     O_R   0.435400 0.929810 0.403000 -0.606833
O12   O     O_R   0.935400 0.570190 0.403000 -0.599344
O13   O     O_R   0.064600 0.429810 0.597000 -0.606865
O14   O     O_R   0.064600 0.570190 0.597000 -0.599296
O15   O     O_R   0.935400 0.429810 0.403000 -0.606822
O16   O     O_R   0.425660 0.070170 0.572590 -0.610406
Zn1   Zn    Zn3+2 0.506520 0.000000 0.386760 0.970224
Zn2   Zn    Zn3+2 0.493480 0.000000 0.613240 0.970220
Zn3   Zn    Zn3+2 0.006520 0.500000 0.386760 0.970217
Zn4   Zn    Zn3+2 0.993480 0.500000 0.613240 0.970226

loop_
_geom_bond_atom_site_label_1
_geom_bond_atom_site_label_2
_ccdc_geom_bond_type
C101  C107  A    
C13   N4    T    
C2    C44   S    
C55   C56   A    
C93   C94   A    
C64   H4    S    
C76   H14   S    
C73   C74   A    
C98   H32   S    
C95   C96   A    
C34   C42   S    
O9    Zn2   S    
C78   H16   S    
C32   C75   S    
C97   C98   A    
C7    C8    A    
C77   C78   A    
C56   C57   A    
C83   H19   S    
C105  H38   S    
C7    H49   S    
C47   O4    A    
C31   C82   S    
O1    Zn1   S    
C62   C67   A    
C58   O5    A    
O13   Zn4   S    
C18   C37   T    
C2    N1    T    
C85   C86   A    
C5    C6    A    
C19   C47   S    
C57   C59   A    
C74   H13   S    
C106  C107  A    
C100  H35   S    
C68   C74   A    
C49   C54   A    
C79   H17   S    
C108  C109  A    
C30   C38   S    
C80   O7    A    
C66   H6    S    
C9    H51   S    
O5    Zn4   S    
C110  C111  A    
C11   H52   S    
C1    O1    A    
C16   H57   S    
C86   H22   S    
C97   H31   S    
C21   C38   T    
C111  C112  A    
O12   Zn3   S    
C70   H8    S    
C8    C9    A    
C73   H11   S    
C23   C40   T    
C3    H46   S    
O7    Zn3   S    
C70   C71   A    
C14   H54   S    
C109  H41   S    
C77   H15   S    
O14   Zn4   S    
C69   O6    A    
C63   H3    S    
C32   C40   S    
C66   C67   A    
C99   H33   S    
C59   C60   A    
C101  C103  A    
C91   O8    A    
O11   Zn1   S    
C51   H12   S    
C15   H55   S    
C36   O3    A    
C59   H59   S    
C33   C95   S    
N3    Zn3   S    
C104  C105  A    
C90   H26   S    
O10   Zn2   S    
C103  H36   S    
C17   N3    T    
C88   C94   A    
O2    Zn1   S    
C46   C48   D    
C15   C16   A    
C58   O12   A    
C51   C52   A    
C60   H60   S    
C84   C85   A    
C76   C77   A    
C28   C35   S    
C10   C11   A    
C69   O13   A    
C12   H53   S    
C79   C81   A    
C20   C39   T    
C86   C87   A    
C75   C81   A    
C5    H47   S    
O8    Zn4   S    
C91   O15   A    
C29   C34   D    
C84   H20   S    
C60   C61   A    
C33   C43   S    
C104  H37   S    
C75   C76   A    
C46   C68   S    
C62   C63   A    
C110  H42   S    
C90   C92   A    
C83   C84   A    
C45   C49   S    
C3    C112  A    
C96   C97   A    
C56   H56   S    
C50   C51   A    
C34   C88   S    
N4    Zn4   S    
C25   O9    A    
C107  H40   S    
C24   C58   S    
C12   C14   A    
N2    Zn2   S    
C89   H25   S    
N1    Zn1   S    
C49   C50   A    
C23   C91   S    
C25   O2    A    
C47   O11   A    
C48   C62   S    
C61   H2    S    
O4    Zn2   S    
C52   C53   A    
C26   C42   T    
C57   H58   S    
O3    Zn1   S    
C29   C39   S    
C24   C43   T    
C21   C25   S    
C1    C20   S    
C106  H39   S    
C31   C41   S    
C30   C33   D    
C72   H10   S    
C27   C32   D    
C95   C100  A    
C94   H29   S    
C80   O14   A    
C87   H24   S    
C71   H9    S    
C28   C31   D    
C44   C45   D    
C52   H23   S    
C72   C73   A    
C13   C48   S    
C6    H48   S    
C11   C12   A    
C53   C54   A    
C6    C7    A    
C3    C108  A    
C102  N2    T    
C105  C106  A    
C99   C100  A    
C50   H1    S    
C53   H34   S    
C64   C65   A    
C67   H7    S    
C89   C90   A    
C17   C46   S    
C22   C80   S    
C71   C72   A    
C93   H28   S    
C10   C16   A    
C109  C110  A    
C54   H45   S    
C78   C79   A    
C44   C55   S    
C81   H18   S    
C18   C36   S    
C27   C108  S    
C27   C37   S    
C55   C61   A    
C92   C93   A    
C28   C101  S    
C36   O10   A    
C65   C66   A    
O15   Zn3   S    
C45   C102  S    
C96   H30   S    
C63   C64   A    
C22   C41   T    
C1    O16   A    
C10   C29   S    
C4    C5    A    
C88   C89   A    
C68   C70   A    
C98   C99   A    
C112  H44   S    
C85   H21   S    
C103  C104  A    
C8    H50   S    
C26   C69   S    
C65   H5    S    
C14   C15   A    
C19   C35   T    
O6    Zn3   S    
C82   C83   A    
C4    C9    A    
C92   H27   S    
C111  H43   S    
C4    C30   S    
C82   C87   A    
O16   Zn2   S    
