data_mof_unit_321.cif
_audit_creation_date              2012-12-11T17:43:21-0500
_audit_creation_method            fapswitch 2.2
_symmetry_space_group_name_H-M    P1
_symmetry_Int_Tables_number       1
_space_group_crystal_system       triclinic
_cell_length_a                    14.994082
_cell_length_b                    15.000876
_cell_length_c                    16.872469
_cell_angle_alpha                 108.964689
_cell_angle_beta                  106.129795
_cell_angle_gamma                 108.973188
_cell_volume                      3066.20701761

loop_
_atom_site_label
_atom_site_type_symbol
_atom_type_description
_atom_site_fract_x
_atom_site_fract_y
_atom_site_fract_z
_atom_type_partial_charge
C1    C     C_R   0.092431 0.278651 0.022766 -0.080013
C2    C     C_R   0.917356 0.713106 0.919928 -0.117631
C3    C     C_R   0.023909 0.456547 0.723729 0.033741
C4    C     C_R   0.973296 0.419537 0.255277 0.043157
C5    C     C_R   0.662176 0.219361 0.746351 0.061714
C6    C     C_R   0.242505 0.804406 0.275178 0.055782
C7    C     C_R   0.362525 0.571726 0.063847 0.050000
C8    C     C_R   0.712832 0.541809 0.033563 0.040514
C9    C     C_R   0.923265 0.888186 0.866549 -0.208546
C10   C     C_R   0.107089 0.077474 0.960743 -0.217315
C11   C     C_R   0.015440 0.892208 0.921559 0.059922
C12   C     C_R   0.011764 0.077855 0.923149 0.058821
C13   C     C_R   0.110750 0.985488 0.958459 0.034830
C14   C     C_R   0.921381 0.979633 0.863256 0.032379
C15   C     C_R   0.839486 0.017959 0.735536 -0.148679
C16   C     C_R   0.282254 0.054234 0.090839 -0.197585
C17   C     C_R   0.651719 0.940233 0.652574 -0.090825
C18   C     C_R   0.415659 0.007378 0.065589 -0.089697
C19   C     C_R   0.483051 0.655716 0.357806 -0.103271
C20   C     C_R   0.506302 0.429690 0.736558 -0.105116
C21   C     C_R   0.502938 0.660623 0.282796 -0.185858
C22   C     C_R   0.517763 0.455691 0.827298 -0.192619
C23   C     C_R   0.934018 0.448188 0.735169 -0.141236
C24   C     C_R   0.064019 0.484263 0.255595 -0.149930
C25   C     C_R   0.522460 0.582602 0.228035 -0.055545
C26   C     C_R   0.559270 0.562053 0.892330 -0.048156
C27   C     C_R   0.521398 0.498723 0.249608 0.540486
C28   C     C_R   0.586473 0.642717 0.864829 0.548891
C29   C     C_R   0.502963 0.495697 0.326011 -0.242519
C30   C     C_R   0.577523 0.615444 0.773842 -0.287363
C31   C     C_R   0.483149 0.573455 0.379420 -0.134855
C32   C     C_R   0.536707 0.509433 0.710007 -0.142327
C33   C     C_R   0.624905 0.577719 0.134241 -0.164869
C34   C     C_R   0.490672 0.606302 0.004755 -0.207862
C35   C     C_R   0.636042 0.571656 0.053174 0.028730
C36   C     C_R   0.469133 0.596012 0.077579 0.024730
C37   C     C_R   0.568228 0.587117 0.987840 0.110125
C38   C     C_R   0.539262 0.586853 0.146334 0.063671
C39   C     C_R   0.751689 0.003854 0.665983 -0.076144
C40   C     C_R   0.381393 0.060309 0.125718 -0.121851
C41   C     C_R   0.962855 0.384149 0.325485 0.083534
C42   C     C_R   0.025507 0.399035 0.634424 0.079895
C43   C     C_R   0.124767 0.394299 0.542759 -0.150829
C44   C     C_R   0.856270 0.339323 0.404754 -0.154327
C45   C     C_R   0.719302 0.215883 0.824213 -0.121251
C46   C     C_R   0.224929 0.798085 0.187905 -0.127739
C47   C     C_R   0.119692 0.412074 0.627580 -0.162232
C48   C     C_R   0.869923 0.365261 0.336253 -0.176218
C49   C     C_R   0.933441 0.343184 0.551683 0.100224
C50   C     C_R   0.044229 0.377249 0.386411 0.123802
C51   C     C_R   0.940907 0.347626 0.472674 0.096867
C52   C     C_R   0.037372 0.371659 0.466430 0.079949
C53   C     C_R   0.552414 0.147456 0.681012 0.128177
C54   C     C_R   0.283092 0.900692 0.361596 0.128237
C55   C     C_R   0.385597 0.091260 0.447114 -0.198240
C56   C     C_R   0.405170 0.973701 0.609914 -0.235880
C57   C     C_R   0.319256 0.000645 0.363376 -0.152833
C58   C     C_R   0.496845 0.055203 0.685779 -0.181146
C59   C     C_R   0.299396 0.894167 0.445103 -0.279307
C60   C     C_R   0.506786 0.164094 0.606070 -0.274072
C61   C     C_R   0.370554 0.983586 0.528672 0.188442
C62   C     C_R   0.418206 0.081580 0.528593 0.185069
C63   C     C_R   0.639270 0.892237 0.709860 -0.132780
C64   C     C_R   0.350911 0.948433 0.970456 -0.086525
C65   C     C_R   0.726877 0.906299 0.779649 -0.176266
C66   C     C_R   0.251215 0.941112 0.935310 -0.141105
C67   C     C_R   0.303384 0.603447 0.012909 -0.099523
C68   C     C_R   0.739864 0.467120 0.050337 -0.128441
C69   C     C_R   0.827878 0.968785 0.792778 0.104329
C70   C     C_R   0.215931 0.993162 0.995509 0.088596
C71   C     C_R   0.724971 0.311345 0.747806 -0.093513
C72   C     C_R   0.219766 0.703004 0.265974 -0.125393
C73   C     C_R   0.296682 0.502038 0.082897 -0.137415
C74   C     C_R   0.755610 0.567885 0.977472 -0.095724
C75   C     C_R   0.107864 0.535837 0.809312 0.183689
C76   C     C_R   0.892062 0.390902 0.173238 0.167443
C77   C     C_R   0.918017 0.193169 0.947993 -0.077243
C78   C     C_R   0.088955 0.795470 0.999594 -0.131671
C79   C     C_R   0.007404 0.179446 0.959321 0.030250
C80   C     C_R   0.007402 0.804846 0.947035 0.072048
H1    H     H_    0.174202 0.298828 0.049664 0.082801
H2    H     H_    0.840090 0.686396 0.868641 0.098121
H3    H     H_    0.916459 0.066114 0.744030 0.124933
H4    H     H_    0.256499 0.095600 0.138007 0.134579
H5    H     H_    0.468094 0.570076 0.437784 0.144928
H6    H     H_    0.529235 0.489127 0.639982 0.134541
H7    H     H_    0.467631 0.715857 0.399283 0.122264
H8    H     H_    0.474080 0.347633 0.686863 0.127480
H9    H     H_    0.502579 0.725009 0.267016 0.146943
H10   H     H_    0.494493 0.393041 0.847160 0.141324
H11   H     H_    0.503422 0.432473 0.343531 0.144373
H12   H     H_    0.603229 0.676312 0.752671 0.128229
H13   H     H_    0.679891 0.569845 0.185483 0.159198
H14   H     H_    0.436370 0.611293 0.950671 0.140875
H15   H     H_    0.807929 0.373879 0.293374 0.168489
H16   H     H_    0.190057 0.439543 0.687843 0.166430
H17   H     H_    0.199800 0.410550 0.541205 0.169271
H18   H     H_    0.783491 0.325857 0.410777 0.163654
H19   H     H_    0.854764 0.403798 0.683874 0.150590
H20   H     H_    0.142961 0.514164 0.304869 0.143840
H21   H     H_    0.761154 0.041511 0.621930 0.154703
H22   H     H_    0.431860 0.106504 0.199278 0.129120
H23   H     H_    0.545683 0.236027 0.602192 0.122490
H24   H     H_    0.267213 0.818475 0.445325 0.122685
H25   H     H_    0.527775 0.041693 0.744311 0.129608
H26   H     H_    0.303817 0.009093 0.300427 0.118924
H27   H     H_    0.419672 0.166786 0.446705 0.133119
H28   H     H_    0.367926 0.899558 0.611576 0.135879
H29   H     H_    0.583938 0.928225 0.597785 0.123956
H30   H     H_    0.492644 0.012638 0.092621 0.133678
H31   H     H_    0.561720 0.843746 0.699912 0.111877
H32   H     H_    0.377926 0.908259 0.923964 0.139265
H33   H     H_    0.716209 0.868920 0.823644 0.131983
H34   H     H_    0.201401 0.894667 0.861573 0.137786
H35   H     H_    0.689842 0.163927 0.852560 0.117353
H36   H     H_    0.234980 0.861623 0.169216 0.102438
H37   H     H_    0.334157 0.673160 0.003728 0.135154
H38   H     H_    0.719310 0.430250 0.092198 0.150844
H39   H     H_    0.701500 0.348608 0.706584 0.095948
H40   H     H_    0.226097 0.678309 0.319608 0.095983
H41   H     H_    0.317878 0.469660 0.129452 0.094237
H42   H     H_    0.755364 0.627120 0.954834 0.127272
H43   H     H_    0.837607 0.134105 0.908253 0.122684
H44   H     H_    0.170796 0.840280 0.022173 0.131815
H45   H     H_    0.852144 0.814199 0.826601 0.123113
H46   H     H_    0.179766 0.149726 0.996045 0.115961
N1    N     N_R   0.055660 0.348550 0.045620 -0.039459
N2    N     N_R   0.944340 0.651450 0.954380 -0.045984
N3    N     N_R   0.960830 0.507850 0.823700 -0.057739
N4    N     N_R   0.039170 0.492150 0.176300 -0.053137
N5    N     N_R   0.811290 0.303410 0.871650 -0.041442
N6    N     N_R   0.188710 0.696590 0.128350 -0.042448
N7    N     N_R   0.205200 0.552990 0.997670 -0.042533
N8    N     N_R   0.794800 0.447010 0.002330 -0.035518
N9    N     N_R   0.814800 0.361830 0.823700 -0.045093
N10   N     N_R   0.185200 0.638170 0.176300 -0.039419
N11   N     N_R   0.201680 0.494570 0.045620 -0.044883
N12   N     N_R   0.798320 0.505430 0.954380 -0.049660
N13   N     N_R   0.068420 0.560530 0.871650 -0.055954
N14   N     N_R   0.931580 0.439470 0.128350 -0.059918
N15   N     N_R   0.948070 0.295860 0.997670 -0.037586
N16   N     N_R   0.051930 0.704140 0.002330 -0.042863
Ni1   Ni    Ni4+2 0.119340 0.493420 0.109960 0.230907
Ni2   Ni    Ni4+2 0.880660 0.506580 0.890040 0.212915
Ni3   Ni    Ni4+2 0.872590 0.372590 0.000000 0.247671
Ni4   Ni    Ni4+2 0.127410 0.627410 0.000000 0.228617
O1    O     O_3   0.542832 0.422126 0.198847 -0.641351
C81   C     C_3   0.448346 0.337138 0.125360 0.212989
H47   H     H_    0.402948 0.364694 0.083432 0.084742
H48   H     H_    0.399777 0.293861 0.152742 0.104612
C82   C     C_3   0.472862 0.260944 0.060922 -0.802220
H49   H     H_    0.519716 0.232565 0.100143 0.276146
H50   H     H_    0.399143 0.191874 0.004301 0.211829
H51   H     H_    0.517835 0.301556 0.029971 0.247660
O2    O     O_3   0.634151 0.747973 0.930318 -0.638964
C83   C     C_3   0.568896 0.794803 0.909071 0.213723
H52   H     H_    0.493829 0.754839 0.911726 0.129841
H53   H     H_    0.552521 0.791460 0.839418 0.093104
C84   C     C_3   0.622737 0.910763 0.980534 -0.802822
H54   H     H_    0.698460 0.953127 0.979959 0.263359
H55   H     H_    0.572659 0.948798 0.963995 0.208149
H56   H     H_    0.636982 0.917181 0.050839 0.261620
I1    I     I_    0.167740 0.359240 0.353661 -0.495193
I2    I     I_    0.793481 0.221401 0.532992 -0.505822
I3    I     I_    0.249263 0.646077 0.822273 -0.597314
I4    I     I_    0.750166 0.247035 0.099500 -0.519859

loop_
_geom_bond_atom_site_label_1
_geom_bond_atom_site_label_2
_ccdc_geom_bond_type
C23   H19   S    
C63   C65   A    
N13   Ni4   S    
N7    N11   A    
C31   H5    S    
C48   H15   S    
C27   C29   A    
C34   C37   A    
C7    C36   S    
N16   Ni4   S    
C3    C23   A    
O1    C81   S    
C81   C82   S    
N4    N14   A    
C3    C42   S    
N3    Ni2   S    
C21   H9    S    
C6    C72   A    
C74   N12   A    
C59   H24   S    
C5    C53   S    
C83   H52   S    
C67   N7    A    
C81   H48   S    
N10   Ni1   S    
C19   H7    S    
C78   N16   A    
C2    C80   A    
C71   N9    A    
C4    C24   A    
C78   C80   A    
C43   C52   A    
C64   H32   S    
C13   C70   S    
C1    H1    S    
C12   C79   S    
C16   H4    S    
C23   N3    A    
C60   C62   A    
N1    N15   A    
C82   H51   S    
C18   C40   A    
C56   H28   S    
C49   I2    S    
C21   C25   A    
C68   H38   S    
C44   H18   S    
C83   H53   S    
C49   C51   A    
C28   O2    S    
C50   C52   A    
C82   H49   S    
C84   H55   S    
C76   I4    S    
C60   H23   S    
C3    C75   A    
N15   Ni3   S    
C76   N14   A    
C57   H26   S    
N11   Ni1   S    
C19   C31   A    
C4    C41   S    
C29   C31   A    
C6    C46   A    
C6    C54   S    
C17   H29   S    
C26   C28   A    
C53   C60   A    
C43   H17   S    
C39   H21   S    
C54   C59   A    
C77   C79   A    
C15   C69   A    
C59   C61   A    
C51   C52   A    
C34   H14   S    
C16   C70   A    
C81   H47   S    
C7    C73   A    
C15   H3    S    
C40   H22   S    
C5    C45   A    
C9    H45   S    
C55   H27   S    
C8    C35   S    
C64   C66   A    
C9    C14   A    
C77   H43   S    
C25   C38   S    
N2    Ni2   S    
C45   H35   S    
C84   H54   S    
N3    N13   A    
C47   H16   S    
C32   H6    S    
C72   H40   S    
C8    C74   A    
C22   H10   S    
C84   H56   S    
C75   I3    S    
C55   C57   A    
N1    Ni1   S    
C46   N6    A    
N4    Ni1   S    
C67   H37   S    
C15   C39   A    
C10   C12   A    
C16   C40   A    
C44   C51   A    
C30   H12   S    
N9    Ni2   S    
C74   H42   S    
C12   C14   A    
C8    C68   A    
C73   H41   S    
C9    C11   A    
C1    C79   A    
C14   C69   S    
C2    H2    S    
C41   C50   A    
C29   H11   S    
C78   H44   S    
C20   C32   A    
N8    Ni3   S    
N6    N10   A    
C66   H34   S    
C35   C37   A    
C50   I1    S    
C24   H20   S    
C65   H33   S    
C83   C84   S    
C1    N1    A    
C20   C22   A    
C43   C47   A    
C10   C13   A    
C33   H13   S    
N14   Ni3   S    
N8    N12   A    
C53   C58   A    
C26   C37   S    
C45   N5    A    
C71   H39   S    
C25   C27   A    
N5    N9    A    
C33   C38   A    
C46   H36   S    
C58   H25   S    
N6    Ni4   S    
C68   N8    A    
C28   C30   A    
C5    C71   A    
C27   O1    S    
N12   Ni2   S    
C17   C63   A    
C30   C32   A    
C11   C13   A    
C18   C64   A    
C66   C70   A    
C73   N11   A    
C65   C69   A    
C20   H8    S    
C36   C38   A    
C33   C35   A    
C41   C48   A    
C56   C58   A    
N5    Ni3   S    
C34   C36   A    
C42   C47   A    
C82   H50   S    
C63   H31   S    
C61   C62   A    
C77   N15   A    
C4    C76   A    
C72   N10   A    
C11   C80   S    
C42   C49   A    
C7    C67   A    
C17   C39   A    
C24   N4    A    
C55   C62   A    
C18   H30   S    
C22   C26   A    
O2    C83   S    
C56   C61   A    
C75   N13   A    
N7    Ni4   S    
C10   H46   S    
N2    N16   A    
C44   C48   A    
C19   C21   A    
C54   C57   A    
C2    N2    A    
