data_mof_unit_105.cif
_audit_creation_date              2012-12-10T17:22:51-0500
_audit_creation_method            fapswitch 2.2
_symmetry_space_group_name_H-M    P1
_symmetry_Int_Tables_number       1
_space_group_crystal_system       triclinic
_cell_length_a                    10.176848
_cell_length_b                    10.517817
_cell_length_c                    10.793493
_cell_angle_alpha                 90.304674
_cell_angle_beta                  95.451644
_cell_angle_gamma                 81.317107
_cell_volume                      1136.86153371

loop_
_atom_site_label
_atom_site_type_symbol
_atom_type_description
_atom_site_fract_x
_atom_site_fract_y
_atom_site_fract_z
_atom_type_partial_charge
C1    C     C_R   0.443934 0.504454 0.267358 0.932013
C2    C     C_3   0.499278 0.123077 0.497499 -0.232391
C3    C     C_3   0.624325 0.942909 0.531377 0.440006
C4    C     C_3   0.375668 0.057176 0.468559 0.439738
C5    C     C_2   0.412180 0.493940 0.135058 -0.364989
C6    C     C_2   0.587546 0.467265 0.864716 -0.369643
C7    C     C_2   0.511555 0.452075 0.066054 -0.135612
C8    C     C_2   0.487786 0.455702 0.933408 -0.158769
C9    C     C_2   0.072270 0.491040 0.488331 -0.129469
C10   C     C_2   0.927747 0.508915 0.511702 -0.127341
C11   C     C_3   0.706294 0.961271 0.255119 -0.314594
C12   C     C_R   0.556008 0.487435 0.732597 0.937944
C13   C     C_3   0.293533 0.039272 0.744608 -0.314816
C14   C     C_3   0.840691 0.953597 0.608070 0.098651
C15   C     C_3   0.980607 0.878293 0.625173 -0.835574
C16   C     C_3   0.159312 0.046597 0.391744 0.099883
C17   C     C_3   0.019415 0.121943 0.374644 -0.838125
C18   C     C_R   0.498928 0.257851 0.496756 0.960562
C19   C     C_R   0.501066 0.742164 0.503226 0.968590
C20   C     C_3   0.579147 0.026620 0.415322 0.510630
C21   C     C_3   0.420836 0.973480 0.584622 0.510100
C22   C     C_3   0.454608 0.960790 0.384386 -0.524339
C23   C     C_3   0.545385 0.039293 0.615552 -0.524628
C24   C     C_3   0.500706 0.876981 0.502454 -0.236331
H1    H     H_    0.418678 0.923189 0.293101 0.164348
H2    H     H_    0.121761 0.611946 0.620225 0.172475
H3    H     H_    0.621569 0.930696 0.195649 0.170092
H4    H     H_    0.761930 0.878912 0.311872 0.196496
H5    H     H_    0.775408 0.992030 0.191740 0.177055
H6    H     H_    0.237827 0.121430 0.687642 0.195255
H7    H     H_    0.378191 0.070118 0.803958 0.169493
H8    H     H_    0.224446 0.008672 0.808098 0.177811
H9    H     H_    0.814376 0.991527 0.700367 0.143182
H10   H     H_    0.840462 0.035324 0.543056 0.174779
H11   H     H_    0.007544 0.833283 0.535934 0.254876
H12   H     H_    0.581309 0.076949 0.706819 0.164966
H13   H     H_    0.052567 0.943966 0.655697 0.236085
H14   H     H_    0.985677 0.802154 0.697069 0.242783
H15   H     H_    0.159499 0.964823 0.456690 0.174519
H16   H     H_    0.185648 0.008741 0.299428 0.142997
H17   H     H_    0.014386 0.198119 0.302791 0.242264
H18   H     H_    0.947435 0.056308 0.344063 0.236090
H19   H     H_    0.992469 0.166905 0.463901 0.255052
H20   H     H_    0.385263 0.459190 0.892700 0.189011
H21   H     H_    0.613899 0.424362 0.106623 0.192080
H22   H     H_    0.689752 0.464022 0.905941 0.148244
H23   H     H_    0.310157 0.521792 0.093973 0.146763
H24   H     H_    0.892923 0.575239 0.583124 0.192222
H25   H     H_    0.107106 0.424688 0.416934 0.192737
H26   H     H_    0.878217 0.388099 0.379734 0.170972
N1    N     N_2   0.157310 0.552180 0.551120 -0.200273
N2    N     N_2   0.842690 0.447820 0.448880 -0.199763
O1    O     O_R   0.568940 0.489500 0.307530 -0.612993
O2    O     O_3   0.337546 0.934224 0.669717 -0.597751
O3    O     O_3   0.751741 0.870862 0.561008 -0.599121
O4    O     O_3   0.248279 0.129271 0.438906 -0.599080
O5    O     O_R   0.431060 0.510500 0.692470 -0.610555
O6    O     O_R   0.348880 0.522990 0.340350 -0.621021
O7    O     O_R   0.651120 0.477010 0.659650 -0.621769
O8    O     O_R   0.610000 0.297210 0.483560 -0.601418
O9    O     O_R   0.390000 0.702790 0.516440 -0.598157
O10   O     O_R   0.389940 0.330700 0.516390 -0.589473
O11   O     O_R   0.610060 0.669300 0.483610 -0.585858
O12   O     O_3   0.662390 0.066095 0.330298 -0.600268
Zn1   Zn    Zn3+2 0.646930 0.477640 0.478080 0.961291
Zn2   Zn    Zn3+2 0.353070 0.522360 0.521920 0.962064

loop_
_geom_bond_atom_site_label_1
_geom_bond_atom_site_label_2
_ccdc_geom_bond_type
C20   O12   S    
C17   H18   S    
C2    C4    S    
C17   H19   S    
C15   H14   S    
C14   H10   S    
C2    C18   S    
O1    Zn1   S    
C9    C10   S    
C13   H8    S    
H26   N2    S    
C9    N1    D    
C11   H3    S    
O5    Zn2   S    
C10   N2    D    
O11   Zn1   S    
C14   H9    S    
C16   O4    S    
C14   O3    S    
C13   H7    S    
N1    Zn2   S    
C3    C20   S    
C15   H13   S    
H2    N1    S    
C4    O4    S    
C6    C12   S    
C4    C21   S    
C5    H23   S    
C3    C24   S    
C3    O3    S    
C11   H4    S    
C16   H16   S    
C1    C5    S    
C12   O5    A    
C7    H21   S    
C18   O8    A    
C20   C22   S    
O8    Zn1   S    
C19   C24   S    
C22   C24   S    
C21   C23   S    
C10   H24   S    
C21   O2    S    
C19   O9    A    
C17   H17   S    
O10   Zn2   S    
C16   H15   S    
C2    C20   S    
C23   H12   S    
C13   H6    S    
C7    C8    S    
C9    H25   S    
C6    C8    D    
C11   H5    S    
C13   O2    S    
C21   C24   S    
C15   H11   S    
C2    C23   S    
C5    C7    D    
C4    C22   S    
C14   C15   S    
C18   O10   A    
C1    O1    A    
C6    H22   S    
C1    O6    A    
C12   O7    A    
C3    C23   S    
O9    Zn2   S    
O6    Zn2   S    
O7    Zn1   S    
N2    Zn1   S    
C8    H20   S    
C19   O11   A    
C16   C17   S    
C11   O12   S    
C22   H1    S    
