data_mof_unit_2747.cif
_audit_creation_date              2012-12-10T17:33:42-0500
_audit_creation_method            fapswitch 2.2
_symmetry_space_group_name_H-M    P1
_symmetry_Int_Tables_number       1
_space_group_crystal_system       triclinic
_cell_length_a                    11.706217
_cell_length_b                    12.373237
_cell_length_c                    13.144712
_cell_angle_alpha                 116.682988
_cell_angle_beta                  77.634458
_cell_angle_gamma                 101.28748
_cell_volume                      1650.85679546

loop_
_atom_site_label
_atom_site_type_symbol
_atom_type_description
_atom_site_fract_x
_atom_site_fract_y
_atom_site_fract_z
_atom_type_partial_charge
C1    C     C_R   0.509821 0.855036 0.286400 0.872864
C2    C     C_R   0.460729 0.228214 0.835920 -0.142539
C3    C     C_R   0.589721 0.814137 0.084884 -0.317281
C4    C     C_R   0.616271 0.734033 0.969432 0.471225
C5    C     C_R   0.574414 0.611177 0.933521 -0.161044
C6    C     C_R   0.500266 0.566298 0.010126 -0.052916
C7    C     C_R   0.460031 0.651591 0.122451 0.040042
C8    C     C_R   0.463422 0.439889 0.978139 0.054862
C9    C     C_R   0.382197 0.401134 0.055912 0.001647
C10   C     C_R   0.328980 0.488955 0.157557 -0.329314
C11   C     C_R   0.363700 0.613411 0.189413 0.427703
C12   C     C_R   0.715739 0.999704 0.499713 0.804941
C13   C     C_R   0.504538 0.350616 0.870321 -0.232384
C14   C     C_R   0.385892 0.190081 0.914574 -0.181816
C15   C     C_R   0.515419 0.773480 0.162698 -0.121377
C16   C     C_R   0.690207 0.354311 0.335286 -0.246527
C17   C     C_R   0.341822 0.760160 0.645623 0.091940
C18   C     C_R   0.305785 0.664038 0.677381 -0.239418
C19   C     C_R   0.364347 0.560162 0.622429 -0.183117
C20   C     C_R   0.460369 0.551606 0.534856 0.019604
C21   C     C_R   0.494187 0.653087 0.505556 0.292140
C22   C     C_R   0.525034 0.447530 0.476019 -0.028320
C23   C     C_R   0.483448 0.145115 0.713731 0.813114
C24   C     C_R   0.622300 0.450172 0.391862 0.075764
C25   C     C_R   0.653109 0.548959 0.364299 -0.256685
C26   C     C_R   0.590229 0.647948 0.419639 -0.164743
C27   C     C_R   0.498963 0.340871 0.496602 -0.042312
C28   C     C_R   0.662706 0.253351 0.358686 0.591401
C29   C     C_R   0.284270 0.000173 0.500122 0.851166
C30   C     C_1   0.837505 0.999414 0.499561 -0.149225
C31   C     C_1   0.940061 0.999463 0.499503 0.017550
C32   C     C_1   0.059993 0.999771 0.499585 0.014371
C33   C     C_1   0.162537 0.000064 0.499786 -0.155488
C34   C     C_R   0.349273 0.274638 0.025648 0.428946
Cu1   Cu    Cu3+1 0.526510 0.098270 0.475420 0.952890
Cu2   Cu    Cu3+1 0.473490 0.901730 0.524580 0.955185
H1    H     H_    0.353595 0.094641 0.889245 0.172580
H2    H     H_    0.727422 0.550140 0.299161 0.155265
H3    H     H_    0.765888 0.357345 0.271975 0.167042
H4    H     H_    0.295678 0.840283 0.688778 0.129398
H5    H     H_    0.232241 0.670136 0.744860 0.157378
H6    H     H_    0.621163 0.719088 0.392685 0.195834
H7    H     H_    0.256016 0.462033 0.210670 0.155774
H8    H     H_    0.568821 0.373495 0.809094 0.160784
H9    H     H_    0.630069 0.907653 0.114474 0.166392
N1    N     N_R   0.566700 0.246290 0.438210 -0.231435
N2    N     N_R   0.434010 0.754320 0.561170 -0.206852
O1    O     O_R   0.533340 0.972510 0.318140 -0.615206
O2    O     O_R   0.488570 0.806530 0.359650 -0.566496
O3    O     O_R   0.685190 0.083000 0.479260 -0.574596
O4    O     O_R   0.640410 0.917020 0.520770 -0.593262
O5    O     O_R   0.511430 0.193470 0.640350 -0.583980
O6    O     O_R   0.466660 0.027490 0.681860 -0.588149
O7    O     O_R   0.359590 0.082980 0.479230 -0.578974
O8    O     O_R   0.314810 0.917000 0.520740 -0.563955
H10   H     H_    0.425879 0.331652 0.558870 0.143465
H11   H     H_    0.333388 0.488509 0.650430 0.140533
O9    O     O_3   0.278846 0.229986 0.100058 -0.722970
H12   H     H_    0.294600 0.285124 0.179327 0.322861
H13   H     H_    0.600069 0.554237 0.844001 0.155399
O10   O     O_3   0.687174 0.771903 0.890351 -0.721562
H14   H     H_    0.709482 0.861064 0.928837 0.328848
O11   O     O_3   0.297946 0.698644 0.279575 -0.720600
H15   H     H_    0.234153 0.657206 0.317105 0.324219
O12   O     O_3   0.737974 0.165136 0.299929 -0.746389
H16   H     H_    0.701717 0.089956 0.305870 0.365808

loop_
_geom_bond_atom_site_label_1
_geom_bond_atom_site_label_2
_ccdc_geom_bond_type
C16   C28   A    
C12   O3    A    
C21   C26   A    
C1    O1    A    
C14   C34   A    
C8    C13   A    
C1    C15   S    
C29   C33   S    
C25   H2    S    
C9    C10   A    
C19   C20   A    
Cu1   Cu2   S    
C30   C31   T    
C32   C33   T    
Cu1   O3    S    
C7    C15   A    
C28   O12   S    
O9    H12   S    
C16   C24   A    
Cu2   O8    S    
C21   N2    A    
C24   C25   A    
Cu1   O7    S    
C7    C11   A    
C28   N1    A    
C23   O5    A    
C6    C7    A    
Cu2   O4    S    
C5    C6    A    
C27   N1    A    
C25   C26   A    
C20   C22   A    
C9    C34   A    
C23   O6    A    
C11   O11   S    
C22   C27   A    
C8    C9    A    
O10   H14   S    
C2    C14   A    
C22   C24   A    
C29   O7    A    
Cu1   O1    S    
C16   H3    S    
C3    C4    A    
C17   N2    A    
Cu1   O5    S    
C12   O4    A    
C3    C15   A    
C20   C21   A    
C26   H6    S    
Cu2   N2    S    
C17   C18   A    
O12   H16   S    
C10   C11   A    
C18   H5    S    
C2    C23   S    
C34   O9    S    
C2    C13   A    
C27   H10   S    
C18   C19   A    
C6    C8    A    
Cu2   O6    S    
C29   O8    A    
C5    H13   S    
C12   C30   S    
C10   H7    S    
O11   H15   S    
Cu1   N1    S    
C1    O2    A    
C4    O10   S    
C3    H9    S    
C13   H8    S    
C19   H11   S    
Cu2   O2    S    
C31   C32   S    
C4    C5    A    
C14   H1    S    
C17   H4    S    
