data_mof_unit_2800.cif
_audit_creation_date              2013-03-05T16:12:51-0500
_audit_creation_method            fapswitch 2.2
_symmetry_space_group_name_H-M    P1
_symmetry_Int_Tables_number       1
_space_group_crystal_system       triclinic
_cell_length_a                    8.28054
_cell_length_b                    16.382617
_cell_length_c                    18.717489
_cell_angle_alpha                 111.820246
_cell_angle_beta                  91.167102
_cell_angle_gamma                 83.459774
_cell_volume                      2341.23278491

loop_
_atom_site_label
_atom_site_type_symbol
_atom_site_description
_atom_site_fract_x
_atom_site_fract_y
_atom_site_fract_z
_atom_type_partial_charge
P1    P     P_3+3 0.582960 0.413890 0.320860 0.517193
O1    O     O_2   0.402610 0.439360 0.314250 -0.323966
O2    O     O_3   0.648560 0.446300 0.404730 -0.412378
O3    O     O_3   0.108870 0.604000 0.387500 -0.328084
O4    O     O_2   0.253398 0.553035 0.247845 -0.387802
O5    O     O_3   0.598449 0.298070 0.284303 -0.572078
O6    O     O_3   0.028608 0.693354 0.286482 -0.631086
H1    H     H_    0.265398 0.714430 0.321587 0.132623
C1    C     C_3   0.213486 0.742577 0.219121 -0.886243
H2    H     H_    0.306622 0.788354 0.226757 0.255791
H3    H     H_    0.267027 0.675354 0.181471 0.243224
P2    P     P_3+3 0.071690 0.707860 0.593450 0.461989
P3    P     P_3+3 0.500947 0.768262 0.459295 0.474178
O7    O     O_2   0.241370 0.719440 0.573960 -0.352872
O8    O     O_3   0.507090 0.652150 0.432150 -0.347972
O9    O     O_2   0.342289 0.811012 0.507085 -0.347627
O10   O     O_3   0.107466 0.733674 0.692014 -0.569558
O11   O     O_3   0.474260 0.798489 0.378529 -0.575114
C2    C     C_3   0.617094 0.774612 0.331716 0.784246
H4    H     H_    0.728918 0.766547 0.363533 0.005661
C3    C     C_3   0.635785 0.848592 0.301906 -0.886395
H5    H     H_    0.551514 0.845897 0.254494 0.268087
H6    H     H_    0.605033 0.913868 0.347755 0.231795
C4    C     C_3   0.567132 0.740810 0.663283 0.428798
H7    H     H_    0.686324 0.749117 0.644348 -0.002373
H8    H     H_    0.505285 0.701418 0.611658 0.159438
C5    C     C_3   0.472387 0.832348 0.698746 -0.901504
H9    H     H_    0.539125 0.875317 0.747786 0.247473
H10   H     H_    0.455841 0.863450 0.655195 0.221018
H11   H     H_    0.351273 0.827444 0.719991 0.288922
Ba1   Ba    Ba6+2 0.333520 0.539550 0.472180 1.628506
C6    C     C_3   0.595999 0.267179 0.344555 0.410293
H12   H     H_    0.475517 0.286999 0.373339 0.029391
H13   H     H_    0.686172 0.294593 0.388026 0.169662
C7    C     C_3   0.634248 0.166946 0.311851 -0.878201
H14   H     H_    0.540243 0.136556 0.270700 0.266967
H15   H     H_    0.637239 0.140939 0.358578 0.209182
H16   H     H_    0.754921 0.147936 0.281784 0.293404
C8    C     C_3   0.967474 0.735746 0.733271 0.308712
H17   H     H_    0.003022 0.706003 0.776598 0.093556
H18   H     H_    0.879697 0.695370 0.696561 0.139337
C9    C     C_3   0.894108 0.830909 0.776097 -0.938485
H19   H     H_    0.986754 0.869703 0.813034 0.274545
H20   H     H_    0.790272 0.831991 0.813147 0.252133
H21   H     H_    0.850176 0.862121 0.734915 0.232417
P4    P     P_3+3 0.606720 0.586180 0.679160 0.454230
O12   O     O_2   0.787080 0.560670 0.685800 -0.397307
O13   O     O_3   0.541120 0.553770 0.595290 -0.417223
O14   O     O_3   0.080800 0.396070 0.612520 -0.392310
O15   O     O_3   0.587442 0.702696 0.719398 -0.583035
P5    P     P_3+3 0.694654 0.234432 0.547695 0.444998
O16   O     O_3   0.164600 0.390590 0.443970 -0.351692
O17   O     O_3   0.682580 0.347920 0.567870 -0.357232
O18   O     O_2   0.844065 0.193162 0.493063 -0.394913
O19   O     O_3   0.755450 0.218318 0.631849 -0.486081
Ba2   Ba    Ba6+2 0.856270 0.460520 0.527840 1.588259
P6    P     P_3+3 0.085879 0.588372 0.289982 0.510404
C10   C     C_3   0.161106 0.742439 0.297135 0.848891
H22   H     H_    0.107288 0.763622 0.190240 0.260716
O20   O     O_3   0.025080 0.609480 0.556050 -0.397694
C11   C     C_3   0.196656 0.248804 0.250671 0.619832
H23   H     H_    0.317312 0.249758 0.275725 -0.038169
C12   C     C_3   0.206831 0.169803 0.173152 -0.146299
H24   H     H_    0.087653 0.167337 0.144370 0.165479
H25   H     H_    0.299094 0.178753 0.135062 0.137715
P7    P     P_3+3 0.125671 0.277563 0.396247 0.501731
O21   O     O_2   0.948320 0.280590 0.426090 -0.332296
O22   O     O_3   0.077650 0.238918 0.297890 -0.559860
H26   H     H_    0.762478 0.843158 0.280778 0.260467
C13   C     C_3   0.619891 0.240044 0.681857 0.366139
H27   H     H_    0.553977 0.305805 0.688712 0.063291
H28   H     H_    0.536865 0.187815 0.660090 0.055671
C14   C     C_3   0.677195 0.243878 0.760578 -0.809388
H29   H     H_    0.753486 0.298852 0.785827 0.273831
H30   H     H_    0.570652 0.255100 0.799324 0.224599
H31   H     H_    0.749400 0.180426 0.755452 0.256770
P8    P     P_3+3 0.091771 0.402916 0.707326 0.452926
C15   C     C_3   0.156121 0.233999 0.640273 0.549636
H32   H     H_    0.281939 0.248776 0.635155 -0.045300
O23   O     O_2   0.932947 0.457853 0.747689 -0.367888
O24   O     O_3   0.075800 0.296857 0.706546 -0.511498
H33   H     H_    0.088132 0.232550 0.588162 0.151396
H34   H     H_    0.214195 0.091708 0.590041 0.217794
C16   C     C_3   0.163683 0.142885 0.644851 -0.967540
H35   H     H_    0.039924 0.128566 0.654634 0.291164
H36   H     H_    0.242298 0.139883 0.692806 0.257265
C17   C     C_R   0.535942 0.432023 0.029259 0.037550
C18   C     C_R   0.445723 0.403071 0.076847 -0.094687
C19   C     C_R   0.355312 0.378540 0.915780 0.289587
C20   C     C_R   0.482210 0.428321 0.954848 -0.096680
C21   C     C_R   0.282207 0.393853 0.853458 -0.278794
C22   C     C_R   0.346779 0.445794 0.818690 -0.105049
C23   C     C_R   0.488642 0.485619 0.849366 0.021987
C24   C     C_R   0.555649 0.477744 0.918275 0.028595
C25   C     C_R   0.274187 0.457788 0.753484 0.163489
C26   C     C_R   0.345687 0.509084 0.718918 -0.204487
C27   C     C_R   0.499190 0.538593 0.741579 0.241797
C28   C     C_R   0.562565 0.533977 0.811874 -0.047271
C29   C     C_R   0.679687 0.470392 0.059341 0.079045
C30   C     C_R   0.735004 0.473076 0.133303 0.069887
C31   C     C_R   0.643138 0.440879 0.178577 -0.036771
C32   C     C_R   0.502356 0.402937 0.147320 -0.048169
H37   H     H_    0.177804 0.360238 0.830673 0.227065
H38   H     H_    0.429666 0.375690 0.177982 0.185842
C33   C     C_R   0.692599 0.579982 0.848188 -0.033262
C34   C     C_R   0.759026 0.571937 0.914722 -0.171127
C35   C     C_R   0.696082 0.519042 0.949972 0.063885
C36   C     C_R   0.764825 0.509623 0.017649 0.085131
C37   C     C_R   0.915325 0.539497 0.046038 -0.155636
C38   C     C_R   0.878805 0.511336 0.163353 0.035928
C39   C     C_R   0.970837 0.540050 0.116979 -0.082785
C40   C     C_R   0.922187 0.523074 0.240037 0.286222
C41   C     C_R   0.823421 0.497515 0.285303 -0.314793
C42   C     C_R   0.689065 0.453714 0.255643 0.273265
H39   H     H_    0.744065 0.623975 0.826238 0.142829
H40   H     H_    0.085697 0.565024 0.135434 0.146087
H41   H     H_    0.852876 0.511540 0.345019 0.168878
H42   H     H_    0.325549 0.383691 0.062718 0.182131
H43   H     H_    0.857420 0.610757 0.938987 0.124012
H44   H     H_    0.994011 0.562497 0.014075 0.120463
C43   C     C_2   0.394048 0.237979 0.481826 -0.486386
C44   C     C_R   0.802567 0.755753 0.522426 -0.457636
C45   C     C_2   0.241594 0.115411 0.405242 -0.214582
C46   C     C_2   0.256766 0.202197 0.431737 0.186362
C47   C     C_2   0.507904 0.185607 0.501846 0.167020
C48   C     C_3   0.469745 0.093102 0.491332 -0.154116
C49   C     C_3   0.368390 0.050445 0.420294 0.184703
C50   C     C_2   0.604887 0.027754 0.500114 0.175942
C51   C     C_2   0.568634 0.973751 0.535721 -0.159233
C52   C     C_R   0.828568 0.936585 0.589342 0.067544
C53   C     C_R   0.690770 0.907113 0.547093 -0.011451
C54   C     C_R   0.950528 0.876427 0.599616 -0.235106
C55   C     C_R   0.935772 0.786070 0.566810 0.342912
C56   C     C_R   0.675984 0.815442 0.515122 0.124276
H45   H     H_    0.144461 0.089743 0.366528 0.216042
H46   H     H_    0.053210 0.900328 0.634804 0.156010
H47   H     H_    0.409433 0.307243 0.496851 0.159851
H48   H     H_    0.792235 0.685450 0.497738 0.160312
H49   H     H_    0.444834 0.977367 0.555632 0.147704
N1    N     N_R   0.111587 0.832177 0.352008 0.225669
O25   O     O_R   0.102766 0.900636 0.331998 -0.413396
O26   O     O_R   0.073190 0.843649 0.422359 -0.407622
N2    N     N_R   0.150723 0.331882 0.239878 0.199892
O27   O     O_R   0.127923 0.335185 0.171904 -0.488216
O28   O     O_R   0.111287 0.402280 0.300439 -0.377659
N3    N     N_R   0.251768 0.086186 0.183547 0.248888
O29   O     O_R   0.385143 0.036940 0.151683 -0.367137
O30   O     O_R   0.148714 0.054796 0.215258 -0.356241
N4    N     N_R   0.603359 0.691535 0.266891 0.201882
O31   O     O_R   0.540955 0.628247 0.278325 -0.425707
O32   O     O_R   0.645256 0.681069 0.197068 -0.434902
C57   C     C_3   0.250806 0.539999 0.662454 -0.576383
H50   H     H_    0.284701 0.604005 0.665503 0.234326
H51   H     H_    0.274675 0.491172 0.602995 0.246915
H52   H     H_    0.119121 0.553636 0.677201 0.228092
N5    N     N_R   0.314008 0.303256 0.930509 0.225393
O33   O     O_R   0.428730 0.245436 0.937241 -0.382659
O34   O     O_R   0.164021 0.285469 0.926071 -0.381944
C58   C     C_3   0.769558 0.015131 0.461637 -0.719005
H53   H     H_    0.762990 0.043282 0.416096 0.236991
H54   H     H_    0.859970 0.045668 0.505067 0.267742
H55   H     H_    0.812751 0.943928 0.433187 0.256464

loop_
_geom_bond_atom_site_label_1
_geom_bond_atom_site_label_2
_geom_bond_distance
_ccdc_geom_bond_type
O5    C6    1.398548 S    
C17   C18   1.413645 A    
C12   H25   1.113043 S    
C30   C38   1.416967 A    
C48   C49   1.535620 S    
C34   H43   1.078332 S    
C5    H10   1.109586 S    
C14   H29   1.111123 S    
P7    O22   1.763324 S    
C25   C26   1.417202 A    
C15   O24   1.403395 S    
C4    C5    1.522572 S    
Ba1   O16   2.824931 S    
C53   C56   1.413984 A    
C50   C51   1.350560 D    
C27   C28   1.431463 A    
C45   C46   1.340590 D    
C8    H18   1.090530 S    
C29   C36   1.420416 A    
C23   C24   1.437481 A    
C28   C33   1.401314 A    
P3    O11   1.759921 S    
H34   C16   1.108388 S    
N5    O33   1.301707 A    
C2    C3    1.533987 S    
C4    H8    1.097283 S    
C1    C10   1.532606 S    
P1    O2    1.566112 S    
C37   C39   1.393436 A    
C32   H38   1.075485 S    
P8    O23   1.541354 D    
P6    C40   1.841423 S    
C34   C35   1.414146 A    
N2    O27   1.302456 A    
C26   C57   1.504721 S    
P3    C56   1.839337 S    
P1    Ba1   3.385487 S    
C36   C37   1.411945 A    
N2    O28   1.295796 A    
P1    O1    1.519390 D    
O10   C8    1.396160 S    
C43   H47   1.084978 S    
C11   C12   1.539986 S    
C38   C39   1.402710 A    
C44   C56   1.390557 A    
C43   C46   1.488176 S    
H1    C10   1.102520 S    
C41   C42   1.386151 A    
C11   N2    1.456450 S    
C2    H4    1.112517 S    
C54   C55   1.394873 A    
O3    P6    1.755855 S    
C35   C36   1.431229 A    
C58   H54   1.108965 S    
C4    H7    1.094965 S    
C13   H27   1.114074 S    
Ba1   Ba2   4.551385 S    
C19   C21   1.394389 A    
C1    H2    1.106889 S    
O7    Ba1   2.875762 S    
O6    C10   1.401079 S    
N3    O30   1.300954 A    
O3    Ba1   2.786400 S    
P7    O21   1.570788 D    
C3    H5    1.108649 S    
C5    H11   1.108480 S    
C31   C42   1.428285 A    
C14   H30   1.108203 S    
C9    H20   1.110047 S    
C40   C41   1.389973 A    
C20   C24   1.426596 A    
C8    C9    1.522246 S    
C17   C29   1.417379 A    
C3    H6    1.099798 S    
C4    O15   1.406333 S    
P4    O13   1.566112 S    
C24   C35   1.419402 A    
C13   H28   1.110955 S    
P1    O5    1.751535 S    
P5    C47   1.866826 S    
C31   C32   1.398065 A    
C7    H16   1.110819 S    
C16   H35   1.110454 S    
C44   H48   1.082850 S    
C8    H17   1.110452 S    
C15   H32   1.109945 S    
O11   C2    1.414815 S    
C19   N5    1.437658 S    
P8    C25   1.874824 S    
C22   C25   1.418110 A    
Ba2   O20   2.824393 S    
C3    H26   1.111016 S    
O1    Ba1   2.829788 S    
C1    H22   1.111097 S    
C9    H21   1.107787 S    
C6    H13   1.096022 S    
Ba1   O20   2.908583 S    
P2    O10   1.759672 S    
C52   C54   1.390832 A    
C6    C7    1.521069 S    
C44   C55   1.390755 A    
C43   C47   1.343794 D    
O2    Ba2   2.802339 S    
C15   H33   1.110110 S    
C45   C49   1.506920 S    
C58   H53   1.107643 S    
C51   H49   1.085641 S    
C57   H52   1.107266 S    
P8    O24   1.752164 S    
C54   H46   1.082292 S    
C26   C27   1.412403 A    
C13   C14   1.519766 S    
C58   H55   1.105956 S    
N1    O25   1.302298 A    
O2    Ba1   2.919858 S    
C1    H3    1.109310 S    
C39   H40   1.077737 S    
C41   H41   1.082753 S    
P4    C27   1.908714 S    
C57   H51   1.108445 S    
P2    C55   1.811245 S    
P3    O8    1.771927 S    
P2    Ba1   3.412012 S    
C47   C48   1.523175 S    
C14   H31   1.110794 S    
P7    C46   1.849098 S    
C17   C20   1.435121 A    
P1    C42   1.858497 S    
C18   H42   1.076946 S    
O14   Ba2   2.785793 S    
C21   C22   1.401047 A    
O16   P7    1.795873 S    
N3    O29   1.300956 A    
O17   Ba2   2.776429 S    
C10   N1    1.463444 S    
O13   Ba2   2.920626 S    
P4    O12   1.519688 D    
C48   C50   1.508583 S    
C12   N3    1.460117 S    
C7    H15   1.104898 S    
C33   H39   1.080305 S    
C21   H37   1.073027 S    
P4    Ba2   3.385997 S    
C18   C32   1.391609 A    
O8    Ba1   2.775833 S    
N1    O26   1.299927 A    
Ba2   O21   2.875960 S    
C33   C34   1.395862 A    
P4    O15   1.761570 S    
C29   C30   1.435874 A    
O4    P6    1.550344 D    
Ba1   O13   2.801788 S    
P5    O18   1.542883 D    
C6    H12   1.099574 S    
N4    O32   1.302344 A    
C52   C53   1.401916 A    
P2    O7    1.508731 D    
N4    O31   1.295903 A    
C11   O22   1.398825 S    
N5    O34   1.301747 A    
C22   C23   1.415594 A    
C2    N4    1.462719 S    
O14   P8    1.737123 S    
P5    O19   1.746638 S    
C11   H23   1.094247 S    
C38   C40   1.419772 A    
O19   C13   1.402479 S    
C12   H24   1.112208 S    
P2    O20   1.590161 S    
C15   C16   1.520839 S    
C57   H50   1.097045 S    
C37   H44   1.078804 S    
C9    H19   1.110526 S    
P3    O9    1.545705 D    
C45   H45   1.084256 S    
C5    H9    1.109552 S    
C16   H36   1.110675 S    
C30   C31   1.423013 A    
C7    H14   1.107185 S    
P5    O17   1.745453 S    
C19   C20   1.422872 A    
C23   C28   1.426899 A    
O6    P6    1.756108 S    
O16   Ba2   2.907814 S    
C50   C58   1.511889 S    
O12   Ba2   2.830278 S    
C51   C53   1.473906 S    
