data_mof_unit_4560.cif
_audit_creation_date              2013-03-05T16:44:16-0500
_audit_creation_method            fapswitch 2.2
_symmetry_space_group_name_H-M    P1
_symmetry_Int_Tables_number       1
_space_group_crystal_system       triclinic
_cell_length_a                    23.274371
_cell_length_b                    10.715467
_cell_length_c                    9.913259
_cell_angle_alpha                 90.821906
_cell_angle_beta                  90.714628
_cell_angle_gamma                 91.043466
_cell_volume                      2471.4598905

loop_
_atom_site_label
_atom_site_type_symbol
_atom_site_description
_atom_site_fract_x
_atom_site_fract_y
_atom_site_fract_z
_atom_type_partial_charge
O1    O     O_R   0.500010 0.316790 0.614690 -0.589471
O2    O     O_R   0.500000 0.316760 0.385350 -0.553639
C1    C     C_R   0.505984 0.261425 0.498764 0.932755
O3    O     O_R   0.416160 0.499980 0.614700 -0.585744
O4    O     O_R   0.416150 0.499940 0.385360 -0.568128
C2    C     C_R   0.389676 0.501283 0.499316 0.990605
Zn1   Zn    Zn3+2 0.500000 0.500020 0.653130 1.103818
Zn2   Zn    Zn3+2 0.500000 0.499980 0.346870 1.093235
O5    O     O_R   0.500000 0.683240 0.614650 -0.564288
O6    O     O_R   0.499990 0.683210 0.385310 -0.620903
O7    O     O_R   0.583850 0.500060 0.614640 -0.618274
O8    O     O_R   0.583840 0.500020 0.385300 -0.636559
C3    C     C_R   0.503106 0.739599 0.500831 0.973246
C4    C     C_R   0.610680 0.498393 0.500981 0.896805
C5    C     C_R   0.881759 0.516252 0.603635 0.586164
N1    N     N_R   0.851683 0.436057 0.520183 -0.351331
C6    C     C_R   0.878058 0.348896 0.441662 0.673790
C7    C     C_R   0.938043 0.332810 0.452293 -0.188774
C8    C     C_R   0.969785 0.420207 0.532884 -0.062668
C9    C     C_R   0.941268 0.509681 0.612471 0.005566
C10   C     C_R   0.967550 0.235349 0.384829 0.352054
C11   C     C_R   0.028034 0.244222 0.373568 0.205172
C12   C     C_R   0.059400 0.339796 0.444420 -0.192971
C13   C     C_R   0.030180 0.421277 0.531692 -0.034837
C14   C     C_R   0.061230 0.508124 0.614093 0.006406
C15   C     C_R   0.032178 0.590245 0.699494 -0.105054
C16   C     C_R   0.972685 0.592034 0.697504 -0.104971
C17   C     C_R   0.119244 0.358487 0.430769 0.599220
N2    N     N_R   0.148345 0.442577 0.512663 -0.357364
C18   C     C_R   0.120875 0.513270 0.606674 0.551192
O9    O     O_2   0.853945 0.604091 0.675301 -0.504051
O10   O     O_2   0.846258 0.282835 0.350330 -0.437567
O11   O     O_2   0.148147 0.296782 0.334279 -0.439846
O12   O     O_2   0.151364 0.589588 0.691544 -0.480600
H1    H     H_    0.055275 0.656578 0.764488 0.214314
H2    H     H_    0.951466 0.659488 0.761271 0.211601
C19   C     C_R   0.233027 0.575558 0.472550 -0.078766
H3    H     H_    0.204728 0.652976 0.455158 0.198675
C20   C     C_R   0.292620 0.594860 0.473922 0.311612
C21   C     C_R   0.327830 0.491240 0.497800 -0.151509
C22   C     C_R   0.303767 0.372758 0.518968 -0.107273
H4    H     H_    0.330961 0.293199 0.535582 0.203336
C23   C     C_R   0.244708 0.356285 0.522151 0.001918
H5    H     H_    0.226511 0.265152 0.543898 0.191338
C24   C     C_R   0.209170 0.457694 0.500027 0.190546
C25   C     C_R   0.756703 0.406190 0.622100 0.477158
C26   C     C_R   0.698070 0.428736 0.618193 -0.220559
H6    H     H_    0.671986 0.401235 0.702736 0.217609
C27   C     C_R   0.672705 0.483489 0.504979 -0.098044
C28   C     C_R   0.706455 0.518054 0.395419 -0.159386
H7    H     H_    0.687411 0.560095 0.307173 0.182154
C29   C     C_R   0.765444 0.500807 0.400773 -0.121575
H8    H     H_    0.791784 0.531030 0.317643 0.187135
C30   C     C_R   0.790710 0.445620 0.513646 0.149360
C31   C     C_R   0.522811 0.066237 0.614062 -0.054865
C32   C     C_R   0.517830 0.130997 0.494693 -0.153788
C33   C     C_R   0.521480 0.061967 0.371631 0.311824
C34   C     C_R   0.515506 0.932291 0.375713 -0.186343
H9    H     H_    0.515033 0.879692 0.281562 0.230544
C35   C     C_R   0.512160 0.871000 0.499977 -0.111988
C36   C     C_R   0.521039 0.940973 0.617191 -0.033329
C37   C     C_3   0.527485 0.938045 0.768067 0.496218
C38   C     C_3   0.528815 0.082987 0.763519 0.041558
H10   H     H_    0.491409 0.128242 0.810072 0.205637
C39   C     C_R   0.451461 0.525692 0.069476 0.043820
N3    N     N_R   0.499610 0.499140 0.142800 -0.107427
C40   C     C_R   0.549030 0.478719 0.072797 0.012685
H11   H     H_    0.588484 0.460148 0.126904 0.170817
C41   C     C_R   0.548868 0.477170 0.929284 0.047209
H12   H     H_    0.588097 0.456939 0.876677 0.163882
N4    N     N_R   0.499610 0.499180 0.857150 -0.095600
C42   C     C_R   0.451977 0.531033 0.928661 0.101064
C43   C     C_3   0.390144 0.484938 0.916071 0.257005
C44   C     C_3   0.391600 0.467524 0.071620 0.369812
S1    S     S_3+6 0.931144 0.094339 0.331076 0.138316
O13   O     O_2   0.906840 0.111560 0.191503 -0.202129
O14   O     O_2   0.971109 0.985733 0.328986 -0.225496
O15   O     O_3   0.877582 0.060205 0.437751 -0.467639
H13   H     H_    0.856558 0.988456 0.395086 0.397761
N5    N     N_R   0.535339 0.118690 0.245236 0.258503
O16   O     O_R   0.576528 0.202315 0.241173 -0.332759
O17   O     O_R   0.518652 0.064415 0.132816 -0.271344
N6    N     N_R   0.475945 0.888841 0.834409 0.214607
O18   O     O_R   0.480415 0.824067 0.943945 -0.293476
O19   O     O_R   0.425162 0.922535 0.794001 -0.287221
S2    S     S_3+6 0.593359 0.865289 0.820638 0.104077
O20   O     O_2   0.606818 0.900306 0.965104 -0.194315
O21   O     O_2   0.586865 0.725990 0.808336 -0.317078
O22   O     O_3   0.647703 0.912770 0.722367 -0.495582
H14   H     H_    0.681859 0.869073 0.757088 0.401473
N7    N     N_R   0.583684 0.142564 0.804017 0.263841
O23   O     O_R   0.620200 0.180672 0.714409 -0.340467
O24   O     O_R   0.593279 0.170726 0.930361 -0.258541
N8    N     N_R   0.057411 0.153619 0.293435 0.284149
O25   O     O_R   0.090887 0.073672 0.351039 -0.265155
O26   O     O_R   0.047417 0.145015 0.164179 -0.265929
N9    N     N_R   0.351603 0.583683 0.870436 0.219819
O27   O     O_R   0.296146 0.568210 0.877755 -0.235860
O28   O     O_R   0.371937 0.682293 0.811205 -0.263431
N10   N     N_R   0.380444 0.368893 0.837623 0.231457
O29   O     O_R   0.422738 0.298107 0.804236 -0.368065
O30   O     O_R   0.328233 0.330004 0.810680 -0.292113
N11   N     N_R   0.350138 0.544984 0.143254 0.214890
O31   O     O_R   0.298045 0.502944 0.161424 -0.272143
O32   O     O_R   0.362682 0.660627 0.175438 -0.307741
S3    S     S_3+6 0.389024 0.305150 0.123757 0.127532
O33   O     O_2   0.440187 0.238927 0.069033 -0.245922
O34   O     O_2   0.388731 0.292389 0.273991 -0.295679
O35   O     O_3   0.328629 0.235358 0.062923 -0.415745
H15   H     H_    0.333815 0.145172 0.078761 0.415337
N12   N     N_R   0.315905 0.718773 0.453432 0.248989
O36   O     O_R   0.365960 0.752421 0.502787 -0.344594
O37   O     O_R   0.284939 0.802424 0.394333 -0.275443
S4    S     S_3+6 0.786062 0.328057 0.762590 0.092489
O38   O     O_2   0.808716 0.423285 0.863567 -0.252527
O39   O     O_2   0.740415 0.249256 0.827843 -0.195069
O40   O     O_3   0.839948 0.235949 0.713614 -0.521501
H16   H     H_    0.857995 0.207507 0.798504 0.408360

loop_
_geom_bond_atom_site_label_1
_geom_bond_atom_site_label_2
_geom_bond_distance
_ccdc_geom_bond_type
C43   N10   1.469573 S    
C31   C32   1.385037 A    
Zn2   N3    2.022796 S    
C7    C10   1.423765 A    
C11   N8    1.434116 S    
C43   C44   1.555922 S    
C8    C9    1.413057 A    
C23   H5    1.082928 S    
S4    O38   1.503068 D    
C26   C27   1.402618 A    
C3    C35   1.420059 S    
C43   N9    1.472087 S    
C37   S2    1.807011 S    
C15   C16   1.385061 A    
C37   C38   1.554183 S    
C17   N2    1.368504 A    
Zn1   N4    2.022785 S    
O4    C2    1.293538 A    
O7    C4    1.295060 A    
S2    O21   1.500616 D    
C4    C27   1.455388 S    
N7    O24   1.299755 A    
S3    O33   1.500545 D    
C34   C35   1.406631 A    
C5    N1    1.362374 A    
C32   C33   1.421834 A    
C7    C8    1.414115 A    
C22   H4    1.084238 S    
C41   N4    1.369505 A    
O5    C3    1.289585 A    
N11   O32   1.302201 A    
C26   H6    1.082164 S    
N1    C6    1.366363 A    
C31   C38   1.494390 S    
C28   C29   1.389107 A    
C12   C13   1.409939 A    
N2    C18   1.365045 A    
C36   C37   1.502147 S    
C20   N12   1.442996 S    
N3    C40   1.370108 A    
C10   C11   1.415111 A    
C22   C23   1.383453 A    
C33   N5    1.438134 S    
C41   H12   1.080946 S    
O3    Zn1   1.983487 S    
N9    O28   1.300683 A    
C29   C30   1.400988 A    
N9    O27   1.301390 A    
C5    C9    1.389860 A    
C18   O12   1.350696 S    
C40   H11   1.080711 S    
C13   C14   1.412273 A    
N5    O17   1.301328 A    
N7    O23   1.301822 A    
C25   S4    1.771458 S    
S2    O20   1.502998 D    
C42   C43   1.516087 S    
C28   H7    1.083309 S    
C14   C15   1.401021 A    
S2    O22   1.682026 S    
C39   C44   1.516434 S    
N2    C24   1.429237 S    
C35   C36   1.385084 A    
O1    C1    1.295914 A    
C37   N6    1.468331 S    
Zn1   O7    1.993165 S    
S1    O13   1.503342 D    
C19   H3    1.083012 S    
C44   S3    1.822313 S    
S1    O14   1.503067 D    
C1    C32   1.429557 S    
N6    O18   1.301187 A    
Zn2   O8    1.983484 S    
C25   C30   1.408172 A    
N10   O30   1.300742 A    
C6    C7    1.412639 A    
N12   O37   1.301611 A    
C12   C17   1.411990 A    
N8    O26   1.301092 A    
C23   C24   1.395741 A    
O3    C2    1.292929 A    
C21   C22   1.397941 A    
N6    O19   1.302192 A    
O8    C4    1.299517 A    
C17   O11   1.348617 S    
C27   C28   1.398581 A    
C2    C21   1.441375 S    
C19   C24   1.402027 A    
C20   C21   1.412891 A    
C29   H8    1.082992 S    
C14   C18   1.391200 A    
Zn1   O5    2.005368 S    
C25   C26   1.390347 A    
N12   O36   1.300776 A    
O1    Zn1   1.994664 S    
O2    Zn2   2.005366 S    
N5    O16   1.301653 A    
O6    C3    1.287752 A    
O4    Zn2   1.993166 S    
S4    O39   1.503430 D    
C5    O9    1.350629 S    
C9    C16   1.401323 A    
C16   H2    1.083341 S    
C39   C42   1.398122 A    
C10   S1    1.789966 S    
O2    C1    1.285786 A    
C34   H9    1.083215 S    
N4    C42   1.369139 A    
C19   C20   1.398474 A    
O35   H15   0.990581 S    
O15   H13   0.990572 S    
C33   C34   1.395170 A    
S3    O34   1.497614 D    
C31   C36   1.342969 A    
N10   O29   1.296898 A    
C8    C13   1.405690 A    
N8    O25   1.301639 A    
S1    O15   1.683302 S    
N1    C30   1.425418 S    
S4    O40   1.682054 S    
C38   H10   1.106813 S    
C15   H1    1.083327 S    
Zn2   O6    1.994666 S    
C39   N3    1.364674 A    
C38   N7    1.466195 S    
N11   O31   1.301247 A    
C6    O10   1.347016 S    
C11   C12   1.419315 A    
C40   C41   1.422489 A    
O22   H14   0.990476 S    
O40   H16   0.990308 S    
C44   N11   1.467580 S    
S3    O35   1.681202 S    
