data_mof_unit_2112.cif
_audit_creation_date              2012-12-11T16:26:27-0500
_audit_creation_method            fapswitch 2.2
_symmetry_space_group_name_H-M    P1
_symmetry_Int_Tables_number       1
_space_group_crystal_system       triclinic
_cell_length_a                    6.935925
_cell_length_b                    17.552033
_cell_length_c                    19.440432
_cell_angle_alpha                 108.576524
_cell_angle_beta                  89.538309
_cell_angle_gamma                 90.621008
_cell_volume                      2243.2060329

loop_
_atom_site_label
_atom_site_type_symbol
_atom_type_description
_atom_site_fract_x
_atom_site_fract_y
_atom_site_fract_z
_atom_type_partial_charge
O1    O     O_R   0.494330 0.415720 0.413720 -0.537650
O2    O     O_R   0.819330 0.430070 0.560210 -0.541810
O3    O     O_R   0.994320 0.584280 0.586280 -0.536794
C1    C     C_R   0.650139 0.415382 0.582169 0.705487
O4    O     O_R   0.823730 0.406300 0.412670 -0.537173
O5    O     O_R   0.998760 0.560340 0.437690 -0.545655
C2    C     C_R   0.654938 0.383427 0.385055 0.695815
O6    O     O_R   0.489890 0.439660 0.562310 -0.545259
O7    O     O_3   0.662340 0.550560 0.508380 -0.368324
V1    V     V_3+5 0.935370 0.490620 0.498450 1.412117
O8    O     O_R   0.328750 0.569930 0.439790 -0.540168
C3    C     C_R   0.160838 0.585123 0.418247 0.703191
O9    O     O_R   0.324340 0.593700 0.587330 -0.537214
C4    C     C_R   0.155449 0.616564 0.614946 0.696566
V2    V     V_3+5 0.435940 0.509380 0.501550 1.413186
O10   O     O_3   0.159100 0.449440 0.491620 -0.368981
C5    C     C_R   0.290495 0.601910 0.750675 -0.146106
C6    C     C_R   0.355019 0.592612 0.815186 -0.123266
C7    C     C_R   0.342585 0.656002 0.879736 -0.120795
C8    C     C_R   0.265539 0.729175 0.880274 -0.132380
C9    C     C_R   0.200456 0.740764 0.815498 0.070921
C10   C     C_R   0.213213 0.675776 0.749299 0.068447
C11   C     C_R   0.120037 0.814994 0.816178 -0.185087
C12   C     C_R   0.052411 0.824200 0.750598 0.068615
C13   C     C_R   0.065189 0.759214 0.684398 0.070050
C14   C     C_R   0.145531 0.684974 0.683728 -0.185267
C15   C     C_R   0.975174 0.898070 0.749215 -0.147133
C16   C     C_R   0.910768 0.907380 0.684690 -0.122046
C17   C     C_R   0.923250 0.843994 0.620137 -0.114743
C18   C     C_R   0.000210 0.770811 0.619611 -0.130933
H1    H     H_    0.300804 0.550304 0.702210 0.109030
H2    H     H_    0.413835 0.535692 0.815116 0.117783
H3    H     H_    0.391695 0.648312 0.929816 0.112098
H4    H     H_    0.256228 0.776086 0.932145 0.100720
H5    H     H_    0.964832 0.949671 0.797684 0.109277
H6    H     H_    0.852008 0.964306 0.684753 0.120233
H7    H     H_    0.009561 0.723900 0.567741 0.102247
C19   C     C_R   0.306520 0.634232 0.321314 -0.219547
C20   C     C_R   0.153480 0.635069 0.369479 -0.085226
C21   C     C_R   0.992684 0.683588 0.370595 -0.214930
C22   C     C_R   0.984864 0.731512 0.324932 0.065341
C23   C     C_R   0.136733 0.729336 0.275888 0.075969
C24   C     C_R   0.298061 0.680120 0.273913 0.117358
C25   C     C_R   0.829434 0.782983 0.329071 -0.241047
C26   C     C_R   0.821376 0.832956 0.285160 -0.018306
C27   C     C_R   0.967912 0.827170 0.231907 0.010640
C28   C     C_R   0.127787 0.776370 0.228893 0.052434
C29   C     C_R   0.280372 0.772824 0.179235 0.125083
C30   C     C_R   0.439334 0.723401 0.177568 -0.179622
C31   C     C_R   0.448320 0.677653 0.224582 -0.169034
C32   C     C_R   0.959136 0.869272 0.180888 -0.192425
C33   C     C_R   0.111671 0.866621 0.132066 -0.098875
C34   C     C_R   0.272849 0.819084 0.132356 -0.219288
H8    H     H_    0.430686 0.596693 0.319791 0.121736
H9    H     H_    0.875161 0.685310 0.408183 0.125807
H10   H     H_    0.716609 0.786201 0.368833 0.163521
H11   H     H_    0.834338 0.904428 0.178189 0.163455
H12   H     H_    0.390961 0.816735 0.094858 0.121732
H13   H     H_    0.573314 0.640436 0.222462 0.124068
C35   C     C_R   0.784448 0.181695 0.866153 -0.233833
C36   C     C_R   0.623051 0.133061 0.867786 -0.083543
C37   C     C_R   0.466464 0.131088 0.821515 -0.214487
C38   C     C_R   0.470148 0.176744 0.773961 0.085760
C39   C     C_R   0.630899 0.226480 0.773520 0.051770
C40   C     C_R   0.788274 0.229192 0.819981 0.093128
C41   C     C_R   0.315695 0.173628 0.726872 -0.182862
C42   C     C_R   0.318966 0.220316 0.680393 -0.184431
C43   C     C_R   0.476801 0.270919 0.680114 0.092291
C44   C     C_R   0.634177 0.273631 0.726576 0.051785
C45   C     C_R   0.794929 0.323367 0.726134 0.087095
C46   C     C_R   0.949394 0.326473 0.773215 -0.185997
C47   C     C_R   0.946123 0.279786 0.819694 -0.188872
C48   C     C_R   0.480617 0.318425 0.633950 -0.231089
C49   C     C_R   0.642009 0.367063 0.632321 -0.083317
C50   C     C_R   0.798605 0.369030 0.678585 -0.214669
H14   H     H_    0.905141 0.183821 0.901846 0.124560
H15   H     H_    0.342153 0.093220 0.821952 0.124089
H16   H     H_    0.191473 0.135455 0.726343 0.133631
H17   H     H_    0.197326 0.217167 0.644925 0.134654
H18   H     H_    0.359930 0.316295 0.598254 0.124850
H19   H     H_    0.922921 0.406894 0.678143 0.123730
H20   H     H_    0.073624 0.364641 0.773739 0.132531
H21   H     H_    0.067769 0.282929 0.855157 0.132740
H22   H     H_    0.311549 0.155412 0.425865 0.116176
C51   C     C_R   0.817917 0.395111 0.251078 -0.146582
C52   C     C_R   0.896676 0.402890 0.187495 -0.125637
C53   C     C_R   0.884501 0.339513 0.122959 -0.120550
C54   C     C_R   0.793543 0.267875 0.121525 -0.132708
C55   C     C_R   0.714422 0.257657 0.185460 0.071310
C56   C     C_R   0.726834 0.322657 0.251650 0.069217
C57   C     C_R   0.619588 0.185033 0.183818 -0.184845
C58   C     C_R   0.535646 0.177716 0.248297 0.056228
C59   C     C_R   0.548761 0.242599 0.314547 0.069185
C60   C     C_R   0.644563 0.315050 0.316271 -0.183511
C61   C     C_R   0.441067 0.105860 0.248603 -0.101804
C62   C     C_R   0.359013 0.098696 0.311895 -0.058651
C63   C     C_R   0.373265 0.161692 0.376602 -0.117412
C64   C     C_R   0.468193 0.232626 0.378366 -0.134715
H23   H     H_    0.827880 0.446938 0.299352 0.112593
H24   H     H_    0.965991 0.458719 0.188228 0.116875
H25   H     H_    0.944271 0.346105 0.073525 0.112645
H26   H     H_    0.784284 0.221239 0.069510 0.105219
H27   H     H_    0.430032 0.054127 0.200304 0.117394
H28   H     H_    0.285555 0.043608 0.310794 0.119468
H29   H     H_    0.478448 0.279058 0.430468 0.107782
O11   O     O_R   0.775200 0.060470 0.937800 -0.545329
O12   O     O_R   0.441110 0.093720 0.087350 -0.540090
O13   O     O_R   0.266330 0.939630 0.062280 -0.543489
C65   C     C_R   0.609759 0.116575 0.115068 0.700022
O14   O     O_R   0.445750 0.069950 0.939820 -0.542395
O15   O     O_R   0.271000 0.915700 0.913700 -0.536777
C66   C     C_R   0.614941 0.084712 0.917916 0.703785
O16   O     O_R   0.770530 0.084400 0.086380 -0.534934
O17   O     O_3   0.602830 0.949510 0.991680 -0.368589
V3    V     V_3+5 0.329710 0.009370 0.001550 1.412885
O18   O     O_R   0.940990 0.906170 0.912570 -0.538202
C67   C     C_R   0.109947 0.883382 0.884979 0.694982
O19   O     O_R   0.936350 0.929940 0.060100 -0.541909
C68   C     C_R   0.104270 0.914984 0.081867 0.705139
V4    V     V_3+5 0.829160 0.990450 0.998310 1.417732
O20   O     O_3   0.105910 0.050480 0.008320 -0.369444
H30   H     H_    0.874244 0.851692 0.570045 0.118709
C69   C     C_2   0.663145 0.892785 0.300341 0.744807
O21   O     O_2   0.689593 0.959018 0.293615 -0.575280
O22   O     O_R   0.486567 0.875061 0.327273 -0.664484
H31   H     H_    0.390923 0.920525 0.336677 0.289988
H32   H     H_    0.557797 0.720582 0.140168 0.117836

loop_
_geom_bond_atom_site_label_1
_geom_bond_atom_site_label_2
_ccdc_geom_bond_type
C53   C54   A    
C59   C60   A    
V3    O20   S    
C48   C49   A    
C37   H15   S    
C61   C62   A    
C12   C15   A    
C1    O6    A    
C63   C64   A    
C69   O21   D    
O11   C66   A    
C51   C52   A    
C26   C69   S    
C37   C38   A    
C64   H29   S    
C31   H13   S    
O13   V3    S    
C16   C17   A    
O5    C3    A    
C19   C20   A    
C69   O22   S    
V2    O10   S    
O18   C67   A    
C6    C7    A    
C22   C23   A    
O19   C68   A    
C53   H25   S    
O8    V2    S    
C7    C8    A    
C43   C44   A    
C11   C12   A    
C45   C46   A    
C32   H11   S    
C55   C57   A    
C52   H24   S    
O7    V1    S    
C1    C49   S    
C65   O16   A    
C46   H20   S    
C8    H4    S    
C41   C42   A    
C38   C41   A    
O9    C4    A    
C17   H30   S    
O12   C65   A    
O13   C68   A    
C36   C37   A    
C41   H16   S    
C61   H27   S    
C56   C60   A    
O19   V4    S    
C29   C34   A    
C30   H32   S    
C49   C50   A    
C32   C33   A    
C42   H17   S    
C12   C13   A    
C7    H3    S    
C20   C21   A    
O4    C2    A    
C52   C53   A    
C50   H19   S    
C15   H5    S    
C43   C48   A    
C26   C27   A    
C27   C32   A    
C35   H14   S    
C58   C61   A    
C42   C43   A    
C18   H7    S    
C35   C36   A    
O2    C1    A    
C11   C67   S    
C17   C18   A    
C51   H23   S    
O16   V4    S    
C25   H10   S    
C28   C29   A    
C19   H8    S    
O9    V2    S    
C51   C56   A    
C21   H9    S    
C62   C63   A    
C8    C9    A    
C5    C6    A    
C39   C44   A    
C4    C14   S    
O12   V3    S    
O3    C4    A    
O1    V2    S    
C21   C22   A    
C35   C40   A    
O6    V2    S    
C62   H28   S    
O22   H31   S    
C5    H1    S    
C22   C25   A    
C6    H2    S    
C23   C24   A    
H22   C63   S    
O2    V1    S    
C57   C58   A    
C33   C34   A    
C13   C18   A    
C2    C60   S    
C27   C28   A    
C29   C30   A    
O11   V4    S    
O1    C2    A    
C25   C26   A    
O5    V1    S    
C54   H26   S    
C34   H12   S    
C24   C31   A    
O17   V3    S    
C40   C47   A    
C5    C10   A    
O15   C67   A    
C39   C40   A    
C57   C65   S    
C3    C20   S    
C9    C11   A    
C13   C14   A    
O4    V1    S    
O3    V1    S    
V1    O10   S    
C59   C64   A    
C58   C59   A    
C48   H18   S    
C23   C28   A    
O7    V2    S    
C44   C45   A    
O14   C66   A    
C47   H21   S    
C38   C39   A    
C33   C68   S    
O18   V4    S    
C19   C24   A    
C46   C47   A    
C54   C55   A    
C16   H6    S    
C30   C31   A    
C10   C14   A    
C15   C16   A    
V4    O20   S    
C45   C50   A    
O15   V3    S    
C55   C56   A    
C9    C10   A    
C36   C66   S    
O14   V3    S    
O17   V4    S    
O8    C3    A    
