data_mof_unit_230.cif
_audit_creation_date              2012-12-10T18:12:43-0500
_audit_creation_method            fapswitch 2.2
_symmetry_space_group_name_H-M    P1
_symmetry_Int_Tables_number       1
_space_group_crystal_system       triclinic
_cell_length_a                    12.625686
_cell_length_b                    13.075976
_cell_length_c                    15.735678
_cell_angle_alpha                 90.836794
_cell_angle_beta                  102.979753
_cell_angle_gamma                 81.953197
_cell_volume                      2506.17003406

loop_
_atom_site_label
_atom_site_type_symbol
_atom_type_description
_atom_site_fract_x
_atom_site_fract_y
_atom_site_fract_z
_atom_type_partial_charge
Br1   Br    Br    0.141591 0.989325 0.320807 -0.500256
Br2   Br    Br    0.748296 0.443572 0.119464 -0.500870
C1    C     C_R   0.438371 0.691510 0.492354 0.925203
C2    C     C_R   0.598559 0.199265 0.527795 -0.054512
C3    C     C_R   0.300567 0.836685 0.426121 -0.236752
C4    C     C_R   0.501693 0.499165 0.661887 0.932300
C5    C     C_R   0.273973 0.940908 0.403974 0.337353
C6    C     C_R   0.347822 0.008721 0.437974 -0.219327
C7    C     C_R   0.446581 0.973761 0.499660 0.010040
C8    C     C_R   0.461453 0.872721 0.534583 0.085151
C9    C     C_R   0.530233 0.035908 0.528532 0.104005
C10   C     C_R   0.620276 0.001557 0.598474 0.176099
C11   C     C_R   0.624143 0.907880 0.640900 -0.336236
C12   C     C_3   0.501991 0.500821 0.916981 0.110581
C13   C     C_R   0.542181 0.845772 0.612790 -0.026064
C14   C     C_R   0.526465 0.131984 0.489983 -0.226762
C15   C     C_R   0.689222 0.164909 0.595019 -0.192141
C16   C     C_R   0.561398 0.308500 0.510126 0.850608
C17   C     C_R   0.396814 0.801575 0.488252 -0.118967
C18   C     C_R   0.089494 0.343324 0.381560 -0.245375
C19   C     C_R   0.799178 0.631421 0.601551 0.035500
C20   C     C_R   0.903190 0.660846 0.622569 -0.220224
C21   C     C_R   0.984827 0.611115 0.584061 -0.151733
C22   C     C_R   0.962458 0.530996 0.524160 0.010797
C23   C     C_3   0.438538 0.428679 0.013966 -0.062296
C24   C     C_R   0.854957 0.503640 0.505296 0.225306
C25   C     C_R   0.041943 0.477206 0.482423 -0.013763
C26   C     C_R   0.012462 0.397354 0.423189 0.165834
C27   C     C_R   0.906573 0.371829 0.406258 -0.219408
C28   C     C_R   0.498699 0.499753 0.338165 0.882513
C29   C     C_R   0.829162 0.424134 0.446927 -0.184836
C30   C     C_R   0.150303 0.498957 0.496982 -0.023886
C31   C     C_R   0.195083 0.368519 0.398954 0.029536
C32   C     C_3   0.454076 0.594081 0.021649 -0.355551
C33   C     C_3   0.559398 0.571054 0.985940 -0.019563
C34   C     C_3   0.496045 0.498926 0.082695 0.103095
C35   C     C_1   0.504465 0.499548 0.751244 -0.095232
C36   C     C_1   0.495917 0.499259 0.248815 -0.124528
C37   C     C_3   0.397118 0.522631 0.951923 -0.024490
C38   C     C_2   0.627857 0.651534 0.972581 0.467972
C39   C     C_2   0.534318 0.763321 0.673860 0.426995
C40   C     C_2   0.370340 0.348059 0.027654 0.415244
C41   C     C_2   0.281522 0.548719 0.900101 0.408869
C42   C     C_3   0.543863 0.405726 0.978270 -0.296273
C43   C     C_3   0.601085 0.477100 0.048058 0.260637
C44   C     C_1   0.504620 0.500114 0.826526 0.106775
C45   C     C_1   0.495044 0.499040 0.173407 0.079270
C46   C     C_R   0.701325 0.065059 0.629095 -0.174082
H1    H     H_    0.463616 0.159811 0.433541 0.147844
H2    H     H_    0.064033 0.636999 0.602507 0.165246
H3    H     H_    0.920429 0.722154 0.668426 0.162248
H4    H     H_    0.749576 0.400483 0.431543 0.213403
H5    H     H_    0.580752 0.328972 0.959635 0.177426
H6    H     H_    0.745912 0.216993 0.624917 0.164905
H7    H     H_    0.687882 0.885823 0.698953 0.148136
H8    H     H_    0.769893 0.040015 0.682981 0.149318
H9    H     H_    0.663652 0.696101 0.027555 0.082494
H10   H     H_    0.606598 0.729989 0.721608 0.103254
H11   H     H_    0.334214 0.303553 0.972758 0.071957
H12   H     H_    0.248530 0.782839 0.392150 0.188277
H13   H     H_    0.214803 0.562213 0.933681 0.077730
H14   H     H_    0.324395 0.088186 0.416413 0.158914
H15   H     H_    0.256088 0.327237 0.367794 0.148144
H16   H     H_    0.883384 0.310887 0.361356 0.183933
H17   H     H_    0.068356 0.282121 0.336383 0.185805
H18   H     H_    0.180499 0.557685 0.540760 0.146754
H19   H     H_    0.735492 0.669891 0.631082 0.120381
H20   H     H_    0.417304 0.670828 0.040415 0.173910
N1    N     N_R   0.222180 0.444680 0.455580 -0.112261
N2    N     N_R   0.776980 0.554790 0.543960 -0.131212
O1    O     O_R   0.366730 0.627160 0.478790 -0.606757
O2    O     O_2   0.445883 0.736471 0.675173 -0.568158
O3    O     O_2   0.355020 0.332059 0.099835 -0.545180
O4    O     O_2   0.261725 0.554893 0.820665 -0.552712
O5    O     O_R   0.544830 0.662520 0.507160 -0.625968
O6    O     O_R   0.410960 0.482330 0.609040 -0.591932
O7    O     O_R   0.589060 0.517690 0.637410 -0.626967
O8    O     O_R   0.455170 0.337480 0.492840 -0.615077
O9    O     O_R   0.633270 0.372840 0.521210 -0.641451
O10   O     O_R   0.410940 0.482310 0.362590 -0.602396
O11   O     O_R   0.589040 0.517670 0.390960 -0.623710
O12   O     O_2   0.643772 0.667393 0.900579 -0.578357
Zn1   Zn    Zn3+2 0.381080 0.476390 0.481050 0.979661
Zn2   Zn    Zn3+2 0.618920 0.523610 0.518950 0.945841

loop_
_geom_bond_atom_site_label_1
_geom_bond_atom_site_label_2
_ccdc_geom_bond_type
C22   C25   A    
C29   H4    S    
C10   C46   A    
C5    C6    A    
C12   C44   S    
C28   C36   S    
C30   H18   S    
C26   C27   A    
C22   C24   A    
C39   H10   S    
C8    C13   A    
O9    Zn2   S    
O5    Zn2   S    
C23   C42   S    
C34   C45   S    
C32   C33   S    
C12   C37   S    
O8    Zn1   S    
C6    C7    A    
C21   C22   A    
C15   C46   A    
C1    C17   S    
C1    O5    A    
C7    C8    A    
C31   N1    A    
C28   O10   A    
C41   O4    D    
C27   H16   S    
C24   C29   A    
C19   C20   A    
C19   H19   S    
O10   Zn1   S    
C42   H5    S    
O6    Zn1   S    
O1    Zn1   S    
Br2   C43   S    
C32   C37   S    
C38   O12   D    
C18   H17   S    
C14   H1    S    
C13   C39   S    
C32   H20   S    
C12   C33   S    
C3    C5    A    
C16   O9    A    
C21   H2    S    
C37   C41   S    
C18   C26   A    
O7    Zn2   S    
C2    C14   A    
C1    O1    A    
N1    Zn1   S    
C9    C14   A    
C8    C17   A    
C31   H15   S    
C4    C35   S    
C34   C43   S    
C7    C9    A    
C36   C45   T    
C39   O2    D    
C18   C31   A    
C16   O8    A    
C11   C13   A    
C24   N2    A    
C2    C15   A    
C33   C43   S    
O11   Zn2   S    
N2    Zn2   S    
C42   C43   S    
C41   H13   S    
C12   C42   S    
C46   H8    S    
C40   O3    D    
C38   H9    S    
C3    H12   S    
C25   C30   A    
Br1   C5    S    
C4    O7    A    
C23   C40   S    
C9    C10   A    
C4    O6    A    
C30   N1    A    
C3    C17   A    
C19   N2    A    
C28   O11   A    
C33   C38   S    
C2    C16   S    
C27   C29   A    
C23   C37   S    
C32   C34   S    
C23   C34   S    
C10   C11   A    
C40   H11   S    
C25   C26   A    
C20   C21   A    
C35   C44   T    
C15   H6    S    
C6    H14   S    
C20   H3    S    
C11   H7    S    
