data_mof_unit_2772.cif
_audit_creation_date              2012-12-10T17:46:59-0500
_audit_creation_method            fapswitch 2.2
_symmetry_space_group_name_H-M    P1
_symmetry_Int_Tables_number       1
_space_group_crystal_system       triclinic
_cell_length_a                    9.884186
_cell_length_b                    10.714189
_cell_length_c                    13.620708
_cell_angle_alpha                 91.743775
_cell_angle_beta                  83.071986
_cell_angle_gamma                 89.332451
_cell_volume                      1431.08130074

loop_
_atom_site_label
_atom_site_type_symbol
_atom_type_description
_atom_site_fract_x
_atom_site_fract_y
_atom_site_fract_z
_atom_type_partial_charge
C1    C     C_R   0.499843 0.739563 0.490838 0.888428
C2    C     C_R   0.621193 0.936630 0.467833 0.457373
C3    C     C_R   0.620150 0.063151 0.486149 -0.283374
C4    C     C_R   0.475680 0.500270 0.685701 0.879319
C5    C     C_R   0.497263 0.127082 0.515074 -0.189123
C6    C     C_R   0.837281 0.666654 0.628566 -0.102955
C7    C     C_R   0.896763 0.747585 0.692069 -0.182364
C8    C     C_R   0.036563 0.745537 0.693033 -0.194093
C9    C     C_R   0.117763 0.663203 0.629938 -0.158701
C10   C     C_R   0.061135 0.581095 0.563735 0.128546
C11   C     C_R   0.916438 0.581885 0.563327 0.149463
C12   C     C_1   0.457290 0.500677 0.789485 -0.196726
C13   C     C_R   0.939453 0.421668 0.439474 -0.123809
C14   C     C_R   0.082774 0.421977 0.439276 -0.111636
C15   C     C_R   0.498922 0.260537 0.508379 0.907350
C16   C     C_R   0.524369 0.500217 0.314297 0.893055
C17   C     C_1   0.542991 0.503337 0.210597 -0.200113
C18   C     C_2   0.559042 0.508743 0.019056 -0.167848
C19   C     C_2   0.441856 0.501467 0.981183 -0.160328
C20   C     C_1   0.445559 0.501054 0.877294 -0.006082
C21   C     C_1   0.555181 0.506215 0.122880 -0.000604
C22   C     C_3   0.764543 0.848900 0.340488 0.100734
C23   C     C_R   0.243726 0.890525 0.474981 -0.243990
C24   C     C_3   0.895473 0.771379 0.314703 -0.300967
C25   C     C_3   0.915412 0.730119 0.205657 -0.970327
C26   C     C_3   0.996672 0.217975 0.666333 0.051457
C27   C     C_3   0.850413 0.257958 0.704505 -0.297931
C28   C     C_3   0.846865 0.364512 0.781760 -0.953482
C29   C     C_R   0.121746 0.952735 0.509047 -0.192874
C30   C     C_R   0.121173 0.064826 0.563606 0.534338
C31   C     C_R   0.248498 0.119718 0.574318 -0.293070
C32   C     C_R   0.372175 0.063341 0.529332 0.060756
C33   C     C_R   0.370574 0.940260 0.493729 0.051111
C34   C     C_R   0.496580 0.872975 0.478309 -0.256725
H1    H     H_    0.344682 0.494512 0.027373 0.157293
H2    H     H_    0.773720 0.937058 0.298996 0.125117
H3    H     H_    0.678040 0.794097 0.317032 0.129363
H4    H     H_    0.984240 0.827432 0.331357 0.204679
H5    H     H_    0.890933 0.687194 0.360481 0.243640
H6    H     H_    0.829622 0.670704 0.187985 0.271488
H7    H     H_    0.011779 0.674994 0.189409 0.265307
H8    H     H_    0.921386 0.812786 0.158134 0.261721
H9    H     H_    0.236593 0.806027 0.430694 0.188741
H10   H     H_    0.026131 0.911522 0.495094 0.194587
H11   H     H_    0.048187 0.299426 0.630382 0.158597
H12   H     H_    0.729301 0.673372 0.633618 0.205372
H13   H     H_    0.048847 0.188715 0.730194 0.136472
H14   H     H_    0.797827 0.288934 0.641601 0.252403
H15   H     H_    0.794722 0.177141 0.738035 0.221960
H16   H     H_    0.894187 0.333961 0.847141 0.257550
H17   H     H_    0.739530 0.393049 0.806211 0.271950
H18   H     H_    0.902378 0.446316 0.750128 0.271688
H19   H     H_    0.252696 0.205512 0.617262 0.145239
H20   H     H_    0.082606 0.808454 0.742674 0.153145
H21   H     H_    0.224268 0.666996 0.634828 0.213209
H22   H     H_    0.145777 0.358032 0.389933 0.156207
H23   H     H_    0.656304 0.515435 0.972957 0.158796
H24   H     H_    0.716344 0.111388 0.474870 0.202395
H25   H     H_    0.894409 0.357623 0.390238 0.151212
H26   H     H_    0.833719 0.811922 0.741187 0.153150
N1    N     N_R   0.857120 0.501200 0.500900 -0.129410
N2    N     N_R   0.142720 0.501280 0.500940 -0.128891
O1    O     O_R   0.385310 0.683220 0.500000 -0.649894
O2    O     O_3   0.993453 0.117830 0.596951 -0.648957
O3    O     O_R   0.614640 0.683250 0.500010 -0.589901
O4    O     O_R   0.368830 0.499960 0.640340 -0.636852
O5    O     O_R   0.598160 0.499980 0.640350 -0.633086
O6    O     O_R   0.385360 0.316750 0.499990 -0.617899
O7    O     O_R   0.614690 0.316780 0.500000 -0.628509
O8    O     O_R   0.401840 0.500020 0.359650 -0.608961
O9    O     O_R   0.631170 0.500040 0.359660 -0.612030
O10   O     O_3   0.745850 0.876215 0.443424 -0.625534
Zn1   Zn    Zn3+2 0.346870 0.499980 0.499990 0.914143
Zn2   Zn    Zn3+2 0.653130 0.500020 0.500010 0.929697

loop_
_geom_bond_atom_site_label_1
_geom_bond_atom_site_label_2
_ccdc_geom_bond_type
C27   H14   S    
C25   H8    S    
C4    O5    A    
C24   H4    S    
N2    Zn1   S    
C29   C30   A    
C13   H25   S    
C30   O2    S    
N1    Zn2   S    
O9    Zn2   S    
C18   C21   S    
C22   H2    S    
C9    C10   A    
C19   C20   S    
C18   H23   S    
C1    O3    A    
C31   C32   A    
O4    Zn1   S    
C5    C32   A    
C27   C28   S    
C32   C33   A    
C2    C34   A    
O8    Zn1   S    
C33   C34   A    
C13   N1    A    
C7    C8    A    
C29   H10   S    
O5    Zn2   S    
C19   H1    S    
C13   C14   A    
C31   H19   S    
C14   H22   S    
C4    O4    A    
C28   H18   S    
C12   C20   T    
C26   C27   S    
C10   N2    A    
C16   O9    A    
C28   H16   S    
C26   H13   S    
C9    H21   S    
C15   O6    A    
C23   C29   A    
C22   O10   S    
C16   O8    A    
C1    C34   S    
C2    C3    A    
C6    C7    A    
C22   C24   S    
C25   H6    S    
C30   C31   A    
C15   O7    A    
C28   H17   S    
C2    O10   S    
C5    C15   S    
C4    C12   S    
C10   C11   A    
C25   H7    S    
C14   N2    A    
C3    H24   S    
C1    O1    A    
C7    H26   S    
O7    Zn2   S    
C24   H5    S    
C23   H9    S    
C24   C25   S    
C23   C33   A    
C18   C19   D    
C8    H20   S    
C6    C11   A    
C26   O2    S    
C16   C17   S    
C6    H12   S    
C26   H11   S    
C11   N1    A    
O6    Zn1   S    
C22   H3    S    
O1    Zn1   S    
C17   C21   T    
O3    Zn2   S    
C27   H15   S    
C8    C9    A    
C3    C5    A    
