data_mof_unit_2516.cif
_audit_creation_date              2012-12-10T19:59:22-0500
_audit_creation_method            fapswitch 2.2
_symmetry_space_group_name_H-M    P1
_symmetry_Int_Tables_number       1
_space_group_crystal_system       triclinic
_cell_length_a                    15.028745
_cell_length_b                    14.181694
_cell_length_c                    10.660257
_cell_angle_alpha                 89.883905
_cell_angle_beta                  90.343762
_cell_angle_gamma                 90.029851
_cell_volume                      2272.00737258

loop_
_atom_site_label
_atom_site_type_symbol
_atom_type_description
_atom_site_fract_x
_atom_site_fract_y
_atom_site_fract_z
_atom_type_partial_charge
C1    C     C_R   0.327697 0.500148 0.501807 0.894729
C2    C     C_R   0.672214 0.500174 0.498161 0.878787
C3    C     C_R   0.186764 0.418860 0.464886 -0.275062
C4    C     C_R   0.813418 0.420912 0.538116 -0.278539
C5    C     C_R   0.095120 0.417480 0.461479 -0.185057
C6    C     C_R   0.905003 0.419312 0.537899 -0.183693
C7    C     C_R   0.047758 0.497296 0.498125 0.093835
C8    C     C_R   0.951752 0.496836 0.491738 0.087990
C9    C     C_R   0.458631 0.105037 0.404513 -0.284683
C10   C     C_R   0.543193 0.105741 0.597098 -0.286482
C11   C     C_R   0.458675 0.204188 0.405900 0.006837
C12   C     C_R   0.542089 0.204920 0.594454 0.015193
C13   C     C_R   0.500992 0.053614 0.501307 0.201859
C14   C     C_R   0.572399 0.894958 0.550956 -0.408342
C15   C     C_R   0.428274 0.896108 0.453699 -0.426895
C16   C     C_R   0.570153 0.795165 0.552762 0.548981
C17   C     C_R   0.429631 0.795894 0.448147 0.556431
C18   C     C_R   0.500658 0.946998 0.502294 0.041521
C19   C     C_R   0.503618 0.500085 0.259876 0.869862
C20   C     C_R   0.503723 0.499972 0.740147 0.854462
C21   C     C_R   0.513675 0.585879 0.063793 0.135605
C22   C     C_R   0.513839 0.585851 0.935772 0.135448
C23   C     C_R   0.519509 0.500998 0.128778 -0.100889
C24   C     C_R   0.519590 0.500868 0.871465 -0.102076
C25   C     C_R   0.542407 0.417920 0.065526 -0.228474
C26   C     C_R   0.542446 0.417857 0.935615 -0.227830
C27   C     C_3   0.443142 0.659570 0.927844 -0.493844
C28   C     C_3   0.442673 0.659301 0.069556 -0.491089
C29   C     C_R   0.091912 0.578166 0.540015 -0.306215
C30   C     C_R   0.906994 0.575486 0.443615 -0.306893
C31   C     C_R   0.184275 0.580078 0.545817 0.465055
C32   C     C_R   0.814287 0.577903 0.442122 0.483062
C33   C     C_R   0.231660 0.500205 0.504506 -0.126278
C34   C     C_R   0.768042 0.500301 0.492988 -0.128073
H1    H     H_    0.553720 0.352276 0.115253 0.170049
H2    H     H_    0.553780 0.352194 0.886499 0.162371
H3    H     H_    0.630957 0.931319 0.585149 0.154214
H4    H     H_    0.370643 0.934847 0.421825 0.160303
H5    H     H_    0.467681 0.726850 0.887388 0.199063
H6    H     H_    0.379798 0.631060 0.108979 0.194859
H7    H     H_    0.380523 0.632110 0.885692 0.203629
H8    H     H_    0.467024 0.726302 0.111480 0.202275
H9    H     H_    0.054542 0.640133 0.566731 0.136715
H10   H     H_    0.944459 0.635099 0.408919 0.140107
H11   H     H_    0.222475 0.356996 0.433405 0.177128
H12   H     H_    0.778089 0.361009 0.576809 0.174851
H13   H     H_    0.061272 0.355012 0.427441 0.142714
H14   H     H_    0.939329 0.358760 0.577015 0.142763
H15   H     H_    0.426508 0.069189 0.326995 0.133174
H16   H     H_    0.575808 0.070415 0.674799 0.129643
H17   H     H_    0.425783 0.242612 0.331148 0.125320
H18   H     H_    0.574838 0.243984 0.668555 0.117467
N1    N     N_R   0.500000 0.252470 0.500000 -0.089633
N2    N     N_R   0.500000 0.747550 0.500000 -0.163006
O1    O     O_R   0.369060 0.579480 0.500010 -0.516456
O2    O     O_R   0.630940 0.579480 0.499990 -0.519781
O3    O     O_R   0.369050 0.420520 0.500010 -0.637358
O4    O     O_R   0.630950 0.420520 0.499990 -0.641161
O5    O     O_R   0.499990 0.579490 0.316780 -0.606295
O6    O     O_R   0.500010 0.579490 0.683220 -0.622820
O7    O     O_R   0.499980 0.420540 0.316780 -0.636757
O8    O     O_R   0.500020 0.420540 0.683220 -0.632409
Zn1   Zn    Zn3+2 0.500000 0.606140 0.500000 1.030620
Zn2   Zn    Zn3+2 0.500000 0.393860 0.500000 0.932609
O9    O     O_3   0.642327 0.744225 0.596634 -0.577933
C35   C     C_3   0.660314 0.765284 0.723659 0.082982
H19   H     H_    0.598057 0.772853 0.779056 0.111925
H20   H     H_    0.699699 0.831516 0.730196 0.127427
C36   C     C_3   0.715153 0.684753 0.780079 -0.263010
H21   H     H_    0.676812 0.617940 0.773566 0.218258
H22   H     H_    0.777559 0.676091 0.725793 0.226704
C37   C     C_3   0.738618 0.703566 0.917157 -1.023539
H23   H     H_    0.780513 0.767812 0.924473 0.268615
H24   H     H_    0.776485 0.642893 0.956112 0.267313
H25   H     H_    0.677295 0.713178 0.973364 0.268108
O10   O     O_3   0.358377 0.743639 0.401305 -0.577300
C38   C     C_3   0.312316 0.786538 0.299834 0.085376
H26   H     H_    0.298542 0.730888 0.229597 0.152111
H27   H     H_    0.351671 0.841164 0.249268 0.108000
C39   C     C_3   0.221925 0.823979 0.343147 -0.316793
H28   H     H_    0.180407 0.764052 0.375924 0.252369
H29   H     H_    0.230444 0.873421 0.422861 0.211449
C40   C     C_3   0.172954 0.874201 0.236519 -0.994652
H30   H     H_    0.211985 0.936037 0.203985 0.266873
H31   H     H_    0.107233 0.899134 0.270027 0.269364
H32   H     H_    0.162055 0.825250 0.156640 0.270964
O11   O     O_3   0.228358 0.662607 0.577644 -0.612298
C41   C     C_3   0.213106 0.685241 0.704619 0.072382
H33   H     H_    0.234323 0.626016 0.766836 0.119001
H34   H     H_    0.141677 0.701215 0.721072 0.132109
C42   C     C_3   0.267318 0.773067 0.737736 -0.282590
H35   H     H_    0.339323 0.757751 0.726373 0.222329
H36   H     H_    0.249486 0.831211 0.672152 0.221291
C43   C     C_3   0.249762 0.805290 0.871975 -1.010233
H37   H     H_    0.179246 0.827290 0.882034 0.267610
H38   H     H_    0.293221 0.866309 0.894760 0.269878
H39   H     H_    0.264020 0.747665 0.939793 0.267994
O12   O     O_3   0.767782 0.658261 0.405281 -0.603980
C44   C     C_3   0.795432 0.694145 0.287733 0.085487
H40   H     H_    0.735239 0.700623 0.227261 0.168084
H41   H     H_    0.842409 0.647633 0.235929 0.111893
C45   C     C_3   0.835445 0.792517 0.305991 -0.321170
H42   H     H_    0.786490 0.838232 0.354604 0.239221
H43   H     H_    0.896057 0.787947 0.365729 0.208533
C46   C     C_3   0.859789 0.837859 0.180990 -0.986080
H44   H     H_    0.906705 0.792210 0.128645 0.268714
H45   H     H_    0.892203 0.907055 0.198154 0.266569
H46   H     H_    0.798881 0.849692 0.123683 0.267203

loop_
_geom_bond_atom_site_label_1
_geom_bond_atom_site_label_2
_ccdc_geom_bond_type
C15   C18   A    
C35   H20   S    
O11   C41   S    
C7    C29   A    
O7    Zn2   S    
C14   C18   A    
C1    C33   S    
C7    C8    S    
C4    H12   S    
C38   H26   S    
C5    H13   S    
C6    H14   S    
C13   C18   S    
O6    Zn1   S    
C24   C26   A    
C36   H21   S    
C39   C40   S    
C45   H43   S    
N1    Zn2   S    
C35   C36   S    
N2    Zn1   S    
C3    C33   A    
C45   C46   S    
C36   H22   S    
C9    C13   A    
O8    Zn2   S    
C44   H40   S    
C27   H5    S    
O1    Zn1   S    
C17   O10   S    
C31   C33   A    
C20   O6    A    
C12   N1    A    
C11   N1    A    
C2    C34   S    
C35   H19   S    
C21   C22   A    
C29   H9    S    
C30   H10   S    
C43   H37   S    
C37   H25   S    
C12   H18   S    
C38   H27   S    
O4    Zn2   S    
C46   H46   S    
C4    C34   A    
C31   O11   S    
C20   C24   S    
C9    H15   S    
O10   C38   S    
C37   H24   S    
C42   H35   S    
C5    C7    A    
C37   H23   S    
C6    C8    A    
C43   H39   S    
C19   O5    A    
C25   C26   A    
C3    H11   S    
C32   C34   A    
C36   C37   S    
C19   C23   S    
C15   H4    S    
C1    O3    A    
C42   H36   S    
C46   H45   S    
C27   H7    S    
C40   H30   S    
C41   C42   S    
C44   C45   S    
O2    Zn1   S    
C43   H38   S    
C9    C11   A    
C10   C12   A    
C25   H1    S    
C4    C6    A    
C44   H41   S    
C21   C28   S    
C41   H34   S    
O12   C44   S    
C22   C27   S    
C21   C23   A    
C14   C16   A    
C10   H16   S    
O3    Zn2   S    
C38   C39   S    
C26   H2    S    
C15   C17   A    
C40   H31   S    
C39   H28   S    
C3    C5    A    
C10   C13   A    
C2    O4    A    
C46   H44   S    
O5    Zn1   S    
C8    C30   A    
C1    O1    A    
C29   C31   A    
C2    O2    A    
C42   C43   S    
C30   C32   A    
C19   O7    A    
C28   H8    S    
C39   H29   S    
C32   O12   S    
C22   C24   A    
C23   C25   A    
C20   O8    A    
C45   H42   S    
C16   N2    A    
C11   H17   S    
C40   H32   S    
C41   H33   S    
O9    C35   S    
C27   C28   S    
C28   H6    S    
C16   O9    S    
C17   N2    A    
C14   H3    S    
