data_mof_unit_1431.cif
_audit_creation_date              2012-12-10T16:53:10-0500
_audit_creation_method            fapswitch 2.2
_symmetry_space_group_name_H-M    P1
_symmetry_Int_Tables_number       1
_space_group_crystal_system       triclinic
_cell_length_a                    10.776376
_cell_length_b                    10.930576
_cell_length_c                    9.751108
_cell_angle_alpha                 90.259573
_cell_angle_beta                  90.336864
_cell_angle_gamma                 90.176863
_cell_volume                      1148.56527679

loop_
_atom_site_label
_atom_site_type_symbol
_atom_type_description
_atom_site_fract_x
_atom_site_fract_y
_atom_site_fract_z
_atom_type_partial_charge
C1    C     C_R   0.501225 0.265556 0.499857 0.845240
C2    C     C_R   0.066523 0.608119 0.553901 0.052483
C3    C     C_R   0.128679 0.505100 0.498862 -0.109615
C4    C     C_R   0.062050 0.405174 0.443230 0.157780
C5    C     C_R   0.933295 0.408016 0.444200 -0.193367
C6    C     C_R   0.870733 0.507244 0.500907 -0.136013
C7    C     C_2   0.500064 0.932549 0.387731 -0.146541
C8    C     C_2   0.491805 0.866516 0.502866 -0.327058
C9    C     C_2   0.494308 0.066525 0.387478 -0.160889
C10   C     C_2   0.507082 0.133551 0.502017 -0.324181
C11   C     C_2   0.481066 0.403689 0.924430 0.024228
C12   C     C_R   0.262824 0.500863 0.499658 0.803200
C13   C     C_2   0.504205 0.401499 0.077097 -0.095250
C14   C     C_R   0.498442 0.734472 0.500314 0.821902
C15   C     C_R   0.737090 0.502096 0.500308 0.797330
C16   C     C_R   0.131721 0.711638 0.604643 -0.158614
C17   C     C_R   0.068170 0.812455 0.656655 -0.131393
C18   C     C_R   0.939112 0.812840 0.658176 -0.137823
C19   C     C_R   0.872892 0.712481 0.607509 -0.172179
C20   C     C_R   0.935504 0.608875 0.555315 0.093916
Cu1   Cu    Cu3+1 0.500020 0.500020 0.638630 0.934651
Cu2   Cu    Cu3+1 0.499980 0.499980 0.361370 0.936536
H1    H     H_    0.524724 0.093001 0.601188 0.143255
H2    H     H_    0.523202 0.313988 0.124359 0.148594
H3    H     H_    0.456022 0.573618 0.110887 0.217993
H4    H     H_    0.119318 0.890982 0.694980 0.131741
H5    H     H_    0.890058 0.891636 0.697687 0.132204
H6    H     H_    0.772708 0.717674 0.608133 0.127742
H7    H     H_    0.509655 0.887508 0.288836 0.164045
H8    H     H_    0.481286 0.110684 0.288871 0.156621
N1    N     N_2   0.498640 0.498660 0.846910 -0.133149
N2    N     N_2   0.498610 0.498630 0.153040 -0.286970
O1    O     O_R   0.500020 0.321960 0.617040 -0.588412
O2    O     O_R   0.499980 0.321920 0.382900 -0.581143
O3    O     O_R   0.319670 0.500020 0.617100 -0.572062
O4    O     O_R   0.319630 0.499980 0.382950 -0.570553
O5    O     O_R   0.500020 0.678080 0.617100 -0.599704
O6    O     O_R   0.499980 0.678040 0.382960 -0.576905
O7    O     O_R   0.680370 0.500020 0.617050 -0.585544
O8    O     O_R   0.680330 0.499980 0.382900 -0.561916
C21   C     C_3   0.126683 0.293774 0.385988 -0.842108
H9    H     H_    0.059589 0.221636 0.353891 0.223073
H10   H     H_    0.181946 0.319378 0.294772 0.247042
H11   H     H_    0.189081 0.254125 0.465088 0.219715
H12   H     H_    0.449549 0.319195 0.876995 0.119316
C22   C     C_3   0.577771 0.598675 0.895742 -0.482757
H13   H     H_    0.635978 0.632800 0.811336 0.223841
H14   H     H_    0.520126 0.676916 0.929920 0.151571
H15   H     H_    0.645869 0.570231 0.975291 0.175291
H16   H     H_    0.231901 0.716562 0.603307 0.137963
H17   H     H_    0.880763 0.331436 0.402548 0.143981
H18   H     H_    0.477041 0.907795 0.602443 0.142891

loop_
_geom_bond_atom_site_label_1
_geom_bond_atom_site_label_2
_ccdc_geom_bond_type
Cu1   O3    S    
Cu1   O1    S    
C10   H1    S    
C12   O4    A    
C6    C20   A    
C21   H9    S    
C8    H18   S    
C13   N2    D    
C19   C20   A    
Cu1   O7    S    
Cu2   O8    S    
Cu1   N1    S    
H3    N2    S    
C17   C18   A    
C11   N1    D    
C7    C8    D    
Cu1   Cu2   S    
C14   O5    A    
C19   H6    S    
C21   H10   S    
C22   H15   S    
C15   O7    A    
C16   C17   A    
Cu2   N2    S    
C9    H8    S    
C7    H7    S    
C17   H4    S    
C16   H16   S    
C1    O2    A    
C2    C3    A    
C5    C6    A    
Cu2   O2    S    
C21   H11   S    
C22   H14   S    
C15   O8    A    
C11   H12   S    
C14   O6    A    
C4    C21   S    
C1    C10   S    
C1    O1    A    
C3    C4    A    
Cu2   O6    S    
C11   C13   S    
C2    C16   A    
Cu1   O5    S    
C18   C19   A    
C9    C10   D    
C7    C9    S    
C22   H13   S    
C5    H17   S    
C8    C14   S    
C3    C12   S    
C6    C15   S    
C2    C20   A    
Cu2   O4    S    
C18   H5    S    
C13   H2    S    
C4    C5    A    
C12   O3    A    
N1    C22   S    
