data_mof_unit_1655.cif
_audit_creation_date              2012-12-10T20:34:14-0500
_audit_creation_method            fapswitch 2.2
_symmetry_space_group_name_H-M    P1
_symmetry_Int_Tables_number       1
_space_group_crystal_system       triclinic
_cell_length_a                    9.93403
_cell_length_b                    10.703163
_cell_length_c                    13.59275
_cell_angle_alpha                 90.535727
_cell_angle_beta                  84.152663
_cell_angle_gamma                 90.011721
_cell_volume                      1437.67341561

loop_
_atom_site_label
_atom_site_type_symbol
_atom_type_description
_atom_site_fract_x
_atom_site_fract_y
_atom_site_fract_z
_atom_type_partial_charge
C1    C     C_R   0.501010 0.739201 0.493613 0.867911
C2    C     C_3   0.244485 0.933339 0.513546 -0.175792
C3    C     C_R   0.919144 0.559265 0.573488 0.068049
C4    C     C_R   0.476932 0.499613 0.685439 0.897482
C5    C     C_R   0.937314 0.448039 0.424470 -0.050860
C6    C     C_R   0.080684 0.444381 0.424986 0.002637
C7    C     C_R   0.060720 0.559591 0.573443 -0.063634
C8    C     C_3   0.053396 0.540284 0.683457 -0.142280
C9    C     C_3   0.896773 0.537457 0.683172 -0.166354
C10   C     C_R   0.500164 0.260575 0.500157 0.883533
C11   C     C_R   0.522900 0.497264 0.314613 0.875391
C12   C     C_1   0.460467 0.493404 0.788885 -0.098253
C13   C     C_1   0.536082 0.472321 0.212755 -0.127034
C14   C     C_2   0.528942 0.420953 0.025752 0.007453
C15   C     C_2   0.430847 0.478659 0.980889 -0.030209
C16   C     C_1   0.445035 0.486528 0.876395 -0.024255
C17   C     C_1   0.537998 0.447037 0.127427 0.031554
C18   C     C_2   0.314712 0.548571 0.033229 0.438005
C19   C     C_2   0.158499 0.369114 0.347258 0.467500
C20   C     C_2   0.114306 0.417101 0.712016 0.569856
C21   C     C_2   0.109805 0.654213 0.732520 0.547194
C22   C     C_2   0.830559 0.412800 0.710600 0.527989
C23   C     C_R   0.390616 0.935158 0.534342 0.083144
C24   C     C_2   0.820652 0.645084 0.735873 0.307287
C25   C     C_R   0.633126 0.336598 0.973569 0.091993
C26   C     C_R   0.769696 0.346515 0.991890 -0.124824
C27   C     C_R   0.866103 0.263010 0.947311 -0.086974
C28   C     C_R   0.827431 0.168742 0.884229 -0.085439
C29   C     C_R   0.692081 0.157446 0.865923 -0.119274
C30   C     C_R   0.595141 0.240377 0.910672 -0.176775
C31   C     C_2   0.734564 0.877343 0.387821 0.397792
C32   C     C_R   0.219258 0.886931 0.410881 0.195289
C33   C     C_R   0.297603 0.927909 0.324845 -0.160318
C34   C     C_R   0.502598 0.871573 0.488093 -0.207008
C35   C     C_R   0.272347 0.882180 0.231831 -0.153482
C36   C     C_R   0.168686 0.795797 0.223441 -0.040845
C37   C     C_R   0.090183 0.754866 0.308032 -0.043479
C38   C     C_R   0.114645 0.800885 0.401129 -0.065494
C39   C     C_R   0.619079 0.937704 0.448705 -0.037010
C40   C     C_R   0.618753 0.066852 0.458860 -0.174071
C41   C     C_R   0.502612 0.128764 0.500891 -0.142996
C42   C     C_R   0.391015 0.062595 0.541833 0.077640
C43   C     C_3   0.245354 0.074725 0.524307 -0.480047
H1    H     H_    0.705004 0.120014 0.426783 0.212273
H2    H     H_    0.766428 0.404702 0.779552 0.100388
H3    H     H_    0.773785 0.716167 0.694122 0.095557
H4    H     H_    0.801690 0.418933 0.040571 0.160460
H5    H     H_    0.970859 0.271336 0.961819 0.190105
H6    H     H_    0.902313 0.104448 0.849579 0.149908
H7    H     H_    0.662118 0.084006 0.817407 0.151856
H8    H     H_    0.490278 0.228384 0.897322 0.152026
H9    H     H_    0.725262 0.784291 0.357109 0.083358
H10   H     H_    0.378085 0.995176 0.329509 0.141843
H11   H     H_    0.332971 0.914033 0.166175 0.145753
H12   H     H_    0.182345 0.108954 0.591425 0.200136
H13   H     H_    0.148550 0.761286 0.151325 0.151170
H14   H     H_    0.009202 0.688595 0.301427 0.134831
H15   H     H_    0.050597 0.770764 0.465539 0.110139
H16   H     H_    0.230086 0.126426 0.455775 0.202824
H17   H     H_    0.179335 0.888217 0.574519 0.140006
H18   H     H_    0.889351 0.402412 0.365801 0.173576
H19   H     H_    0.260156 0.615656 0.992864 0.112803
H20   H     H_    0.253145 0.326338 0.360246 0.105215
H21   H     H_    0.152931 0.350144 0.655613 0.069963
H22   H     H_    0.086201 0.747022 0.707647 0.005649
N1    N     N_R   0.857130 0.500860 0.500650 -0.094720
N2    N     N_R   0.142770 0.500820 0.500650 -0.156534
O1    O     O_R   0.385310 0.683210 0.499990 -0.604561
O2    O     O_2   0.114999 0.350313 0.267577 -0.556378
O3    O     O_2   0.115603 0.389656 0.798891 -0.585662
O4    O     O_2   0.180432 0.644361 0.800452 -0.570744
O5    O     O_2   0.849936 0.320446 0.657483 -0.596557
O6    O     O_2   0.810162 0.652533 0.826033 -0.564122
O7    O     O_2   0.841216 0.932941 0.368625 -0.581827
O8    O     O_R   0.614650 0.683240 0.500000 -0.643395
O9    O     O_R   0.368820 0.499950 0.640340 -0.614381
O10   O     O_R   0.598170 0.499990 0.640350 -0.628973
O11   O     O_R   0.385350 0.316760 0.500000 -0.664980
O12   O     O_R   0.614690 0.316790 0.500010 -0.585263
O13   O     O_R   0.401830 0.500010 0.359650 -0.609671
O14   O     O_R   0.631180 0.500050 0.359660 -0.636764
O15   O     O_2   0.274975 0.528862 0.119640 -0.551411
Zn1   Zn    Zn3+2 0.346870 0.499980 0.499990 0.935990
Zn2   Zn    Zn3+2 0.653130 0.500020 0.500010 0.959122

loop_
_geom_bond_atom_site_label_1
_geom_bond_atom_site_label_2
_ccdc_geom_bond_type
C27   H5    S    
C15   C18   S    
C30   H8    S    
N2    Zn1   S    
C41   C42   A    
C35   C36   A    
C31   H9    S    
C10   O11   A    
C7    C8    S    
C11   O14   A    
C6    C19   S    
C26   C27   A    
C29   C30   A    
C23   C42   A    
C21   O4    D    
C3    C9    S    
C28   C29   A    
C3    C7    A    
O12   Zn2   S    
C2    H17   S    
C24   O6    D    
C15   C16   S    
C1    O1    A    
C2    C32   S    
C33   C35   A    
C38   H15   S    
O11   Zn1   S    
C12   C16   T    
C19   H20   S    
C8    C9    S    
C32   C38   A    
C4    C12   S    
C43   H16   S    
C35   H11   S    
C14   C17   S    
C20   O3    D    
O13   Zn1   S    
O9    Zn1   S    
C22   O5    D    
C1    C34   S    
C29   H7    S    
C33   H10   S    
C34   C39   A    
C1    O8    A    
C39   C40   A    
C18   H19   S    
C31   O7    D    
O10   Zn2   S    
C25   C26   A    
N1    Zn2   S    
C20   H21   S    
C37   C38   A    
C36   H13   S    
C28   H6    S    
C2    C43   S    
C23   C34   A    
C8    C21   S    
C5    H18   S    
C8    C20   S    
C26   H4    S    
C43   H12   S    
C6    N2    A    
C19   O2    D    
C3    N1    A    
C42   C43   S    
C2    C23   S    
O14   Zn2   S    
C25   C30   A    
C40   C41   A    
C21   H22   S    
O1    Zn1   S    
C5    N1    A    
C10   O12   A    
C9    C24   S    
C13   C17   T    
C24   H3    S    
C32   C33   A    
C4    O10   A    
C11   C13   S    
C5    C6    A    
C18   O15   D    
C31   C39   S    
C14   C25   S    
O8    Zn2   S    
C4    O9    A    
C11   O13   A    
C7    N2    A    
C40   H1    S    
C22   H2    S    
C36   C37   A    
C9    C22   S    
C27   C28   A    
C14   C15   D    
C37   H14   S    
C10   C41   S    
