data_mof_unit_3755.cif
_audit_creation_date              2012-12-11T15:36:05-0500
_audit_creation_method            fapswitch 2.2
_symmetry_space_group_name_H-M    P1
_symmetry_Int_Tables_number       1
_space_group_crystal_system       triclinic
_cell_length_a                    6.992452
_cell_length_b                    11.976252
_cell_length_c                    35.904499
_cell_angle_alpha                 90.034681
_cell_angle_beta                  91.037938
_cell_angle_gamma                 89.829194
_cell_volume                      3006.25648033

loop_
_atom_site_label
_atom_site_type_symbol
_atom_type_description
_atom_site_fract_x
_atom_site_fract_y
_atom_site_fract_z
_atom_type_partial_charge
O1    O     O_R   0.379730 0.148600 0.662710 -0.532179
O2    O     O_R   0.620270 0.851400 0.337290 -0.532174
O3    O     O_R   0.120270 0.648600 0.337290 -0.546983
O4    O     O_R   0.879730 0.351400 0.662710 -0.546986
O5    O     O_R   0.722480 0.134490 0.741330 -0.542677
O6    O     O_R   0.277520 0.865510 0.258670 -0.542684
O7    O     O_R   0.777520 0.634490 0.258670 -0.520097
O8    O     O_R   0.222480 0.365510 0.741330 -0.520099
O9    O     O_R   0.892880 0.345890 0.741600 -0.543152
O10   O     O_R   0.107120 0.654110 0.258400 -0.543145
O11   O     O_R   0.607120 0.845890 0.258400 -0.525553
O12   O     O_R   0.392880 0.154110 0.741600 -0.525549
C1    C     C_R   0.553949 0.113589 0.754481 0.743163
C2    C     C_R   0.446052 0.886416 0.245521 0.743175
C3    C     C_R   0.946747 0.612100 0.245833 0.734591
C4    C     C_R   0.053252 0.387907 0.754165 0.734588
O13   O     O_R   0.709490 0.135560 0.662990 -0.548867
O14   O     O_R   0.290510 0.864440 0.337010 -0.548870
O15   O     O_R   0.790510 0.635560 0.337010 -0.533262
O16   O     O_R   0.209490 0.364440 0.662990 -0.533251
C5    C     C_R   0.540113 0.107692 0.650978 0.734655
C6    C     C_R   0.459886 0.892307 0.349023 0.734684
C7    C     C_R   0.960401 0.607552 0.348951 0.713976
C8    C     C_R   0.039599 0.392446 0.651048 0.713993
O17   O     O_3   0.552800 0.316610 0.702160 -0.366530
O18   O     O_3   0.447200 0.683390 0.297840 -0.366526
O19   O     O_3   0.947200 0.816610 0.297840 -0.365349
O20   O     O_3   0.052800 0.183390 0.702160 -0.365343
V1    V     V_3+5 0.827630 0.234380 0.702160 1.478787
V2    V     V_3+5 0.172370 0.765620 0.297840 1.478775
V3    V     V_3+5 0.672370 0.734380 0.297840 1.532105
V4    V     V_3+5 0.327630 0.265620 0.702160 1.532113
C9    C     C_R   0.036237 0.656893 0.915480 0.533447
C10   C     C_R   0.963907 0.343209 0.084495 0.533474
C11   C     C_R   0.519771 0.161056 0.086564 0.530499
C12   C     C_R   0.480365 0.839010 0.913457 0.530501
O21   O     O_2   0.081620 0.549547 0.922711 -0.551993
O22   O     O_2   0.918555 0.450560 0.077265 -0.551990
O23   O     O_2   0.573712 0.054598 0.080529 -0.551549
O24   O     O_2   0.426447 0.945471 0.919492 -0.551549
N1    N     N_R   0.015779 0.694200 0.879193 -0.540858
N2    N     N_R   0.984321 0.305896 0.120782 -0.540876
N3    N     N_R   0.483785 0.198772 0.122233 -0.542334
N4    N     N_R   0.516313 0.801288 0.877787 -0.542343
C13   C     C_R   0.985920 0.807077 0.873205 0.565923
C14   C     C_R   0.014184 0.193019 0.126770 0.565919
C15   C     C_R   0.452513 0.312037 0.127187 0.554641
C16   C     C_R   0.547585 0.688023 0.872834 0.554629
C17   C     C_R   0.095401 0.650847 0.812699 -0.106434
C18   C     C_R   0.904564 0.349218 0.187270 -0.106394
C19   C     C_R   0.516988 0.153447 0.191080 -0.096204
C20   C     C_R   0.483013 0.846591 0.808940 -0.096223
C21   C     C_R   0.099091 0.580367 0.781514 -0.035557
C22   C     C_R   0.900868 0.419669 0.218463 -0.035566
C23   C     C_R   0.504201 0.080174 0.221439 -0.028865
C24   C     C_R   0.495781 0.919847 0.778577 -0.028893
C25   C     C_R   0.971617 0.431901 0.819456 -0.235249
C26   C     C_R   0.028422 0.568155 0.180539 -0.235225
C27   C     C_R   0.411724 0.932797 0.178707 -0.242053
C28   C     C_R   0.588315 0.067241 0.821298 -0.242023
C29   C     C_R   0.961133 0.504781 0.849844 -0.051731
C30   C     C_R   0.038927 0.495299 0.150144 -0.051776
C31   C     C_R   0.418203 0.007570 0.148899 -0.064277
C32   C     C_R   0.581855 0.992483 0.851110 -0.064291
C33   C     C_R   0.026486 0.616108 0.847529 0.363971
C34   C     C_R   0.973554 0.383975 0.152448 0.363935
C35   C     C_R   0.476121 0.119894 0.153884 0.356389
C36   C     C_R   0.523931 0.880158 0.846133 0.356366
C37   C     C_R   0.003026 0.846140 0.939566 -0.030525
C38   C     C_R   0.997124 0.153962 0.060408 -0.030548
C39   C     C_R   0.489367 0.348822 0.061103 -0.028702
C40   C     C_R   0.510773 0.651243 0.938919 -0.028682
C41   C     C_R   0.016652 0.730740 0.945906 -0.039544
C42   C     C_R   0.983505 0.269363 0.054069 -0.039512
C43   C     C_R   0.507736 0.233466 0.055559 -0.039647
C44   C     C_R   0.492414 0.766600 0.944463 -0.039624
C45   C     C_R   0.017048 0.691450 0.982552 -0.110655
C46   C     C_R   0.983127 0.308654 0.017423 -0.110650
C47   C     C_R   0.519750 0.192583 0.019188 -0.111435
C48   C     C_R   0.480418 0.807484 0.980834 -0.111418
C49   C     C_R   0.994878 0.884303 0.902739 -0.012898
C50   C     C_R   0.005258 0.115796 0.097235 -0.012899
C51   C     C_R   0.469926 0.388279 0.097539 -0.014337
C52   C     C_R   0.530198 0.611784 0.902483 -0.014296
C53   C     C_R   0.043017 0.467987 0.785308 -0.095286
C54   C     C_R   0.956981 0.532046 0.214682 -0.095292
C55   C     C_R   0.456801 0.967626 0.214945 -0.087221
C56   C     C_R   0.543204 0.032395 0.785063 -0.087204
H1    H     H_    0.922398 0.346746 0.822579 0.111932
H2    H     H_    0.077664 0.653309 0.177426 0.111939
H3    H     H_    0.368285 0.847322 0.173477 0.107221
H4    H     H_    0.631767 0.152717 0.826521 0.107218
H5    H     H_    0.897498 0.472959 0.874747 0.152442
H6    H     H_    0.102594 0.527136 0.125247 0.152450
H7    H     H_    0.371519 0.975954 0.122209 0.156611
H8    H     H_    0.628567 0.024110 0.877797 0.156624
H9    H     H_    0.024978 0.602813 0.988412 0.158866
H10   H     H_    0.975205 0.397290 0.011563 0.158860
H11   H     H_    0.531409 0.103764 0.013893 0.158446
H12   H     H_    0.468770 0.896303 0.986129 0.158442
C57   C     C_R   0.002218 0.959879 0.037322 0.050260
C58   C     C_R   0.997942 0.040224 0.962652 0.050311
C59   C     C_R   0.513898 0.458299 0.962981 0.055304
C60   C     C_R   0.486248 0.541767 0.037041 0.055363
C61   C     C_R   0.996980 0.117483 0.992927 0.008772
C62   C     C_R   0.003186 0.882620 0.007046 0.008764
C63   C     C_R   0.492244 0.617658 0.006438 0.008904
C64   C     C_R   0.507909 0.382408 0.993584 0.008908
C65   C     C_R   0.999313 0.076781 0.030074 0.075470
C66   C     C_R   0.000847 0.923322 0.969900 0.075515
C67   C     C_R   0.506117 0.575409 0.969600 0.081715
C68   C     C_R   0.494030 0.424656 0.030422 0.081754
C69   C     C_R   0.003253 0.924579 0.074926 -0.146403
C70   C     C_R   0.996899 0.075523 0.925048 -0.146408
C71   C     C_R   0.526702 0.421451 0.925645 -0.141301
C72   C     C_R   0.473432 0.578613 0.074377 -0.141281
C73   C     C_R   0.004777 0.000922 0.104091 -0.114331
C74   C     C_R   0.995362 0.999177 0.895883 -0.114410
C75   C     C_R   0.534717 0.496583 0.896207 -0.125280
C76   C     C_R   0.465406 0.503480 0.103815 -0.125350
O25   O     O_2   0.059593 0.153907 0.160978 -0.527806
O26   O     O_2   0.940479 0.846188 0.838998 -0.527825
O27   O     O_2   0.603147 0.647247 0.839813 -0.532298
O28   O     O_2   0.396922 0.352810 0.160206 -0.532286
C77   C     C_R   0.007951 0.765301 0.012447 -0.165343
C78   C     C_R   0.992226 0.234802 0.987528 -0.165367
C79   C     C_R   0.516953 0.264960 0.988845 -0.163231
C80   C     C_R   0.483216 0.735106 0.011177 -0.163262
H13   H     H_    0.854767 0.265702 0.190936 0.160399
H14   H     H_    0.145158 0.734366 0.809019 0.160433
H15   H     H_    0.440800 0.763011 0.802352 0.167467
H16   H     H_    0.559183 0.237025 0.197676 0.167483
H17   H     H_    0.004859 0.968978 0.132321 0.152082
H18   H     H_    0.995265 0.031120 0.867652 0.152084
H19   H     H_    0.543563 0.463394 0.868208 0.148391
H20   H     H_    0.456545 0.536667 0.131814 0.148399
H21   H     H_    0.003153 0.838192 0.083099 0.107308
H22   H     H_    0.996994 0.161909 0.916874 0.107303
H23   H     H_    0.531208 0.334714 0.917908 0.106340
H24   H     H_    0.468917 0.665350 0.082114 0.106333
H25   H     H_    0.009036 0.726859 0.039517 0.134508
H26   H     H_    0.991154 0.273245 0.960458 0.134506
H27   H     H_    0.526489 0.225360 0.962043 0.132536
H28   H     H_    0.473696 0.774707 0.037979 0.132534
C81   C     C_R   0.969980 0.529156 0.380005 -0.037690
C82   C     C_R   0.030013 0.470838 0.619993 -0.037679
C83   C     C_R   0.532574 0.028913 0.619988 -0.034809
C84   C     C_R   0.467421 0.971086 0.380012 -0.034802
C85   C     C_R   0.934168 0.342790 0.404237 -0.180038
C86   C     C_R   0.065695 0.657214 0.595761 -0.180046
C87   C     C_R   0.590022 0.844631 0.595394 -0.182640
C88   C     C_R   0.409918 0.155361 0.404607 -0.182653
C89   C     C_R   0.939460 0.415438 0.374059 -0.162688
C90   C     C_R   0.060430 0.584565 0.625939 -0.162667
C91   C     C_R   0.580504 0.916947 0.625637 -0.149913
C92   C     C_R   0.419451 0.083046 0.374364 -0.149898
C93   C     C_R   0.995768 0.570536 0.416103 -0.228137
C94   C     C_R   0.004284 0.429449 0.583894 -0.228138
C95   C     C_R   0.496750 0.069213 0.584042 -0.235803
C96   C     C_R   0.503265 0.930788 0.415958 -0.235819
C97   C     C_R   0.987749 0.499093 0.447394 0.085870
C98   C     C_R   0.012229 0.500900 0.552604 0.085876
C99   C     C_R   0.512984 0.998742 0.552607 0.086141
C100  C     C_R   0.486998 0.001255 0.447394 0.086141
C101  C     C_R   0.956211 0.383590 0.440723 0.128835
C102  C     C_R   0.043699 0.616408 0.559276 0.128838
C103  C     C_R   0.558439 0.884583 0.559046 0.129663
C104  C     C_R   0.441515 0.115412 0.440955 0.129662
C105  C     C_R   0.006735 0.538617 0.484890 0.052181
C106  C     C_R   0.993230 0.461377 0.515108 0.052179
C107  C     C_R   0.489500 0.038130 0.515181 0.052026
C108  C     C_R   0.510474 0.961867 0.484820 0.052028
C109  C     C_R   0.961717 0.347281 0.506822 -0.196936
C110  C     C_R   0.038195 0.652718 0.493176 -0.196939
C111  C     C_R   0.552508 0.848692 0.492908 -0.195929
C112  C     C_R   0.447441 0.151301 0.507093 -0.195933
C113  C     C_R   0.944152 0.309613 0.470420 -0.198376
C114  C     C_R   0.055724 0.690389 0.529579 -0.198374
C115  C     C_R   0.575623 0.811288 0.529233 -0.196202
C116  C     C_R   0.424314 0.188704 0.470768 -0.196203
H29   H     H_    0.919603 0.221396 0.465491 0.141076
H30   H     H_    0.080210 0.778612 0.534507 0.141074
H31   H     H_    0.609230 0.723924 0.534003 0.141992
H32   H     H_    0.390681 0.276064 0.465998 0.141992
H33   H     H_    0.983794 0.340673 0.581428 0.094867
H34   H     H_    0.016374 0.659301 0.418569 0.094881
H35   H     H_    0.536818 0.843241 0.418233 0.095653
H36   H     H_    0.463241 0.156767 0.581767 0.095648
H37   H     H_    0.081398 0.616883 0.653862 0.143859
H38   H     H_    0.918435 0.383128 0.346136 0.143875
H39   H     H_    0.387580 0.114082 0.346615 0.137381
H40   H     H_    0.612353 0.885908 0.653387 0.137378
H41   H     H_    0.909818 0.254710 0.399093 0.131884
H42   H     H_    0.089972 0.745302 0.600905 0.131876
H43   H     H_    0.626684 0.757805 0.600339 0.131418
H44   H     H_    0.373229 0.242183 0.399663 0.131418
H45   H     H_    0.948931 0.283866 0.527819 0.130319
H46   H     H_    0.050922 0.716139 0.472180 0.130316
H47   H     H_    0.569576 0.785845 0.471810 0.130135
H48   H     H_    0.430348 0.214145 0.528191 0.130135
C117  C     C_2   0.855297 0.369374 0.255018 0.744744
O29   O     O_2   0.762481 0.420872 0.277884 -0.566455
O30   O     O_R   0.920476 0.261530 0.263271 -0.641728
H49   H     H_    0.887186 0.237107 0.289388 0.303513
C118  C     C_2   0.144645 0.630629 0.744952 0.744708
O31   O     O_2   0.237470 0.579114 0.722092 -0.566478
O32   O     O_R   0.079454 0.738463 0.736688 -0.641723
H50   H     H_    0.112764 0.762870 0.710571 0.303495
C119  C     C_2   0.469393 0.874092 0.740380 0.738209
O33   O     O_2   0.392152 0.929756 0.715839 -0.580087
O34   O     O_R   0.533714 0.766094 0.732527 -0.634931
H51   H     H_    0.510526 0.744315 0.705533 0.303461
C120  C     C_2   0.530559 0.125909 0.259639 0.738159
O35   O     O_2   0.607789 0.070234 0.284178 -0.580115
O36   O     O_R   0.466234 0.233903 0.267496 -0.634925
H52   H     H_    0.489421 0.255673 0.294491 0.303441

loop_
_geom_bond_atom_site_label_1
_geom_bond_atom_site_label_2
_ccdc_geom_bond_type
C26   C30   A    
C103  C115  A    
C107  C108  A    
C94   H33   S    
O1    C5    A    
C50   C73   A    
C96   C100  A    
O13   V1    S    
C105  C106  A    
O3    C7    A    
C10   N2    A    
C40   C44   A    
C73   H17   S    
C11   N3    A    
C16   O27   S    
C28   C56   A    
C118  O31   D    
C7    C81   S    
C62   C77   A    
C11   C43   A    
C18   C22   A    
C17   C33   A    
C61   C78   A    
C32   C36   A    
C47   H11   S    
O20   V1    S    
C38   C65   A    
O9    C4    A    
C2    C55   S    
O10   C3    A    
N2    C14   A    
O4    C8    A    
O11   C2    A    
C113  H29   S    
C24   C56   A    
C57   C65   A    
C86   C102  A    
C31   H7    S    
C101  C113  A    
C58   C61   A    
C59   C67   A    
C84   C96   A    
C87   H43   S    
C5    C83   S    
C85   C89   A    
C86   H42   S    
C61   C65   A    
C12   C44   A    
C85   H41   S    
C98   C102  A    
C88   C92   A    
C77   H25   S    
C82   C90   A    
C46   H10   S    
C21   C118  S    
C105  C110  A    
C14   O25   S    
C45   H9    S    
C59   C64   A    
C102  C114  A    
C15   C51   A    
C83   C91   A    
C110  C114  A    
C115  H31   S    
O4    V1    S    
C20   C36   A    
C108  C111  A    
O9    V1    S    
C97   C105  A    
O17   V4    S    
C118  O32   S    
C40   C67   A    
O15   V3    S    
O18   V3    S    
O8    C4    A    
C60   C72   A    
O12   V4    S    
O19   V2    S    
C23   C55   A    
C21   C53   A    
C117  O30   S    
C112  H48   S    
C26   C54   A    
C12   N4    A    
C88   C104  A    
C95   H36   S    
O16   V4    S    
C39   C51   A    
C89   H38   S    
C120  O36   S    
O17   V1    S    
C48   H12   S    
C31   C35   A    
C110  H46   S    
O7    V3    S    
C88   H44   S    
C107  C112  A    
C109  H45   S    
O32   H50   S    
O8    V4    S    
C14   C50   A    
C12   O24   S    
C85   C101  A    
C93   H34   S    
C32   H8    S    
C29   H5    S    
C60   C68   A    
C30   C34   A    
O15   C7    A    
C19   C35   A    
C99   C107  A    
C48   C80   A    
C19   C23   A    
C120  O35   D    
O19   V3    S    
C49   C74   A    
C78   H26   S    
O1    V4    S    
O13   C5    A    
C16   C52   A    
O2    V3    S    
C76   H20   S    
C51   C76   A    
O3    V2    S    
C11   O23   S    
O36   H52   S    
C38   C42   A    
C59   C71   A    
C58   C70   A    
C18   H13   S    
C29   C33   A    
O6    C2    A    
C26   H2    S    
C37   C66   A    
O10   V2    S    
O34   H51   S    
C98   C106  A    
O20   V4    S    
C99   C103  A    
C39   C68   A    
C81   C93   A    
C119  O33   D    
C79   H27   S    
C37   C41   A    
C80   H28   S    
C111  H47   S    
C40   C52   A    
C25   H1    S    
C10   C42   A    
C3    C54   S    
C69   C73   A    
C100  C104  A    
C9    C41   A    
O6    V2    S    
C90   H37   S    
C6    C84   S    
O18   V2    S    
C71   C75   A    
C30   H6    S    
C86   C90   A    
O14   V2    S    
C95   C99   A    
C27   H3    S    
N4    C36   S    
C46   C78   A    
O5    V1    S    
C93   C97   A    
C45   C77   A    
C22   C54   A    
C83   C95   A    
C62   C66   A    
C64   C68   A    
C57   C62   A    
C100  C108  A    
C47   C79   A    
C70   C74   A    
N1    C13   A    
C10   O22   S    
C20   H15   S    
C63   C67   A    
C13   C49   A    
C44   C48   A    
C71   H23   S    
N3    C15   A    
C74   H18   S    
C63   C80   A    
C111  C115  A    
C19   H16   S    
C18   C34   A    
C25   C29   A    
C82   C94   A    
C87   C103  A    
C13   O26   S    
C114  H30   S    
C22   C117  S    
C17   H14   S    
C27   C31   A    
C87   C91   A    
C96   H35   S    
C117  O29   D    
C9    O21   S    
C28   C32   A    
C9    N1    A    
O14   C6    A    
C81   C89   A    
C24   C119  S    
N4    C16   A    
C104  C116  A    
O2    C6    A    
C58   C66   A    
C39   C43   A    
C15   O28   S    
C4    C53   S    
C20   C24   A    
C52   C75   A    
C17   C21   A    
O5    C1    A    
C1    C56   S    
O7    C3    A    
C119  O34   S    
C25   C53   A    
C23   C120  S    
C69   H21   S    
C70   H22   S    
C64   C79   A    
N1    C33   S    
C57   C69   A    
C38   C50   A    
C27   C55   A    
C75   H19   S    
C37   C49   A    
C91   H40   S    
C94   C98   A    
O11   V3    S    
C92   H39   S    
C72   C76   A    
C112  C116  A    
O12   C1    A    
N3    C35   S    
C42   C46   A    
N2    C34   S    
C41   C45   A    
C8    C82   S    
C84   C92   A    
O30   H49   S    
C109  C113  A    
C28   H4    S    
C43   C47   A    
O16   C8    A    
C60   C63   A    
C97   C101  A    
C116  H32   S    
C72   H24   S    
C106  C109  A    
