data_mof_unit_2920.cif
_audit_creation_date              2012-12-10T19:33:18-0500
_audit_creation_method            fapswitch 2.2
_symmetry_space_group_name_H-M    P1
_symmetry_Int_Tables_number       1
_space_group_crystal_system       triclinic
_cell_length_a                    26.480759
_cell_length_b                    15.72516
_cell_length_c                    14.931488
_cell_angle_alpha                 89.077251
_cell_angle_beta                  89.915319
_cell_angle_gamma                 89.973633
_cell_volume                      6216.86950625

loop_
_atom_site_label
_atom_site_type_symbol
_atom_type_description
_atom_site_fract_x
_atom_site_fract_y
_atom_site_fract_z
_atom_type_partial_charge
C1    C     C_R   0.500044 0.337575 0.500703 0.901088
C2    C     C_R   0.868293 0.283008 0.488224 -0.043122
C3    C     C_3   0.448110 0.720221 0.999746 -0.889274
C4    C     C_3   0.535556 0.341760 0.072249 -0.398528
C5    C     C_3   0.550209 0.279681 0.999250 -0.888571
C6    C     C_R   0.298111 0.264331 0.603978 0.130459
C7    C     C_R   0.320457 0.193556 0.563440 -0.117329
C8    C     C_R   0.320587 0.114416 0.607538 -0.133024
C9    C     C_R   0.298479 0.105313 0.692144 -0.116994
C10   C     C_R   0.276548 0.175506 0.733147 -0.165114
C11   C     C_R   0.276878 0.254909 0.689749 -0.166368
C12   C     C_R   0.707032 0.273010 0.613591 0.131501
C13   C     C_R   0.353380 0.465212 0.504345 -0.068203
C14   C     C_R   0.696192 0.274189 0.705701 -0.122301
C15   C     C_R   0.699921 0.199595 0.757546 -0.151219
C16   C     C_R   0.714296 0.123421 0.717803 -0.094599
C17   C     C_R   0.724784 0.121676 0.626093 -0.160224
C18   C     C_R   0.720915 0.196045 0.574022 -0.172574
C19   C     C_3   0.678901 0.579618 0.393717 -0.411911
C20   C     C_3   0.669542 0.557386 0.295988 -0.811765
C21   C     C_3   0.317112 0.598843 0.431410 -0.426386
C22   C     C_3   0.327983 0.667812 0.499614 -0.865905
C23   C     C_R   0.780071 0.500622 0.413772 0.116318
C24   C     C_R   0.647020 0.464608 0.501974 -0.088301
C25   C     C_R   0.796882 0.471645 0.330495 -0.116496
C26   C     C_R   0.840429 0.506118 0.291315 -0.147960
C27   C     C_R   0.867460 0.569381 0.335190 -0.108942
C28   C     C_R   0.850962 0.598279 0.418315 -0.139492
C29   C     C_R   0.807422 0.563961 0.457675 -0.170192
C30   C     C_R   0.215780 0.523020 0.466822 0.102986
C31   C     C_R   0.195810 0.585436 0.522895 -0.104659
C32   C     C_R   0.150720 0.626629 0.500115 -0.154128
C33   C     C_R   0.125378 0.605650 0.421431 -0.108682
C34   C     C_R   0.145139 0.543521 0.365339 -0.138048
C35   C     C_R   0.974759 0.265374 0.507793 0.007084
C36   C     C_R   0.190247 0.502259 0.387864 -0.171358
C37   C     C_3   0.871016 0.167359 0.365373 -0.341232
C38   C     C_3   0.839237 0.098025 0.411039 -0.825027
C39   C     C_3   0.128123 0.425026 0.807305 -0.344202
C40   C     C_3   0.159050 0.356474 0.855850 -0.819688
C41   C     C_R   0.025484 0.347919 0.649228 0.007256
C42   C     C_R   0.972048 0.352127 0.643169 0.069292
C43   C     C_R   0.028452 0.269011 0.508613 0.068358
C44   C     C_R   0.946966 0.312218 0.570996 0.069190
C45   C     C_R   0.053485 0.312476 0.578504 0.069203
C46   C     C_R   0.947869 0.217818 0.444463 -0.260357
C47   C     C_R   0.499616 0.662468 0.499278 0.910120
C48   C     C_R   0.051934 0.379979 0.723118 -0.260768
C49   C     C_R   0.895451 0.225134 0.433699 0.190930
C50   C     C_R   0.104345 0.391208 0.722180 0.191864
C51   C     C_R   0.404793 0.498037 0.500349 0.883912
C52   C     C_R   0.595274 0.497269 0.500066 0.869768
C53   C     C_R   0.058030 0.234935 0.438917 -0.225462
C54   C     C_R   0.942995 0.399731 0.703974 -0.226369
C55   C     C_3   0.532580 0.969238 0.553753 0.017688
C56   C     C_3   0.461291 0.031181 0.444642 0.019859
C57   C     C_3   0.543041 0.028568 0.471951 -0.293644
C58   C     C_R   0.106725 0.323332 0.575917 -0.084441
C59   C     C_3   0.450805 0.971723 0.526471 -0.298210
C60   C     C_1   0.499524 0.248962 0.502386 -0.190948
C61   C     C_1   0.497855 0.751148 0.497402 -0.189238
C62   C     C_3   0.487919 0.025047 0.582894 0.018992
C63   C     C_3   0.505951 0.975351 0.415482 0.017661
C64   C     C_3   0.497860 0.083224 0.501495 0.106322
C65   C     C_3   0.496029 0.917046 0.496951 0.106843
C66   C     C_1   0.498864 0.173866 0.502916 -0.064553
C67   C     C_1   0.496495 0.826284 0.496279 -0.063827
C68   C     C_3   0.546531 0.484874 0.968691 -0.248910
C69   C     C_R   0.893939 0.321766 0.560358 -0.086705
C70   C     C_3   0.452557 0.515340 0.031224 -0.245233
C71   C     C_3   0.530765 0.562067 0.025998 0.029789
C72   C     C_3   0.468269 0.438151 0.973812 0.032722
C73   C     C_3   0.515735 0.425729 0.032809 0.194412
C74   C     C_3   0.483325 0.574414 0.967015 0.195681
C75   C     C_R   0.185824 0.310935 0.494919 0.520066
C76   C     C_R   0.815831 0.389288 0.605450 0.521285
C77   C     C_3   0.500425 0.502579 0.089872 -0.025994
C78   C     C_3   0.498690 0.497616 0.910025 -0.026484
C79   C     C_1   0.500061 0.500953 0.189870 0.016889
C80   C     C_R   0.134460 0.291795 0.502856 -0.003625
C81   C     C_1   0.499582 0.499144 0.810103 0.023756
C82   C     C_R   0.183189 0.390524 0.629472 0.498465
C83   C     C_R   0.816986 0.305692 0.473621 0.507022
C84   C     C_R   0.262252 0.476599 0.492658 -0.006327
C85   C     C_R   0.735436 0.461529 0.457627 -0.003289
C86   C     C_R   0.310691 0.512157 0.476529 0.085706
C87   C     C_R   0.687064 0.500028 0.451037 0.089021
C88   C     C_R   0.348119 0.384196 0.543340 -0.294216
C89   C     C_R   0.654568 0.390618 0.553693 -0.291875
C90   C     C_R   0.300862 0.349109 0.559697 0.032241
C91   C     C_R   0.866824 0.372630 0.620729 -0.004933
C92   C     C_R   0.701422 0.351214 0.558056 0.032099
C93   C     C_R   0.257602 0.395992 0.535807 0.223619
C94   C     C_R   0.742403 0.387710 0.511771 0.215364
C95   C     C_R   0.570644 0.930737 0.617395 0.115798
C96   C     C_R   0.622496 0.946794 0.606997 -0.152390
C97   C     C_R   0.657227 0.910390 0.666781 -0.140246
C98   C     C_R   0.640478 0.858187 0.737371 -0.116150
C99   C     C_R   0.588926 0.842166 0.748336 -0.135510
C100  C     C_R   0.554101 0.878249 0.688594 -0.128142
C101  C     C_R   0.423263 0.069860 0.381045 0.117375
C102  C     C_R   0.109974 0.245780 0.436577 -0.156406
C103  C     C_R   0.372071 0.047128 0.385848 -0.189699
C104  C     C_R   0.337129 0.084657 0.327253 -0.121239
C105  C     C_R   0.353114 0.144388 0.262970 -0.103523
C106  C     C_R   0.404158 0.166201 0.256693 -0.141860
C107  C     C_R   0.439166 0.128893 0.315260 -0.126653
C108  C     C_R   0.512979 0.945481 0.321045 0.122137
C109  C     C_R   0.556216 0.967665 0.271414 -0.168446
C110  C     C_R   0.560947 0.942626 0.182333 -0.144213
C111  C     C_R   0.522663 0.895354 0.142365 -0.098456
C112  C     C_R   0.479727 0.872514 0.191631 -0.146424
C113  C     C_R   0.891440 0.409260 0.693073 -0.153481
C114  C     C_R   0.474862 0.897424 0.280630 -0.127297
C115  C     C_R   0.480529 0.056127 0.676786 0.117362
C116  C     C_R   0.436272 0.037209 0.724993 -0.157905
C117  C     C_R   0.430795 0.064459 0.813159 -0.136762
C118  C     C_R   0.469438 0.110441 0.853742 -0.103002
C119  C     C_R   0.513448 0.129904 0.805921 -0.146691
C120  C     C_R   0.518990 0.102999 0.717740 -0.128086
C121  C     C_R   0.566933 0.633417 0.046111 0.124743
C122  C     C_R   0.594753 0.670753 0.975565 -0.162707
C123  C     C_R   0.627810 0.738039 0.991730 -0.140120
C124  C     C_R   0.131955 0.368421 0.644220 -0.043808
C125  C     C_R   0.633306 0.768859 0.078341 -0.120300
C126  C     C_R   0.605610 0.732602 0.148826 -0.140655
C127  C     C_R   0.572469 0.665345 0.132967 -0.165073
C128  C     C_R   0.431336 0.367884 0.953422 0.119657
C129  C     C_R   0.405094 0.328185 0.024472 -0.161594
C130  C     C_R   0.370713 0.262884 0.007947 -0.145689
C131  C     C_R   0.362084 0.236714 0.920388 -0.122655
C132  C     C_R   0.387939 0.275654 0.849234 -0.111975
C133  C     C_R   0.422574 0.340659 0.865516 -0.159570
C134  C     C_3   0.463663 0.658330 0.927156 -0.398703
H1    H     H_    0.381492 0.348708 0.563675 0.156165
H2    H     H_    0.959202 0.434622 0.758343 0.137822
H3    H     H_    0.580021 0.055073 0.450463 0.136978
H4    H     H_    0.413817 0.945359 0.548091 0.129570
H5    H     H_    0.636237 0.987143 0.552925 0.122634
H6    H     H_    0.697181 0.922560 0.658375 0.119874
H7    H     H_    0.667480 0.830134 0.783446 0.116548
H8    H     H_    0.575941 0.801752 0.803037 0.127239
H9    H     H_    0.514233 0.865378 0.697786 0.131404
H10   H     H_    0.359056 0.000270 0.434334 0.118444
H11   H     H_    0.297639 0.067355 0.331645 0.141664
H12   H     H_    0.623152 0.362065 0.589992 0.163958
H13   H     H_    0.325968 0.173447 0.217843 0.123969
H14   H     H_    0.416615 0.212049 0.206545 0.125861
H15   H     H_    0.478632 0.146254 0.309623 0.133328
H16   H     H_    0.586035 0.004882 0.300899 0.122745
H17   H     H_    0.594250 0.960064 0.144167 0.126902
H18   H     H_    0.526378 0.876262 0.073344 0.139234
H19   H     H_    0.450015 0.836021 0.160812 0.135390
H20   H     H_    0.441146 0.880108 0.317809 0.129261
H21   H     H_    0.406155 0.001037 0.695050 0.116737
H22   H     H_    0.396631 0.049716 0.850126 0.124579
H23   H     H_    0.585212 0.471794 0.943626 0.149321
H24   H     H_    0.465181 0.131153 0.922118 0.141042
H25   H     H_    0.543436 0.165417 0.837171 0.135952
H26   H     H_    0.553450 0.117950 0.681611 0.136662
H27   H     H_    0.590736 0.647859 0.907916 0.123565
H28   H     H_    0.649126 0.766360 0.937081 0.122107
H29   H     H_    0.658789 0.821132 0.090770 0.121017
H30   H     H_    0.609528 0.757067 0.215817 0.145668
H31   H     H_    0.550978 0.639969 0.188566 0.147227
H32   H     H_    0.411243 0.347915 0.092758 0.121464
H33   H     H_    0.350719 0.232600 0.063036 0.124623
H34   H     H_    0.413887 0.528403 0.056345 0.148851
H35   H     H_    0.335625 0.185911 0.907784 0.120981
H36   H     H_    0.381566 0.254847 0.781418 0.158282
H37   H     H_    0.442378 0.368333 0.809182 0.144572
H38   H     H_    0.417380 0.692646 0.041706 0.256932
H39   H     H_    0.480792 0.735288 0.042948 0.265521
H40   H     H_    0.434298 0.780228 0.968153 0.248517
H41   H     H_    0.493530 0.687824 0.884614 0.200087
H42   H     H_    0.430488 0.644958 0.884189 0.210340
H43   H     H_    0.517031 0.264870 0.957121 0.263988
H44   H     H_    0.580590 0.306980 0.956283 0.255624
H45   H     H_    0.130652 0.220761 0.380126 0.181747
H46   H     H_    0.564164 0.219590 0.030454 0.249165
H47   H     H_    0.569181 0.354976 0.114167 0.208817
H48   H     H_    0.506049 0.312522 0.115758 0.200007
H49   H     H_    0.338067 0.199921 0.498153 0.152626
H50   H     H_    0.338101 0.060194 0.576572 0.119143
H51   H     H_    0.298788 0.044073 0.726274 0.117984
H52   H     H_    0.260024 0.168741 0.799210 0.129163
H53   H     H_    0.262039 0.309338 0.724139 0.170906
H54   H     H_    0.684923 0.332799 0.737223 0.144336
H55   H     H_    0.691568 0.200813 0.828494 0.128826
H56   H     H_    0.871207 0.448434 0.740204 0.184164
H57   H     H_    0.717075 0.065709 0.757980 0.123899
H58   H     H_    0.735528 0.062588 0.595139 0.124066
H59   H     H_    0.727714 0.193238 0.502711 0.168891
H60   H     H_    0.701912 0.521661 0.268220 0.250833
H61   H     H_    0.634825 0.518431 0.289648 0.271442
H62   H     H_    0.664765 0.616746 0.255797 0.246601
H63   H     H_    0.646389 0.617245 0.418419 0.193183
H64   H     H_    0.711954 0.622733 0.397907 0.209047
H65   H     H_    0.296847 0.671384 0.549237 0.259945
H66   H     H_    0.363945 0.654907 0.535397 0.250940
H67   H     H_    0.967090 0.172468 0.403232 0.135838
H68   H     H_    0.331267 0.730373 0.464540 0.245472
H69   H     H_    0.348375 0.596626 0.381826 0.211770
H70   H     H_    0.283035 0.617463 0.392634 0.219044
H71   H     H_    0.776435 0.422206 0.296288 0.158037
H72   H     H_    0.853327 0.483574 0.227109 0.130672
H73   H     H_    0.901235 0.595871 0.304879 0.122422
H74   H     H_    0.872020 0.647024 0.452396 0.130846
H75   H     H_    0.795186 0.586155 0.522485 0.153585
H76   H     H_    0.214769 0.601268 0.584615 0.153569
H77   H     H_    0.135289 0.674499 0.543669 0.130254
H78   H     H_    0.032271 0.395634 0.783866 0.136421
H79   H     H_    0.090397 0.637416 0.404013 0.123618
H80   H     H_    0.125424 0.527161 0.304563 0.132044
H81   H     H_    0.205101 0.453826 0.344296 0.159618
H82   H     H_    0.863715 0.056716 0.453632 0.242256
H83   H     H_    0.809268 0.125465 0.453645 0.273531
H84   H     H_    0.821132 0.058199 0.359434 0.238550
H85   H     H_    0.848896 0.204071 0.315145 0.244035
H86   H     H_    0.900096 0.134441 0.324797 0.169717
H87   H     H_    0.134107 0.302985 0.876919 0.241885
H88   H     H_    0.189274 0.331318 0.812371 0.268975
H89   H     H_    0.042064 0.203213 0.382203 0.137370
H90   H     H_    0.176704 0.383624 0.916425 0.242762
H91   H     H_    0.150630 0.483173 0.793965 0.245923
H92   H     H_    0.098671 0.446254 0.855178 0.169749
N1    N     N_R   0.208245 0.362646 0.555381 -0.334500
N2    N     N_R   0.792671 0.358514 0.531317 -0.333489
N3    N     N_1   0.500020 0.500000 0.268010 -0.093513
N4    N     N_1   0.499980 0.500000 0.731990 -0.090959
O1    O     O_R   0.500000 0.376780 0.574460 -0.616743
O2    O     O_2   0.789736 0.438497 0.662644 -0.589832
O3    O     O_2   0.791683 0.278262 0.401545 -0.614922
O4    O     O_2   0.207700 0.442115 0.685865 -0.605148
O5    O     O_R   0.500000 0.623220 0.425540 -0.608606
O6    O     O_R   0.500010 0.376780 0.425520 -0.605095
O7    O     O_R   0.499990 0.623220 0.574480 -0.607303
O8    O     O_R   0.428750 0.500010 0.574460 -0.604878
O9    O     O_R   0.571250 0.499990 0.425540 -0.601690
O10   O     O_R   0.428760 0.500020 0.425520 -0.609130
O11   O     O_R   0.571240 0.499980 0.574480 -0.605125
O12   O     O_2   0.212787 0.281320 0.425228 -0.593134
Zn1   Zn    Zn3+2 0.499990 0.500000 0.599450 0.960016
Zn2   Zn    Zn3+2 0.500010 0.500000 0.400550 0.958466

loop_
_geom_bond_atom_site_label_1
_geom_bond_atom_site_label_2
_ccdc_geom_bond_type
C24   C52   S    
C63   C65   S    
C101  C107  A    
C126  C127  A    
C76   N2    A    
C95   C96   A    
C41   C42   A    
C38   H84   S    
C99   H8    S    
C104  C105  A    
C111  C112  A    
C21   H70   S    
C24   C89   A    
C96   H5    S    
C112  C114  A    
C97   C98   A    
C7    C8    A    
C26   H72   S    
C108  C109  A    
C113  H56   S    
C46   C49   A    
C26   C27   A    
C122  H27   S    
C134  H42   S    
C129  H32   S    
C40   H90   S    
C11   H53   S    
C23   C29   A    
C22   H66   S    
C28   C29   A    
C2    C49   A    
C84   C86   A    
C56   C101  S    
C121  C127  A    
C9    H51   S    
C68   C71   S    
C36   H81   S    
C30   C31   A    
C25   H71   S    
C3    H38   S    
C123  C125  A    
C106  C107  A    
C1    O6    A    
C15   C16   A    
C105  H13   S    
C54   C113  A    
O10   Zn2   S    
C106  H14   S    
C116  C117  A    
C85   C94   A    
C108  C114  A    
C21   H69   S    
C110  C111  A    
C79   N3    T    
C39   H92   S    
C62   C64   S    
N4    Zn1   S    
C103  C104  A    
C52   O9    A    
C13   C51   S    
C130  H33   S    
C43   C53   A    
C46   H67   S    
C48   H78   S    
C16   C17   A    
C116  H21   S    
C13   C86   A    
C70   C74   S    
C72   C78   S    
C56   C64   S    
O9    Zn2   S    
C4    H47   S    
C20   H62   S    
C2    C69   A    
C35   C43   A    
C75   C80   A    
C32   H77   S    
C97   H6    S    
C27   H73   S    
C90   C93   A    
C94   N2    S    
C27   C28   A    
C8    H50   S    
C48   C50   A    
C15   H55   S    
C60   C66   T    
C101  C103  A    
C47   O7    A    
C21   C22   S    
C111  H18   S    
C70   C77   S    
C102  H45   S    
C38   H83   S    
C2    C83   A    
C125  H29   S    
C132  H36   S    
C126  H30   S    
C82   C124  A    
C118  C119  A    
C55   C65   S    
C3    H39   S    
C57   C63   S    
C47   O5    A    
C83   N2    A    
C77   C79   S    
C17   H58   S    
C68   C78   S    
C89   H12   S    
C5    H44   S    
C45   C58   A    
C19   H63   S    
C122  C123  A    
C121  C122  A    
C134  H41   S    
O7    Zn1   S    
C85   C87   A    
C105  C106  A    
C83   O3    S    
C22   H65   S    
C50   C124  A    
C61   C67   T    
C128  C129  A    
C55   C95   S    
C110  H17   S    
C34   H80   S    
C1    C60   S    
C6    C11   A    
C123  H28   S    
C22   H68   S    
C95   C100  A    
C8    C9    A    
C59   H4    S    
C65   C67   S    
C68   C73   S    
C6    C90   S    
O8    Zn1   S    
C91   C113  A    
C80   C102  A    
O11   Zn1   S    
C64   C66   S    
O1    Zn1   S    
C5    H46   S    
C76   O2    S    
C37   C38   S    
C16   H57   S    
C70   H34   S    
C14   H54   S    
C128  C133  A    
C93   N1    S    
C3    H40   S    
C130  C131  A    
C99   C100  A    
C12   C14   A    
C53   C102  A    
C127  H31   S    
C54   H2    S    
C96   C97   A    
C117  H22   S    
C92   C94   A    
C17   C18   A    
C4    C73   S    
C56   C63   S    
C57   H3    S    
C44   C69   A    
C89   C92   A    
C35   C44   A    
C43   C45   A    
C5    H43   S    
C37   C49   S    
C51   O10   A    
C39   C40   S    
C1    O1    A    
C72   C128  S    
C115  C120  A    
C69   C91   A    
C112  H19   S    
C55   C57   S    
C98   H7    S    
C74   C78   S    
C125  C126  A    
C28   H74   S    
C118  H24   S    
C37   H85   S    
C12   C18   A    
C131  C132  A    
C71   C77   S    
C57   C64   S    
C129  C130  A    
C9    C10   A    
N3    Zn2   S    
C21   C86   S    
C131  H35   S    
C59   C62   S    
C88   C90   A    
C20   H61   S    
C19   H64   S    
C104  H11   S    
C12   C92   S    
C31   C32   A    
C88   H1    S    
C38   H82   S    
C72   C73   S    
C100  H9    S    
C47   C61   S    
C71   C74   S    
C119  C120  A    
C29   H75   S    
C6    C7    A    
C7    H49   S    
C53   H89   S    
C82   N1    A    
C58   C124  A    
C56   C59   S    
C30   C36   A    
C40   H87   S    
C81   N4    T    
C3    C134  S    
C32   C33   A    
O6    Zn2   S    
C19   C20   S    
C82   O4    S    
C109  H16   S    
C25   C26   A    
C42   C44   A    
C62   C115  S    
C75   O12   S    
C41   C45   A    
C117  C118  A    
C42   C54   A    
C33   H79   S    
C78   C81   S    
C31   H76   S    
C19   C87   S    
C74   C134  S    
C13   C88   A    
C75   N1    A    
C68   H23   S    
C10   H52   S    
C41   C48   A    
C33   C34   A    
C132  C133  A    
C51   O8    A    
C34   C36   A    
C84   C93   A    
C23   C25   A    
C30   C84   S    
C24   C87   A    
O5    Zn2   S    
C39   H91   S    
C10   C11   A    
C133  H37   S    
C76   C91   A    
C107  H15   S    
C109  C110  A    
C4    C5    S    
C39   C50   S    
C20   H60   S    
C55   C62   S    
C119  H25   S    
C98   C99   A    
C23   C85   S    
C40   H88   S    
C71   C121  S    
C120  H26   S    
C73   C77   S    
C14   C15   A    
C58   C80   A    
C70   C72   S    
C37   H86   S    
C4    H48   S    
C63   C108  S    
C52   O11   A    
C35   C46   A    
C114  H20   S    
C59   C65   S    
C115  C116  A    
C18   H59   S    
C103  H10   S    
