data_mof_unit_4070.cif
_audit_creation_date              2012-12-10T17:43:22-0500
_audit_creation_method            fapswitch 2.2
_symmetry_space_group_name_H-M    P1
_symmetry_Int_Tables_number       1
_space_group_crystal_system       triclinic
_cell_length_a                    15.104877
_cell_length_b                    13.72081
_cell_length_c                    10.617039
_cell_angle_alpha                 90.445935
_cell_angle_beta                  89.403458
_cell_angle_gamma                 89.995616
_cell_volume                      2200.20758387

loop_
_atom_site_label
_atom_site_type_symbol
_atom_type_description
_atom_site_fract_x
_atom_site_fract_y
_atom_site_fract_z
_atom_type_partial_charge
C1    C     C_R   0.328995 0.500018 0.500569 0.899533
C2    C     C_R   0.671006 0.499979 0.499466 0.899828
C3    C     C_R   0.953046 0.499799 0.501191 0.022133
C4    C     C_R   0.046958 0.499891 0.498922 0.022040
C5    C     C_R   0.906628 0.465613 0.394512 0.052858
C6    C     C_R   0.093362 0.534075 0.605624 0.052881
C7    C     C_R   0.954390 0.557057 0.720034 0.122062
C8    C     C_R   0.045596 0.442438 0.280144 0.122251
C9    C     C_R   0.046111 0.559896 0.714922 -0.158722
C10   C     C_R   0.953873 0.439620 0.285289 -0.158772
C11   C     C_R   0.452452 0.793435 0.589045 0.071599
C12   C     C_R   0.547543 0.206564 0.410952 0.071354
C13   C     C_R   0.547661 0.792354 0.411086 0.062927
C14   C     C_R   0.452364 0.207646 0.588944 0.062870
C15   C     C_R   0.546751 0.895630 0.405116 -0.018573
C16   C     C_R   0.453283 0.104369 0.594924 -0.018506
C17   C     C_R   0.453208 0.896797 0.594878 -0.021972
C18   C     C_R   0.546825 0.103201 0.405169 -0.022063
C19   C     C_R   0.500008 0.948233 0.500019 0.039560
C20   C     C_R   0.500021 0.051765 0.500020 0.039611
C21   C     C_R   0.591959 0.947013 0.308104 -0.071477
C22   C     C_R   0.408112 0.052990 0.691976 -0.071478
C23   C     C_R   0.407873 0.949400 0.691758 -0.076314
C24   C     C_R   0.592221 0.050598 0.308361 -0.076207
C25   C     C_R   0.500363 0.499682 0.259143 0.886145
C26   C     C_R   0.499652 0.500318 0.740856 0.886144
C27   C     C_3   0.427550 0.546388 0.043879 -0.093791
C28   C     C_3   0.572480 0.453615 0.956116 -0.094036
C29   C     C_3   0.500387 0.592818 0.960503 -0.086952
C30   C     C_3   0.499643 0.407184 0.039493 -0.086900
C31   C     C_3   0.426995 0.454444 0.958742 -0.134303
C32   C     C_3   0.573034 0.545558 0.041255 -0.134437
C33   C     C_3   0.499820 0.500844 0.877652 -0.045228
C34   C     C_3   0.500208 0.499157 0.122345 -0.045127
C35   C     C_R   0.813758 0.460756 0.397379 0.056226
C36   C     C_R   0.186224 0.539061 0.602723 0.056216
C37   C     C_R   0.767421 0.499691 0.501395 -0.132002
C38   C     C_R   0.232579 0.500271 0.498641 -0.132058
C39   C     C_R   0.812601 0.541411 0.604373 -0.083384
C40   C     C_R   0.187433 0.458531 0.395655 -0.083354
C41   C     C_R   0.905890 0.533696 0.609877 -0.015017
C42   C     C_R   0.094122 0.466016 0.390221 -0.014883
Cu1   Cu    Cu3+1 0.500000 0.597420 0.500000 0.999658
Cu2   Cu    Cu3+1 0.500000 0.402580 0.500000 0.999366
H1    H     H_    0.367302 0.417081 0.921896 0.191240
H2    H     H_    0.632726 0.582918 0.078103 0.191236
H3    H     H_    0.368271 0.584339 0.082796 0.198687
H4    H     H_    0.631762 0.415673 0.917192 0.198478
H5    H     H_    0.500888 0.668798 0.925425 0.222603
H6    H     H_    0.499146 0.331203 0.074571 0.222426
H7    H     H_    0.079809 0.578938 0.800731 0.213871
H8    H     H_    0.920165 0.420437 0.199548 0.213917
H9    H     H_    0.414067 0.751140 0.655121 0.185613
H10   H     H_    0.585891 0.248856 0.344823 0.185612
H11   H     H_    0.586422 0.749266 0.345358 0.169772
H12   H     H_    0.413619 0.250734 0.654692 0.169778
N1    N     N_R   0.500000 0.743810 0.500000 -0.216234
N2    N     N_R   0.500000 0.256190 0.500000 -0.216245
O1    O     O_R   0.370260 0.582280 0.500030 -0.568798
O2    O     O_R   0.629740 0.417720 0.499970 -0.568915
O3    O     O_R   0.629740 0.582280 0.499970 -0.585743
O4    O     O_R   0.370260 0.417720 0.500030 -0.586174
O5    O     O_R   0.499980 0.582260 0.316850 -0.592196
O6    O     O_R   0.500020 0.417740 0.683150 -0.592245
O7    O     O_R   0.500020 0.582260 0.683150 -0.564952
O8    O     O_R   0.499980 0.417740 0.316850 -0.565251
I1    I     I_    0.741073 0.400792 0.241051 -0.396623
I2    I     I_    0.258877 0.599091 0.759033 -0.396707
C43   C     C_2   0.763028 0.602246 0.697232 0.423315
H13   H     H_    0.787857 0.674004 0.722152 0.093232
O9    O     O_2   0.696168 0.571961 0.749157 -0.554098
C44   C     C_2   0.237146 0.397951 0.302672 0.423624
H14   H     H_    0.212729 0.325962 0.278085 0.093154
O10   O     O_2   0.303687 0.428673 0.250343 -0.554368
I3    I     I_    0.902624 0.571465 0.908052 -0.314641
I4    I     I_    0.097240 0.427417 0.092133 -0.314520
C45   C     C_2   0.635374 0.893840 0.201381 0.351400
H15   H     H_    0.701673 0.913581 0.170889 0.063752
O11   O     O_2   0.595830 0.830577 0.143180 -0.518675
C46   C     C_2   0.364727 0.106187 0.798703 0.351069
H16   H     H_    0.298401 0.086514 0.829166 0.063748
O12   O     O_2   0.404316 0.169420 0.856908 -0.518601
C47   C     C_2   0.363485 0.897517 0.797605 0.375559
H17   H     H_    0.296653 0.917129 0.826201 0.068581
O13   O     O_2   0.402706 0.835517 0.857123 -0.519719
C48   C     C_2   0.636764 0.102494 0.202689 0.375133
H18   H     H_    0.703721 0.083041 0.174548 0.068583
O14   O     O_2   0.597546 0.164337 0.142847 -0.519381

loop_
_geom_bond_atom_site_label_1
_geom_bond_atom_site_label_2
_ccdc_geom_bond_type
C14   H12   S    
C27   C29   S    
Cu2   O8    S    
C19   C20   A    
C9    H7    S    
C10   H8    S    
C1    O4    A    
C6    C9    A    
Cu1   O5    S    
C39   C41   A    
C29   H5    S    
C45   H15   S    
Cu2   O6    S    
C15   C19   A    
C17   C23   A    
C23   C47   S    
C18   C24   A    
C35   C37   A    
C8    C42   A    
C29   C32   S    
C1    O1    A    
C30   C31   S    
C48   O14   D    
C13   N1    A    
C29   C33   S    
C8    I4    S    
C25   O5    A    
C43   O9    D    
C26   O6    A    
C11   C17   A    
Cu2   N2    S    
C31   C33   S    
C18   C20   A    
C11   H9    S    
C2    O3    A    
Cu1   O1    S    
C25   C34   S    
C12   N2    A    
C40   C42   A    
C30   H6    S    
C28   H4    S    
C45   O11   D    
C27   C34   S    
C14   N2    A    
C30   C34   S    
C27   C31   S    
Cu1   O7    S    
C28   C32   S    
C46   O12   D    
C48   H18   S    
C46   H16   S    
C7    I3    S    
Cu2   O4    S    
C32   C34   S    
Cu1   Cu2   S    
C26   C33   S    
C47   H17   S    
C35   I1    S    
C16   C20   A    
C39   C43   S    
C1    C38   S    
C44   O10   D    
C47   O13   D    
C28   C33   S    
C13   C15   A    
C14   C16   A    
C4    C6    A    
C12   C18   A    
C3    C4    A    
Cu1   O3    S    
C27   H3    S    
C7    C9    A    
C3    C41   A    
C16   C22   A    
C40   C44   S    
C26   O7    A    
C32   H2    S    
C25   O8    A    
C44   H14   S    
C3    C5    A    
C36   I2    S    
C28   C30   S    
C22   C46   S    
C5    C10   A    
C37   C39   A    
C38   C40   A    
C2    C37   S    
C4    C42   A    
Cu2   O2    S    
C5    C35   A    
C36   C38   A    
C17   C19   A    
C6    C36   A    
C2    O2    A    
C7    C41   A    
C43   H13   S    
Cu1   N1    S    
C15   C21   A    
C8    C10   A    
C31   H1    S    
C21   C24   A    
C21   C45   S    
C22   C23   A    
C11   N1    A    
C24   C48   S    
C12   H10   S    
C13   H11   S    
