data_mof_unit_1952.cif
_audit_creation_date              2012-12-10T16:49:30-0500
_audit_creation_method            fapswitch 2.2
_symmetry_space_group_name_H-M    P1
_symmetry_Int_Tables_number       1
_space_group_crystal_system       triclinic
_cell_length_a                    19.335296
_cell_length_b                    8.690679
_cell_length_c                    7.443593
_cell_angle_alpha                 102.913314
_cell_angle_beta                  94.512605
_cell_angle_gamma                 92.358347
_cell_volume                      1213.16283396

loop_
_atom_site_label
_atom_site_type_symbol
_atom_type_description
_atom_site_fract_x
_atom_site_fract_y
_atom_site_fract_z
_atom_type_partial_charge
C1    C     C_R   0.497912 0.199700 0.453280 0.890519
C2    C     C_R   0.811844 0.489514 0.330541 -0.153600
C3    C     C_R   0.146313 0.500798 0.503568 0.060180
C4    C     C_R   0.853687 0.499202 0.496432 0.060180
C5    C     C_R   0.177866 0.491233 0.338313 -0.156096
C6    C     C_R   0.822134 0.508767 0.661687 -0.156096
C7    C     C_R   0.249740 0.491098 0.338556 -0.182373
C8    C     C_R   0.750260 0.508902 0.661444 -0.182373
C9    C     C_R   0.291615 0.500628 0.504076 -0.026308
C10   C     C_R   0.708385 0.499372 0.495924 -0.026308
C11   C     C_R   0.929843 0.499539 0.498037 0.411457
C12   C     C_R   0.502088 0.800300 0.546720 0.890518
C13   C     C_R   0.070156 0.500461 0.501963 0.411457
C14   C     C_2   0.496911 0.031879 0.426924 -0.370157
C15   C     C_2   0.503089 0.968121 0.573076 -0.370158
C16   C     C_R   0.367500 0.499999 0.501826 0.783533
C17   C     C_R   0.632500 0.500000 0.498174 0.783532
C18   C     C_R   0.260286 0.510472 0.669701 -0.189534
C19   C     C_R   0.739714 0.489528 0.330299 -0.189534
C20   C     C_R   0.188156 0.510486 0.669459 -0.153600
Cu1   Cu    Cu3+1 0.507710 0.517380 0.684380 0.950017
Cu2   Cu    Cu3+1 0.492290 0.482620 0.315620 0.950017
H1    H     H_    0.291380 0.517821 0.799234 0.148824
H2    H     H_    0.508915 0.039585 0.714002 0.179834
H3    H     H_    0.445077 0.379402 0.948622 0.223547
H4    H     H_    0.554923 0.620598 0.051377 0.223547
H5    H     H_    0.708620 0.482179 0.200766 0.148824
H6    H     H_    0.165305 0.517968 0.799151 0.149769
H7    H     H_    0.834695 0.482032 0.200849 0.149769
H8    H     H_    0.272391 0.483609 0.208552 0.150769
H9    H     H_    0.727609 0.516391 0.791448 0.150768
H10   H     H_    0.147150 0.483741 0.208220 0.155443
H11   H     H_    0.852850 0.516258 0.791779 0.155444
H12   H     H_    0.491085 0.960415 0.285998 0.179834
N1    N     N_R   0.029932 0.490980 0.341497 -0.231074
N2    N     N_R   0.970068 0.509020 0.658503 -0.231074
N3    N     N_R   0.961122 0.490533 0.339511 -0.234046
N4    N     N_R   0.038878 0.509467 0.660489 -0.234046
N5    N     N_2   0.480680 0.456420 0.038530 -0.218571
N6    N     N_2   0.519320 0.543580 0.961470 -0.218571
O1    O     O_R   0.505010 0.286130 0.619770 -0.581922
O2    O     O_R   0.494990 0.713870 0.380230 -0.581922
O3    O     O_R   0.491990 0.256780 0.308370 -0.583457
O4    O     O_R   0.508010 0.743220 0.691630 -0.583457
O5    O     O_R   0.406650 0.514660 0.655750 -0.590817
O6    O     O_R   0.593350 0.485340 0.344250 -0.590817
O7    O     O_R   0.393640 0.485310 0.344340 -0.585935
O8    O     O_R   0.606360 0.514690 0.655660 -0.585935

loop_
_geom_bond_atom_site_label_1
_geom_bond_atom_site_label_2
_ccdc_geom_bond_type
C16   O5    A    
C14   H12   S    
C2    C4    A    
C17   O8    A    
Cu1   O4    S    
C19   H5    S    
Cu1   O5    S    
Cu2   O3    S    
C3    C13   S    
C6    H11   S    
C10   C19   A    
Cu1   O8    S    
C5    H10   S    
N2    N4    A    
Cu2   O7    S    
C5    C7    A    
C3    C20   A    
C12   O4    A    
C7    H8    S    
Cu1   Cu2   S    
H3    N5    S    
C4    C11   S    
H4    N6    S    
C13   N4    A    
Cu2   O2    S    
Cu1   N6    S    
C2    H7    S    
Cu1   O1    S    
Cu2   N5    S    
C6    C8    A    
C16   O7    A    
C4    C6    A    
C15   H2    S    
N1    N3    A    
C9    C16   S    
C13   N1    A    
C12   C15   S    
C18   C20   A    
C10   C17   S    
C18   H1    S    
C7    C9    A    
C9    C18   A    
C17   O6    A    
C8    C10   A    
C1    O1    A    
N5    N6    D    
C11   N3    A    
C14   C15   D    
C11   N2    A    
C12   O2    A    
C1    C14   S    
C20   H6    S    
Cu2   O6    S    
C2    C19   A    
C8    H9    S    
C1    O3    A    
C3    C5    A    
