data_mof_unit_2007.cif
_audit_creation_date              2012-12-10T16:50:11-0500
_audit_creation_method            fapswitch 2.2
_symmetry_space_group_name_H-M    P1
_symmetry_Int_Tables_number       1
_space_group_crystal_system       triclinic
_cell_length_a                    7.815294
_cell_length_b                    8.616886
_cell_length_c                    10.667724
_cell_angle_alpha                 91.197305
_cell_angle_beta                  83.899796
_cell_angle_gamma                 93.283204
_cell_volume                      713.082106068

loop_
_atom_site_label
_atom_site_type_symbol
_atom_type_description
_atom_site_fract_x
_atom_site_fract_y
_atom_site_fract_z
_atom_type_partial_charge
C1    C     C_R   0.543844 0.793763 0.506537 0.920471
C2    C     C_R   0.454658 0.206082 0.505780 0.929664
C3    C     C_R   0.503138 0.507623 0.260217 0.999635
C4    C     C_R   0.359219 0.780839 0.893265 0.432733
C5    C     C_R   0.316822 0.908741 0.972219 -0.438813
C6    C     C_R   0.373299 0.922368 0.091775 0.484154
C7    C     C_R   0.462024 0.801919 0.135110 0.355944
C8    C     C_R   0.466582 0.657290 0.070594 -0.217763
C9    C     C_R   0.437155 0.651823 0.943019 0.007182
C10   C     C_R   0.497042 0.520543 0.871738 -0.067564
C11   C     C_R   0.566742 0.396308 0.926155 -0.322675
C12   C     C_R   0.572541 0.393742 0.054565 0.437883
C13   C     C_R   0.514388 0.521096 0.126482 -0.074413
C14   C     C_2   0.561544 0.957054 0.524800 0.204596
C15   C     C_2   0.429837 0.044022 0.500088 0.159358
C16   C     C_R   0.500092 0.510146 0.739216 0.898991
Cl1   Cl    Cl    0.626312 0.856590 0.229424 -0.560387
Cl2   Cl    Cl    0.229934 0.978752 0.443564 -0.486634
H1    H     H_    0.612527 0.298886 0.868326 0.164004
H2    H     H_    0.252362 0.004024 0.936536 0.161500
H3    H     H_    0.896174 0.674088 0.622051 0.343539
H4    H     H_    0.270175 0.880407 0.752302 0.341900
H5    H     H_    0.288196 0.129365 0.120321 0.346603
H6    H     H_    0.673417 0.191238 0.046903 0.357709
H7    H     H_    0.781445 0.940226 0.595572 0.353562
H8    H     H_    0.939948 0.337723 0.320688 0.374698
N1    N     N_2   0.950330 0.457950 0.466250 0.154330
N2    N     N_2   0.049670 0.542050 0.533750 0.212681
O1    O     O_R   0.389250 0.738570 0.508280 -0.561385
O2    O     O_3   0.324478 0.782861 0.769469 -0.740419
O3    O     O_3   0.354294 0.056143 0.164086 -0.653265
O4    O     O_3   0.635942 0.269703 0.111938 -0.707913
O5    O     O_3   0.706548 0.022933 0.574777 -0.734580
O6    O     O_3   0.032846 0.385938 0.367265 -0.602479
O7    O     O_R   0.678390 0.711630 0.486650 -0.646702
O8    O     O_R   0.355400 0.513470 0.694050 -0.547551
O9    O     O_R   0.644540 0.486530 0.672420 -0.626888
O10   O     O_R   0.321610 0.288370 0.513350 -0.570649
O11   O     O_R   0.610750 0.261430 0.491720 -0.562579
O12   O     O_R   0.355460 0.513470 0.327580 -0.575118
O13   O     O_R   0.644600 0.486530 0.305950 -0.587922
O14   O     O_3   0.974378 0.595144 0.643836 -0.618590
Zn1   Zn    Zn3+2 0.306930 0.517990 0.514440 1.166643
Zn2   Zn    Zn3+2 0.693070 0.482010 0.485560 1.096508

loop_
_geom_bond_atom_site_label_1
_geom_bond_atom_site_label_2
_ccdc_geom_bond_type
C8    C9    A    
C15   Cl2   S    
C11   C12   A    
H6    O4    S    
C6    C7    A    
O7    Zn2   S    
C9    C10   A    
C2    O10   A    
N2    Zn1   S    
C3    C13   S    
C16   O9    A    
C14   O5    S    
C1    O1    A    
C6    O3    S    
C7    C8    A    
C5    H2    S    
C10   C16   S    
C16   O8    A    
C2    C15   S    
C11   H1    S    
C8    C13   A    
O9    Zn2   S    
N1    Zn2   S    
N2    O14   S    
C3    O12   A    
N1    O6    S    
C5    C6    A    
O13   Zn2   S    
C4    O2    S    
C12   O4    S    
C10   C11   A    
O11   Zn2   S    
H3    O14   S    
O10   Zn1   S    
C12   C13   A    
C1    O7    A    
N1    N2    D    
C14   C15   D    
C3    O13   A    
O8    Zn1   S    
C1    C14   S    
H4    O2    S    
C4    C9    A    
C2    O11   A    
H8    O6    S    
O12   Zn1   S    
O1    Zn1   S    
H7    O5    S    
C4    C5    A    
C7    Cl1   S    
H5    O3    S    
