data_mof_unit_4306.cif
_audit_creation_date              2012-12-10T17:13:33-0500
_audit_creation_method            fapswitch 2.2
_symmetry_space_group_name_H-M    P1
_symmetry_Int_Tables_number       1
_space_group_crystal_system       triclinic
_cell_length_a                    27.76546
_cell_length_b                    10.778866
_cell_length_c                    9.991736
_cell_angle_alpha                 89.969251
_cell_angle_beta                  90.172707
_cell_angle_gamma                 90.032051
_cell_volume                      2990.31399542

loop_
_atom_site_label
_atom_site_type_symbol
_atom_type_description
_atom_site_fract_x
_atom_site_fract_y
_atom_site_fract_z
_atom_type_partial_charge
C1    C     C_R   0.501276 0.262615 0.499935 0.937299
C2    C     C_R   0.974267 0.392868 0.523853 0.056177
C3    C     C_R   0.974583 0.617930 0.479063 0.055909
C4    C     C_R   0.406029 0.500023 0.499791 0.872329
C5    C     C_R   0.949204 0.505656 0.501626 0.070325
C6    C     C_R   0.947310 0.285190 0.555076 -0.218985
C7    C     C_R   0.897411 0.286880 0.556112 -0.137994
C8    C     C_R   0.872491 0.396137 0.528019 -0.021884
C9    C     C_R   0.898178 0.506116 0.501827 -0.053967
C10   C     C_R   0.872728 0.616508 0.475762 -0.026567
C11   C     C_R   0.822358 0.614881 0.476600 0.532586
C12   C     C_R   0.278024 0.494355 0.620023 -0.101299
C13   C     C_R   0.822149 0.398289 0.526251 0.508330
C14   C     C_R   0.721760 0.519579 0.378298 0.156607
C15   C     C_R   0.671533 0.517778 0.379074 -0.272554
C16   C     C_R   0.499328 0.737407 0.499882 0.941439
C17   C     C_R   0.672166 0.487401 0.619989 -0.225268
C18   C     C_R   0.722131 0.490363 0.619701 -0.154938
C19   C     C_R   0.746971 0.506340 0.499386 0.333654
C20   C     C_R   0.025211 0.391367 0.515304 0.037086
C21   C     C_R   0.050800 0.504414 0.500249 0.069432
C22   C     C_R   0.025605 0.618144 0.486021 0.037121
C23   C     C_R   0.253121 0.501665 0.498628 0.319397
C24   C     C_R   0.051414 0.279617 0.519351 -0.274865
C25   C     C_R   0.102379 0.729401 0.481406 0.144946
C26   C     C_R   0.947841 0.726307 0.448998 -0.217752
C27   C     C_R   0.897914 0.725494 0.448312 -0.139124
C28   C     C_R   0.593955 0.500199 0.500102 0.880742
C29   C     C_R   0.052304 0.729154 0.480782 -0.274878
C30   C     C_2   0.504868 0.933009 0.388053 -0.155478
C31   C     C_2   0.495893 0.868916 0.499665 -0.314444
C32   C     C_2   0.502008 0.066761 0.387121 -0.149220
C33   C     C_2   0.506473 0.131371 0.500432 -0.324272
C34   C     C_R   0.101985 0.503701 0.499412 -0.131766
C35   C     C_2   0.525946 0.577177 0.924118 0.510598
C36   C     C_2   0.519259 0.587519 0.074743 -0.275499
C37   C     C_R   0.178017 0.392422 0.508602 0.517130
C38   C     C_R   0.178468 0.612867 0.488347 0.517345
C39   C     C_R   0.278009 0.508286 0.377576 -0.101217
C40   C     C_R   0.328038 0.507524 0.377726 -0.205617
C41   C     C_R   0.328047 0.493842 0.620598 -0.206903
C42   C     C_3   0.601673 0.669812 0.918700 0.065788
C43   C     C_3   0.609306 0.801903 0.970886 -0.354306
C44   C     C_3   0.657513 0.814146 0.043508 -0.924383
C45   C     C_R   0.127357 0.390008 0.508919 -0.021260
C46   C     C_R   0.101459 0.277968 0.517121 0.146053
C47   C     C_R   0.127815 0.616670 0.489096 -0.020983
C48   C     C_R   0.353401 0.500392 0.499352 -0.041480
C49   C     C_R   0.646551 0.501762 0.499835 -0.046775
H1    H     H_    0.346766 0.488159 0.715648 0.163193
H2    H     H_    0.496311 0.112058 0.291187 0.171839
H3    H     H_    0.258532 0.489267 0.713582 0.135977
H4    H     H_    0.515325 0.089162 0.595847 0.152216
H5    H     H_    0.474505 0.449393 0.899004 0.108237
H6    H     H_    0.532713 0.669525 0.124974 0.178126
H7    H     H_    0.491869 0.418962 0.102015 0.155091
H8    H     H_    0.652294 0.528774 0.285286 0.156658
H9    H     H_    0.878427 0.201777 0.579577 0.191350
H10   H     H_    0.963580 0.198096 0.582385 0.140829
H11   H     H_    0.034137 0.190151 0.520776 0.133096
H12   H     H_    0.258506 0.513878 0.283745 0.136304
H13   H     H_    0.346756 0.512799 0.282958 0.165322
H14   H     H_    0.116012 0.891660 0.388007 0.179867
H15   H     H_    0.116146 0.898727 0.557712 0.175787
H16   H     H_    0.629212 0.651900 0.840809 0.166240
H17   H     H_    0.608583 0.600512 0.999615 0.112230
H18   H     H_    0.608394 0.867874 0.885356 0.235564
H19   H     H_    0.579958 0.827596 0.040741 0.210901
H20   H     H_    0.658529 0.751772 0.132044 0.258666
H21   H     H_    0.662362 0.911219 0.078166 0.275025
H22   H     H_    0.687607 0.790178 0.975231 0.267219
H23   H     H_    0.964274 0.813289 0.422184 0.140594
H24   H     H_    0.114940 0.115246 0.609800 0.179116
H25   H     H_    0.113837 0.108310 0.440153 0.174117
H26   H     H_    0.736923 0.461208 0.191262 0.181063
H27   H     H_    0.736562 0.616874 0.210812 0.201174
H28   H     H_    0.653679 0.472916 0.713923 0.155777
H29   H     H_    0.879114 0.810993 0.425300 0.191017
H30   H     H_    0.741709 0.479496 0.712883 0.146574
H31   H     H_    0.035443 0.819091 0.479499 0.132688
H32   H     H_    0.513528 0.887062 0.294352 0.165909
H33   H     H_    0.484614 0.911602 0.592580 0.154979
N1    N     N_R   0.201850 0.502329 0.498346 -0.371755
N2    N     N_R   0.798334 0.506576 0.500615 -0.347654
N3    N     N_2   0.500520 0.501330 0.852150 -0.219664
N4    N     N_2   0.500540 0.501360 0.147810 -0.209083
N5    N     N_3   0.126939 0.846081 0.475344 -0.366297
N6    N     N_3   0.125492 0.160576 0.522117 -0.367460
N7    N     N_3   0.747342 0.533379 0.254965 -0.442658
O1    O     O_R   0.499990 0.319060 0.613040 -0.623681
O2    O     O_R   0.571240 0.499960 0.613080 -0.594549
O3    O     O_R   0.571250 0.500000 0.386950 -0.619916
O4    O     O_2   0.203710 0.286529 0.518269 -0.514487
O5    O     O_3   0.555780 0.659947 0.857093 -0.598236
O6    O     O_2   0.797083 0.293025 0.548950 -0.555243
O7    O     O_2   0.204594 0.718045 0.478128 -0.514172
O8    O     O_2   0.797484 0.720496 0.454203 -0.556042
O9    O     O_R   0.500010 0.319100 0.386900 -0.617438
O10   O     O_R   0.428750 0.500000 0.613050 -0.625121
O11   O     O_R   0.428760 0.500040 0.386920 -0.612912
O12   O     O_R   0.499990 0.680900 0.613100 -0.568403
O13   O     O_R   0.500010 0.680940 0.386960 -0.619645
Zn1   Zn    Zn3+2 0.499990 0.499970 0.650990 0.987690
Zn2   Zn    Zn3+2 0.500010 0.500030 0.349010 0.947364

loop_
_geom_bond_atom_site_label_1
_geom_bond_atom_site_label_2
_ccdc_geom_bond_type
C10   C27   A    
O10   Zn1   S    
C8    C13   A    
C22   C29   A    
C38   N1    A    
C26   H23   S    
C35   C36   S    
O11   Zn2   S    
C27   H29   S    
N4    Zn2   S    
C1    C33   S    
C7    C8    A    
H24   N6    S    
C45   C46   A    
C16   C31   S    
C12   C23   A    
C26   C27   A    
C1    O1    A    
C31   H33   S    
C23   N1    S    
C13   O6    S    
C30   C31   D    
O9    Zn2   S    
C25   N5    S    
C40   H13   S    
C44   H22   S    
C18   C19   A    
C14   N7    S    
C20   C24   A    
C18   H30   S    
C42   H16   S    
C44   H21   S    
C9    C10   A    
C25   C47   A    
C7    H9    S    
N3    Zn1   S    
H27   N7    S    
O12   Zn1   S    
C21   C22   A    
C33   H4    S    
C15   H8    S    
C2    C6    A    
C14   C19   A    
C12   H3    S    
C46   N6    S    
C25   C29   A    
C39   H12   S    
C2    C20   A    
C17   C49   A    
C39   C40   A    
H26   N7    S    
C8    C9    A    
C21   C34   A    
C36   N4    D    
C43   C44   S    
C32   H2    S    
C5    C9    A    
C12   C41   A    
C28   C49   S    
H7    N4    S    
C13   N2    A    
C24   H11   S    
C17   H28   S    
C17   C18   A    
C37   O4    S    
C44   H20   S    
C28   O3    A    
C34   C45   A    
O13   Zn2   S    
C38   C47   A    
C16   O13   A    
C4    O11   A    
C2    C5    A    
C42   C43   S    
C37   C45   A    
C19   N2    S    
C41   H1    S    
C4    C48   S    
C35   O5    S    
C40   C48   A    
H15   N5    S    
H14   N5    S    
C42   O5    S    
C6    H10   S    
C3    C26   A    
O2    Zn1   S    
C3    C5    A    
C1    O9    A    
H5    N3    S    
C6    C7    A    
C11   N2    A    
C43   H19   S    
C11   O8    S    
C24   C46   A    
C32   C33   D    
C30   H32   S    
C36   H6    S    
C30   C32   S    
C35   N3    D    
C29   H31   S    
C23   C39   A    
C41   C48   A    
C28   O2    A    
C15   C49   A    
O1    Zn1   S    
C10   C11   A    
O3    Zn2   S    
C16   O12   A    
C20   C21   A    
C43   H18   S    
C4    O10   A    
C38   O7    S    
C42   H17   S    
C14   C15   A    
C37   N1    A    
C3    C22   A    
C34   C47   A    
H25   N6    S    
