data_mof_unit_4030.cif
_audit_creation_date              2012-12-10T17:38:49-0500
_audit_creation_method            fapswitch 2.2
_symmetry_space_group_name_H-M    P1
_symmetry_Int_Tables_number       1
_space_group_crystal_system       triclinic
_cell_length_a                    12.342526
_cell_length_b                    13.028022
_cell_length_c                    23.469978
_cell_angle_alpha                 77.469053
_cell_angle_beta                  101.405672
_cell_angle_gamma                 116.586029
_cell_volume                      3272.53240063

loop_
_atom_site_label
_atom_site_type_symbol
_atom_type_description
_atom_site_fract_x
_atom_site_fract_y
_atom_site_fract_z
_atom_type_partial_charge
Br1   Br    Br    0.157340 0.258939 0.118504 -0.520078
Br2   Br    Br    0.382305 0.803203 0.586066 -0.487689
Br3   Br    Br    0.980400 0.100798 0.556361 -0.455685
Br4   Br    Br    0.777040 0.828140 0.556918 -0.411461
Br5   Br    Br    0.330130 0.198111 0.657278 -0.470513
C1    C     C_R   0.854805 0.285117 0.504300 0.814216
C2    C     C_R   0.981380 0.575759 0.869340 0.539149
C3    C     C_R   0.071574 0.602001 0.753962 -0.071074
C4    C     C_R   0.999755 0.499549 0.608602 0.803837
C5    C     C_R   0.064487 0.600776 0.694209 -0.184014
C6    C     C_R   0.999044 0.496689 0.670904 -0.046975
C7    C     C_R   0.940237 0.391555 0.707958 0.042718
C8    C     C_R   0.945736 0.394729 0.767875 -0.105257
C9    C     C_R   0.010905 0.499387 0.791144 0.302165
C10   C     C_R   0.896611 0.469577 0.231022 0.122934
C11   C     C_R   0.895592 0.469330 0.290846 -0.236330
C12   C     C_R   0.079598 0.342433 0.059259 0.263185
C13   C     C_R   0.004022 0.504315 0.328806 -0.078130
C14   C     C_R   0.115642 0.542631 0.307356 -0.252448
C15   C     C_R   0.120636 0.546432 0.247944 0.121174
C16   C     C_R   0.144874 0.714332 0.492923 0.845608
C17   C     C_R   0.010537 0.508867 0.209634 0.296707
C18   C     C_R   0.268159 0.029405 0.426419 0.099431
C19   C     C_R   0.226217 0.838280 0.483094 -0.119346
C20   C     C_R   0.812951 0.070681 0.527414 0.215690
C21   C     C_R   0.728997 0.953747 0.530181 0.293644
C22   C     C_R   0.605604 0.924794 0.514415 -0.235681
C23   C     C_R   0.071430 0.334197 0.998965 0.032867
C24   C     C_R   0.562075 0.010602 0.493885 0.049472
C25   C     C_R   0.647513 0.125884 0.479192 0.036145
C26   C     C_R   0.435455 0.982369 0.481950 0.021727
C27   C     C_R   0.395027 0.061879 0.443013 0.108847
C28   C     C_R   0.001018 0.501214 0.391169 0.789041
C29   C     C_R   0.482582 0.170081 0.420802 -0.239642
C30   C     C_R   0.605959 0.201670 0.438798 -0.159803
C31   C     C_R   0.347729 0.877356 0.507887 0.179930
C32   C     C_R   0.186109 0.915402 0.444330 -0.256706
C33   C     C_R   0.772358 0.159581 0.502779 -0.245169
C34   C     C_R   0.047688 0.419142 0.954731 -0.083537
C35   C     C_R   0.342832 0.322614 0.593702 0.174519
C36   C     C_R   0.753962 0.648116 0.420011 0.302595
C37   C     C_R   0.662237 0.687465 0.411008 -0.211217
C38   C     C_R   0.565330 0.634102 0.443457 -0.213294
C39   C     C_R   0.554461 0.537635 0.485815 0.036658
C40   C     C_R   0.999852 0.593008 0.107391 0.498175
C41   C     C_R   0.654492 0.505108 0.499070 0.280188
C42   C     C_R   0.448233 0.474706 0.516223 -0.052952
C43   C     C_R   0.444990 0.382865 0.561950 0.081923
C44   C     C_R   0.543992 0.353732 0.575389 -0.225570
C45   C     C_R   0.019351 0.501318 0.971822 -0.043034
C46   C     C_R   0.646510 0.414081 0.545469 -0.168251
C47   C     C_R   0.343231 0.498050 0.502221 0.007132
C48   C     C_R   0.245693 0.354032 0.579229 0.104016
C49   C     C_R   0.032200 0.420747 0.134385 0.569007
C50   C     C_R   0.045205 0.421508 0.075590 -0.101674
C51   C     C_R   0.020002 0.503552 0.031796 -0.064537
C52   C     C_R   0.996517 0.589629 0.047954 0.018659
C53   C     C_3   0.244640 0.594404 0.226398 -0.385987
C54   C     C_3   0.308905 0.514186 0.251401 -0.344523
C55   C     C_3   0.428919 0.557470 0.225850 -0.815268
C56   C     C_R   0.988343 0.581332 0.928758 0.007325
C57   C     C_3   0.216703 0.111810 0.389256 -0.409192
C58   C     C_3   0.225283 0.201218 0.425149 -0.327302
C59   C     C_3   0.162610 0.276749 0.390010 -0.790668
C60   C     C_3   0.078421 0.229377 0.983175 -0.302018
C61   C     C_3   0.954571 0.147574 0.954632 -0.338557
C62   C     C_3   0.964007 0.047700 0.935148 -0.790542
C63   C     C_3   0.841273 0.693833 0.373021 -0.372807
C64   C     C_3   0.851433 0.807038 0.332177 -0.471368
C65   C     C_3   0.952380 0.849374 0.292654 -0.781367
C66   C     C_3   0.873695 0.275438 0.685480 -0.405996
C67   C     C_R   0.963721 0.664948 0.945657 -0.159138
C68   C     C_3   0.737348 0.221043 0.692463 -0.386233
C69   C     C_3   0.664666 0.122083 0.656126 -0.734004
C70   C     C_3   0.779178 0.427328 0.189097 -0.372961
C71   C     C_3   0.659945 0.383674 0.216457 -0.416907
C72   C     C_3   0.548895 0.345132 0.170457 -0.762083
C73   C     C_R   0.969748 0.670261 0.004616 -0.168242
C74   C     C_R   0.053671 0.428044 0.893752 0.538984
Cu1   Cu    Cu3+1 0.098270 0.475410 0.513370 0.975040
Cu2   Cu    Cu3+1 0.901730 0.524590 0.486630 0.933326
H1    H     H_    0.810928 0.439725 0.309052 0.140290
H2    H     H_    0.499523 0.670454 0.433650 0.134291
H3    H     H_    0.661009 0.757968 0.377230 0.142798
H4    H     H_    0.717543 0.386207 0.560800 0.203367
H5    H     H_    0.940837 0.727564 0.913333 0.191959
H6    H     H_    0.951167 0.736591 0.016055 0.184833
H7    H     H_    0.124405 0.683004 0.771400 0.173575
H8    H     H_    0.111665 0.681034 0.666109 0.183169
H9    H     H_    0.899838 0.315405 0.796802 0.142760
H10   H     H_    0.411994 0.558830 0.177463 0.271198
H11   H     H_    0.491329 0.646095 0.236031 0.246805
H12   H     H_    0.199581 0.572038 0.336853 0.145476
H13   H     H_    0.473615 0.498440 0.245435 0.239004
H14   H     H_    0.328811 0.510239 0.299914 0.204025
H15   H     H_    0.248998 0.425140 0.241100 0.275056
H16   H     H_    0.237301 0.607830 0.177705 0.211665
H17   H     H_    0.301772 0.681227 0.240205 0.191648
H18   H     H_    0.201305 0.319141 0.347771 0.244204
H19   H     H_    0.063035 0.223543 0.381007 0.265225
H20   H     H_    0.177076 0.344865 0.415596 0.262229
H21   H     H_    0.180807 0.155762 0.465876 0.269319
H22   H     H_    0.322160 0.258081 0.438226 0.215040
H23   H     H_    0.090263 0.886756 0.428192 0.171588
H24   H     H_    0.263925 0.155158 0.349229 0.195446
H25   H     H_    0.119047 0.062788 0.373201 0.211405
H26   H     H_    0.029274 0.081772 0.901886 0.275688
H27   H     H_    0.994961 0.996177 0.973370 0.252451
H28   H     H_    0.873218 0.989776 0.915227 0.245179
H29   H     H_    0.887123 0.111194 0.987020 0.222578
H30   H     H_    0.919127 0.194341 0.915904 0.236206
H31   H     H_    0.153069 0.257136 0.955846 0.246875
H32   H     H_    0.103110 0.175402 0.021847 0.226132
H33   H     H_    0.042322 0.868685 0.319427 0.239608
H34   H     H_    0.457558 0.231876 0.389170 0.143909
H35   H     H_    0.933774 0.782438 0.265187 0.271640
H36   H     H_    0.956419 0.929956 0.263260 0.267560
H37   H     H_    0.764547 0.792122 0.303080 0.230393
H38   H     H_    0.872090 0.875907 0.358828 0.238175
H39   H     H_    0.934222 0.711586 0.393278 0.248444
H40   H     H_    0.810420 0.625741 0.344529 0.200750
H41   H     H_    0.670346 0.155580 0.608581 0.238687
H42   H     H_    0.700345 0.054704 0.668732 0.277972
H43   H     H_    0.567333 0.081847 0.663903 0.275391
H44   H     H_    0.723805 0.186692 0.739423 0.232257
H45   H     H_    0.544495 0.833776 0.515738 0.203478
H46   H     H_    0.701851 0.288318 0.678361 0.235127
H47   H     H_    0.884542 0.284001 0.638632 0.197835
H48   H     H_    0.914492 0.215875 0.710525 0.226684
H49   H     H_    0.553081 0.418889 0.135342 0.260050
H50   H     H_    0.544758 0.273242 0.150613 0.258445
H51   H     H_    0.464488 0.314091 0.191533 0.262759
H52   H     H_    0.651594 0.308654 0.251477 0.227079
H53   H     H_    0.659933 0.454427 0.235758 0.221142
H54   H     H_    0.782359 0.499642 0.153287 0.227906
H55   H     H_    0.775955 0.355889 0.169119 0.208430
H56   H     H_    0.668072 0.283597 0.417401 0.166390
H57   H     H_    0.168276 0.310344 0.604138 0.182955
H58   H     H_    0.542803 0.282796 0.609340 0.196195
H59   H     H_    0.334968 0.562015 0.466174 0.125870
N1    N     N_R   0.014183 0.507610 0.148951 -0.479671
N2    N     N_R   0.015290 0.501077 0.852822 -0.457830
N3    N     N_R   0.246280 0.438190 0.533650 -0.205019
N4    N     N_R   0.754320 0.561190 0.466710 -0.217056
O1    O     O_R   0.972510 0.318130 0.516820 -0.536140
O2    O     O_R   0.082990 0.479280 0.429170 -0.593566
O3    O     O_R   0.917010 0.520800 0.406580 -0.620297
O4    O     O_2   0.987100 0.679874 0.123684 -0.550534
O5    O     O_2   0.032692 0.332486 0.176623 -0.500593
O6    O     O_2   0.101229 0.367998 0.875021 -0.548150
O7    O     O_2   0.940348 0.644330 0.828226 -0.522507
O8    O     O_R   0.806530 0.359650 0.494230 -0.615937
O9    O     O_R   0.082990 0.479200 0.593420 -0.557889
O10   O     O_R   0.917010 0.520720 0.570830 -0.573299
O11   O     O_R   0.193470 0.640350 0.505770 -0.549883
O12   O     O_R   0.027490 0.681870 0.483180 -0.589053

loop_
_geom_bond_atom_site_label_1
_geom_bond_atom_site_label_2
_ccdc_geom_bond_type
C73   H6    S    
C69   H43   S    
C50   C51   A    
C9    N2    S    
C8    H9    S    
C22   C24   A    
C40   O4    S    
C38   H2    S    
C36   C37   A    
C10   C70   S    
C14   C15   A    
C53   H17   S    
C70   C71   S    
C46   H4    S    
C44   C46   A    
Cu1   O9    S    
C57   H24   S    
C65   H33   S    
C40   C52   A    
C21   C22   A    
C19   C31   A    
Cu2   O12   S    
C25   C30   A    
C10   C17   A    
C29   C30   A    
C72   H50   S    
C22   H45   S    
C70   H54   S    
C62   H27   S    
C74   N2    A    
C65   H36   S    
C10   C11   A    
C64   H37   S    
C51   C52   A    
C25   C33   A    
C13   C14   A    
C68   C69   S    
C2    C56   A    
C67   C73   A    
C28   O3    A    
C62   H28   S    
Cu2   N4    S    
C42   C43   A    
C5    H8    S    
C63   C64   S    
Cu2   O3    S    
C1    C33   S    
C61   H30   S    
C49   O5    S    
C12   C50   A    
C14   H12   S    
C39   C42   A    
C1    O8    A    
C55   H11   S    
C61   C62   S    
C4    O9    A    
C54   C55   S    
C8    C9    A    
C40   N1    A    
C53   H16   S    
C54   H14   S    
C58   H21   S    
C39   C41   A    
C36   C63   S    
C59   H18   S    
C59   H20   S    
C47   N3    A    
C48   H57   S    
Br3   C20   S    
C37   H3    S    
C71   C72   S    
C36   N4    A    
C58   H22   S    
C28   O2    A    
C66   C68   S    
C1    O1    A    
C71   H53   S    
C70   H55   S    
C41   N4    A    
C23   C34   A    
C65   H35   S    
C29   H34   S    
C18   C32   A    
C41   C46   A    
C64   H38   S    
C45   C51   A    
Cu2   O10   S    
C48   N3    A    
C72   H51   S    
C27   C29   A    
C38   C39   A    
C60   H31   S    
C24   C25   A    
C20   C33   A    
C66   H48   S    
C67   H5    S    
C26   C27   A    
C71   H52   S    
Cu1   N3    S    
C49   N1    A    
C57   C58   S    
C11   H1    S    
C19   C32   A    
C16   O11   A    
C61   H29   S    
C4    C6    S    
C74   O6    S    
C2    O7    S    
C56   C67   A    
C11   C13   A    
C43   C44   A    
C69   H41   S    
C7    C66   S    
C15   C17   A    
C4    O10   A    
C35   C48   A    
C44   H58   S    
C66   H47   S    
C53   C54   S    
C54   H15   S    
C16   C19   S    
C15   C53   S    
Cu1   O11   S    
C55   H10   S    
Br2   C31   S    
C35   C43   A    
C49   C50   A    
Cu1   O1    S    
C3    C9    A    
C12   C23   A    
C60   H32   S    
C52   C73   A    
Cu1   Cu2   S    
C63   H40   S    
C32   H23   S    
Br4   C21   S    
C6    C7    A    
C42   C47   A    
C57   H25   S    
Cu2   O8    S    
Br1   C12   S    
C18   C27   A    
C23   C60   S    
C20   C21   A    
C24   C26   A    
C68   H46   S    
C30   H56   S    
C62   H26   S    
C68   H44   S    
C17   N1    S    
Cu1   O2    S    
C47   H59   S    
C16   O12   A    
C69   H42   S    
C72   H49   S    
C64   C65   S    
C13   C28   S    
C5    C6    A    
C58   C59   S    
C59   H19   S    
C34   C45   A    
C7    C8    A    
C3    C5    A    
C60   C61   S    
C37   C38   A    
Br5   C35   S    
C45   C56   A    
C26   C31   A    
C18   C57   S    
C3    H7    S    
C2    N2    A    
C63   H39   S    
C34   C74   A    
C55   H13   S    
