data_mof_unit_2845.cif
_audit_creation_date              2012-12-11T14:58:37-0500
_audit_creation_method            fapswitch 2.2
_symmetry_space_group_name_H-M    P1
_symmetry_Int_Tables_number       1
_space_group_crystal_system       triclinic
_cell_length_a                    10.91744
_cell_length_b                    10.966964
_cell_length_c                    18.810979
_cell_angle_alpha                 90.245966
_cell_angle_beta                  90.344836
_cell_angle_gamma                 59.937311
_cell_volume                      1949.24412525

loop_
_atom_site_label
_atom_site_type_symbol
_atom_type_description
_atom_site_fract_x
_atom_site_fract_y
_atom_site_fract_z
_atom_type_partial_charge
C1    C     C_R   0.356235 0.777480 0.398763 0.531324
C2    C     C_R   0.243231 0.431261 0.201012 -0.173756
C3    C     C_R   0.245008 0.435678 0.274808 -0.061264
C4    C     C_R   0.387814 0.353571 0.387211 0.562725
C5    C     C_R   0.878243 0.768243 0.378966 -0.110472
C6    C     C_R   0.939231 0.630675 0.404495 -0.082931
C7    C     C_R   0.055015 0.521058 0.369605 -0.048806
C8    C     C_R   0.115716 0.549128 0.310595 0.060889
C9    C     C_R   0.368618 0.334902 0.311254 0.026745
C10   C     C_R   0.953724 0.302257 0.307769 -0.181255
C11   C     C_R   0.984336 0.295648 0.236023 -0.109004
C12   C     C_R   0.617872 0.134173 0.156608 0.095253
C13   C     C_R   0.876221 0.333770 0.185615 0.040946
C14   C     C_R   0.736515 0.389985 0.205843 -0.120862
C15   C     C_R   0.703610 0.404061 0.277726 0.086636
C16   C     C_R   0.777215 0.378941 0.402900 0.550491
C17   C     C_R   0.813837 0.356930 0.328671 0.054377
C18   C     C_R   0.446321 0.842734 0.291851 -0.165238
C19   C     C_R   0.425703 0.883068 0.220432 -0.168117
C20   C     C_R   0.291614 0.937593 0.189225 0.048129
C21   C     C_R   0.175403 0.958719 0.231901 0.075352
C22   C     C_R   0.197021 0.920989 0.303097 -0.123876
C23   C     C_R   0.358818 0.329570 0.162423 -0.038631
C24   C     C_R   0.332570 0.855648 0.332372 -0.004502
C25   C     C_R   0.461522 0.277998 0.716241 -0.150759
C26   C     C_R   0.444657 0.275736 0.788164 -0.148684
C27   C     C_R   0.309302 0.332599 0.815965 0.009134
C28   C     C_R   0.345817 0.765407 0.605724 0.544773
C29   C     C_R   0.189216 0.402419 0.772028 -0.115718
C30   C     C_R   0.205382 0.407396 0.698622 0.080595
C31   C     C_R   0.343267 0.340671 0.670835 0.063780
C32   C     C_R   0.748102 0.474355 0.731537 -0.146977
C33   C     C_R   0.758541 0.461123 0.804284 -0.166197
C34   C     C_R   0.488907 0.232619 0.271259 0.102326
C35   C     C_R   0.812316 0.328598 0.835779 0.047513
C36   C     C_R   0.835666 0.211473 0.793485 0.093671
C37   C     C_R   0.822879 0.226792 0.719361 -0.127253
C38   C     C_R   0.784608 0.356770 0.688289 0.006348
C39   C     C_R   0.218404 0.797472 0.717774 -0.126208
C40   C     C_R   0.371848 0.351818 0.597046 0.554570
C41   C     C_R   0.212276 0.809658 0.790900 -0.123370
C42   C     C_R   0.309300 0.835145 0.826962 0.031708
C43   C     C_R   0.418934 0.838281 0.789545 -0.135915
C44   C     C_R   0.425488 0.825473 0.716342 -0.143165
C45   C     C_R   0.486803 0.235254 0.197243 0.019734
C46   C     C_R   0.324560 0.806269 0.679953 0.031994
C47   C     C_R   0.912920 0.315512 0.112071 0.537971
C48   C     C_R   0.329425 0.294839 0.091835 0.527283
C49   C     C_R   0.270395 0.963887 0.112157 0.581691
C50   C     C_R   0.878770 0.310181 0.905719 0.550657
C51   C     C_R   0.295978 0.290692 0.886462 0.549548
C52   C     C_R   0.756615 0.380547 0.612370 0.541434
C53   C     C_R   0.277421 0.891750 0.898534 0.560985
C54   C     C_R   0.836763 0.941653 0.067407 -0.097233
C55   C     C_R   0.765521 0.085291 0.052003 -0.066291
C56   C     C_R   0.053327 0.688372 0.285674 -0.088706
C57   C     C_R   0.660344 0.181587 0.097341 -0.066367
C58   C     C_R   0.934843 0.796883 0.319318 -0.125815
C59   C     C_R   0.689697 0.988130 0.170910 -0.071503
C60   C     C_R   0.799605 0.893174 0.127265 -0.146552
Cr1   Cr    Cr6+3 0.601770 0.606860 0.505860 0.997639
Cr2   Cr    Cr6+3 0.291380 0.601660 0.495070 1.041964
Cr3   Cr    Cr6+3 0.606880 0.291510 0.499120 1.004531
Cr4   Cr    Cr6+3 0.062440 0.063090 0.008210 1.011039
Cr5   Cr    Cr6+3 0.062880 0.375170 0.998920 1.000336
Cr6   Cr    Cr6+3 0.374700 0.061720 0.992470 1.013783
H1    H     H_    0.788326 0.852745 0.405955 0.102622
H2    H     H_    0.537752 0.222690 0.821771 0.124483
H3    H     H_    0.084094 0.444825 0.794083 0.132602
H4    H     H_    0.711061 0.577956 0.709278 0.140010
H5    H     H_    0.735159 0.553492 0.835564 0.131172
H6    H     H_    0.843236 0.137790 0.686036 0.114685
H7    H     H_    0.141693 0.777702 0.691233 0.146122
H8    H     H_    0.888609 0.903534 0.299873 0.120262
H9    H     H_    0.128068 0.805258 0.818757 0.141398
H10   H     H_    0.495831 0.857485 0.816302 0.131841
H11   H     H_    0.510181 0.828928 0.688407 0.121961
H12   H     H_    0.898260 0.609431 0.452134 0.136693
H13   H     H_    0.919472 0.867896 0.032502 0.109826
H14   H     H_    0.789969 0.122131 0.004195 0.134987
H15   H     H_    0.604973 0.292133 0.083319 0.078706
H16   H     H_    0.098577 0.712777 0.240855 0.099541
H17   H     H_    0.659342 0.946195 0.214833 0.126039
H18   H     H_    0.145693 0.502887 0.173579 0.147062
H19   H     H_    0.674193 0.171514 0.327087 0.287098
H20   H     H_    0.599455 0.063882 0.338190 0.241305
H21   H     H_    0.535718 0.561884 0.324771 0.248274
H22   H     H_    0.491443 0.498277 0.255260 0.219038
H23   H     H_    0.102073 0.415743 0.391024 0.086944
H24   H     H_    0.552767 0.791197 0.313476 0.138468
H25   H     H_    0.959416 0.058865 0.240562 0.221233
H26   H     H_    0.030954 0.919595 0.186145 0.239676
H27   H     H_    0.108401 0.933216 0.334275 0.131787
H28   H     H_    0.080905 0.396413 0.622285 0.227500
H29   H     H_    0.990917 0.524073 0.682098 0.223601
H30   H     H_    0.793673 0.089882 0.857218 0.211487
H31   H     H_    0.889848 0.003660 0.786190 0.205373
H32   H     H_    0.038270 0.264324 0.346604 0.097510
H33   H     H_    0.092984 0.254844 0.219532 0.126181
H34   H     H_    0.653792 0.425235 0.165993 0.092527
H35   H     H_    0.515868 0.861515 0.188228 0.131872
H36   H     H_    0.853794 0.781578 0.139036 0.113635
H37   H     H_    0.568412 0.231076 0.696225 0.144406
N1    N     N_3   0.618457 0.127213 0.303815 -0.660077
N2    N     N_3   0.558766 0.468650 0.299488 -0.600429
N3    N     N_3   0.037170 0.007621 0.201847 -0.582480
N4    N     N_3   0.084164 0.475104 0.652397 -0.614987
N5    N     N_3   0.877222 0.077203 0.825215 -0.593005
O1    O     O_R   0.748800 0.497470 0.428000 -0.531902
O2    O     O_R   0.417600 0.174890 0.067840 -0.518419
O3    O     O_R   0.375320 0.946260 0.070860 -0.510313
O4    O     O_R   0.476420 0.724060 0.429470 -0.512029
O5    O     O_R   0.160600 0.919630 0.926660 -0.504902
O6    O     O_R   0.933060 0.190520 0.936020 -0.490447
O7    O     O_R   0.908880 0.403460 0.925020 -0.530496
O8    O     O_R   0.179600 0.361450 0.918490 -0.503941
O9    O     O_R   0.391510 0.170860 0.907530 -0.523342
O10   O     O_R   0.351130 0.942530 0.922260 -0.504776
O11   O     O_3   0.166667 0.166667 0.999870 -0.266777
O12   O     O_R   0.300070 0.471040 0.567100 -0.471919
O13   O     O_R   0.264580 0.744340 0.416750 -0.507456
O14   O     O_R   0.309380 0.472470 0.418200 -0.489981
O15   O     O_R   0.501710 0.260430 0.414300 -0.526303
O16   O     O_R   0.728090 0.305600 0.428960 -0.497243
O17   O     O_R   0.738760 0.495930 0.588610 -0.530844
O18   O     O_R   0.467110 0.722640 0.578360 -0.509775
O19   O     O_R   0.254530 0.742800 0.577360 -0.521590
O20   O     O_R   0.491670 0.258900 0.574910 -0.539508
O21   O     O_R   0.718780 0.304180 0.577850 -0.509594
O22   O     O_3   0.500010 0.500010 0.500020 -0.245611
O23   O     O_R   0.186690 0.923650 0.086970 -0.499727
O24   O     O_R   0.957250 0.194250 0.084630 -0.496001
O25   O     O_R   0.934970 0.407490 0.085330 -0.526090
O26   O     O_R   0.203780 0.365190 0.067090 -0.510419

loop_
_geom_bond_atom_site_label_1
_geom_bond_atom_site_label_2
_ccdc_geom_bond_type
C25   C31   A    
C48   O2    A    
C23   C45   A    
C30   N4    S    
C36   N5    S    
C19   H35   S    
C41   C42   A    
Cr2   O22   S    
C2    H18   S    
C35   C36   A    
C5    H1    S    
Cr1   O1    S    
C8    C56   A    
Cr3   O16   S    
C7    C8    A    
C39   C41   A    
C54   C60   A    
C49   O23   A    
C28   C46   S    
C26   C27   A    
C29   C30   A    
Cr4   O11   S    
C5    C58   A    
C18   C24   A    
C52   O21   A    
C48   O26   A    
C36   C37   A    
C37   C38   A    
C59   H17   S    
C18   C19   A    
C1    O4    A    
C30   C31   A    
C6    H12   S    
C38   C52   S    
C10   C17   A    
C7    H23   S    
C31   C40   S    
C11   H33   S    
C50   O7    A    
Cr3   O22   S    
C10   H32   S    
C53   O5    A    
C51   O9    A    
H31   N5    S    
Cr4   O24   S    
C44   C46   A    
C16   C17   S    
Cr6   O9    S    
Cr1   O18   S    
C23   C48   S    
C32   C38   A    
Cr6   O3    S    
Cr2   O12   S    
C21   N3    S    
C28   O19   A    
C49   O3    A    
Cr3   O21   S    
H30   N5    S    
H20   N1    S    
C59   C60   A    
C13   C14   A    
C47   O25   A    
Cr5   O7    S    
H25   N3    S    
C60   H36   S    
C27   C51   S    
C16   O1    A    
Cr3   O20   S    
C29   H3    S    
H28   N4    S    
Cr4   O6    S    
C18   H24   S    
C3    C8    S    
C13   C47   S    
C53   O10   A    
C25   H37   S    
C32   H4    S    
C22   H27   S    
C25   C26   A    
C34   N1    S    
C4    O15   A    
C50   O6    A    
C43   C44   A    
C20   C49   S    
C3    C9    A    
C41   H9    S    
H21   N2    S    
Cr4   O23   S    
C35   C50   S    
Cr5   O11   S    
C4    O14   A    
C34   C45   A    
Cr6   O2    S    
C14   H34   S    
H19   N1    S    
H29   N4    S    
Cr1   O22   S    
C39   C46   A    
C12   C57   A    
H26   N3    S    
C40   O12   A    
Cr6   O11   S    
C55   C57   A    
C9    C34   A    
Cr5   O8    S    
C57   H15   S    
C42   C43   A    
Cr2   O14   S    
C58   H8    S    
C54   H13   S    
C43   H10   S    
C15   C17   A    
C54   C55   A    
C44   H11   S    
Cr4   O5    S    
Cr5   O26   S    
C12   C45   S    
Cr3   O15   S    
C52   O17   A    
C56   H16   S    
C6    C7    A    
C28   O18   A    
C51   O8    A    
C47   O24   A    
C26   H2    S    
C32   C33   A    
C15   N2    S    
C19   C20   A    
C2    C3    A    
C16   O16   A    
C42   C53   S    
C55   H14   S    
C11   C13   A    
C5    C6    A    
C27   C29   A    
C33   C35   A    
C56   C58   A    
H22   N2    S    
C22   C24   A    
C39   H7    S    
C1    O13   A    
C12   C59   A    
C10   C11   A    
C33   H5    S    
Cr2   O19   S    
C20   C21   A    
C1    C24   S    
Cr6   O10   S    
C37   H6    S    
C2    C23   A    
C14   C15   A    
Cr1   O17   S    
C4    C9    S    
C21   C22   A    
Cr1   O4    S    
Cr2   O13   S    
Cr5   O25   S    
C40   O20   A    
