data_mof_unit_3460.cif
_audit_creation_date              2012-12-11T15:31:39-0500
_audit_creation_method            fapswitch 2.2
_symmetry_space_group_name_H-M    P1
_symmetry_Int_Tables_number       1
_space_group_crystal_system       triclinic
_cell_length_a                    6.965535
_cell_length_b                    14.739045
_cell_length_c                    21.420129
_cell_angle_alpha                 74.865616
_cell_angle_beta                  89.049025
_cell_angle_gamma                 90.398251
_cell_volume                      2122.3937694

loop_
_atom_site_label
_atom_site_type_symbol
_atom_type_description
_atom_site_fract_x
_atom_site_fract_y
_atom_site_fract_z
_atom_type_partial_charge
O1    O     O_R   0.648150 0.130050 0.214300 -0.548983
O2    O     O_R   0.351850 0.869950 0.785700 -0.547017
O3    O     O_R   0.320490 0.006660 0.340150 -0.542591
O4    O     O_R   0.679510 0.993340 0.659850 -0.542651
O5    O     O_R   0.146100 0.869940 0.285700 -0.529957
O6    O     O_R   0.853900 0.130060 0.714300 -0.533269
C1    C     C_R   0.487925 0.004383 0.366595 0.719743
C2    C     C_R   0.512117 0.995729 0.633393 0.719255
O7    O     O_R   0.318690 0.137980 0.218120 -0.540694
O8    O     O_R   0.681310 0.862020 0.781880 -0.535237
O9    O     O_R   0.144280 0.002190 0.162800 -0.533223
O10   O     O_R   0.855720 0.997810 0.837200 -0.526274
C3    C     C_R   0.487844 0.175652 0.204480 0.765387
C4    C     C_R   0.512106 0.824667 0.795030 0.794140
O11   O     O_R   0.649960 0.997790 0.337200 -0.543191
O12   O     O_R   0.350040 0.002210 0.662800 -0.543105
O13   O     O_3   0.479300 0.955290 0.231990 -0.371219
O14   O     O_3   0.520700 0.044710 0.768010 -0.380189
V1    V     V_3+5 0.206040 0.008290 0.253340 1.451583
V2    V     V_3+5 0.793960 0.991710 0.746660 1.454042
O15   O     O_R   0.814320 0.993320 0.159850 -0.553975
O16   O     O_R   0.185680 0.006680 0.840150 -0.556664
C5    C     C_R   0.984797 0.001143 0.132801 0.788709
C6    C     C_R   0.014848 0.006024 0.865863 0.785510
O17   O     O_R   0.816120 0.862000 0.281880 -0.542234
O18   O     O_R   0.183880 0.138000 0.718120 -0.546691
C7    C     C_R   0.983611 0.824344 0.294503 0.726012
C8    C     C_R   0.016429 0.175669 0.705651 0.712020
V3    V     V_3+5 0.705540 0.991700 0.246660 1.423478
V4    V     V_3+5 0.294460 0.008300 0.753340 1.410870
O19   O     O_3   0.982150 0.044700 0.268010 -0.381033
O20   O     O_3   0.017850 0.955300 0.731990 -0.378625
C9    C     C_R   0.987377 0.722357 0.322151 -0.098404
C10   C     C_R   0.013567 0.277699 0.678294 -0.093838
C11   C     C_R   0.950706 0.564110 0.309135 0.315081
C12   C     C_R   0.067030 0.435252 0.690769 0.320189
C13   C     C_R   0.960101 0.662013 0.282678 -0.148384
C14   C     C_R   0.053134 0.337468 0.717285 -0.152828
C15   C     C_R   0.005925 0.686400 0.388729 -0.222477
C16   C     C_R   0.988579 0.314053 0.612051 -0.223379
C17   C     C_R   0.994459 0.588539 0.418114 0.047608
C18   C     C_R   0.008099 0.411562 0.582384 0.046080
C19   C     C_R   0.964879 0.527497 0.377277 0.069796
C20   C     C_R   0.045942 0.472198 0.622909 0.069088
C21   C     C_R   0.010078 0.549689 0.486696 0.086864
C22   C     C_R   0.993347 0.450378 0.513777 0.086645
C23   C     C_R   0.965086 0.392947 0.471244 -0.204240
C24   C     C_R   0.043352 0.606888 0.529063 -0.204383
C25   C     C_R   0.951319 0.430513 0.405111 -0.219001
C26   C     C_R   0.061782 0.569087 0.595014 -0.220154
H1    H     H_    0.929299 0.381596 0.376000 0.128277
H2    H     H_    0.089506 0.617702 0.623945 0.128627
H3    H     H_    0.958315 0.263390 0.585219 0.119296
H4    H     H_    0.024117 0.737591 0.416012 0.115179
H5    H     H_    0.075971 0.306567 0.768242 0.118473
H6    H     H_    0.943179 0.692449 0.231357 0.127828
H7    H     H_    0.954377 0.317559 0.487082 0.134128
H8    H     H_    0.058846 0.682085 0.513067 0.136108
C27   C     C_3   0.921824 0.930447 0.990985 0.217367
C28   C     C_3   0.077859 0.088972 0.006251 0.224416
C29   C     C_3   0.102133 0.936406 0.030639 0.232835
C30   C     C_3   0.901194 0.083344 0.965221 0.254323
C31   C     C_3   0.998150 0.006862 0.061888 -0.229691
C32   C     C_3   0.002211 0.011271 0.934807 -0.228159
C33   C     C_3   0.820065 0.002699 0.020511 0.156275
C34   C     C_3   0.180550 0.018777 0.975358 0.157984
C35   C     C_3   0.657554 0.047270 0.469426 -0.173618
C36   C     C_3   0.342663 0.953095 0.530545 -0.172660
C37   C     C_3   0.502410 0.085271 0.507923 0.349992
C38   C     C_3   0.497876 0.915094 0.492081 0.350589
H9    H     H_    0.784598 0.087418 0.444359 0.116744
H10   H     H_    0.215613 0.912956 0.555617 0.115929
C39   C     C_3   0.506456 0.995073 0.563066 -0.108761
C40   C     C_3   0.493743 0.005249 0.436903 -0.110704
C41   C     C_3   0.661659 0.954870 0.525090 -0.210083
C42   C     C_3   0.338565 0.045536 0.474887 -0.211347
H11   H     H_    0.792190 0.916167 0.545373 0.114551
H12   H     H_    0.208179 0.084320 0.454526 0.115142
C43   C     C_R   0.495908 0.278397 0.177550 -0.105843
C44   C     C_R   0.505242 0.722461 0.820720 -0.114332
C45   C     C_R   0.473771 0.437065 0.191165 0.339375
C46   C     C_R   0.554404 0.566040 0.806281 0.349359
C47   C     C_R   0.476046 0.338411 0.218065 0.158892
C48   C     C_R   0.542142 0.664323 0.779947 0.150370
C49   C     C_R   0.508827 0.315066 0.110695 -0.256170
C50   C     C_R   0.483882 0.684961 0.887168 -0.251684
C51   C     C_R   0.506411 0.413071 0.081407 -0.012678
C52   C     C_R   0.507803 0.587984 0.916170 -0.015650
C53   C     C_R   0.491501 0.474697 0.122780 -0.003058
C54   C     C_R   0.536065 0.527657 0.874615 0.002553
C55   C     C_R   0.515920 0.451130 0.012287 0.059573
C56   C     C_R   0.505882 0.549939 0.985166 0.054040
C57   C     C_R   0.500930 0.608484 0.027729 -0.275821
C58   C     C_R   0.537103 0.393440 0.969379 -0.279092
C59   C     C_R   0.492578 0.572915 0.095024 0.367601
C60   C     C_R   0.550028 0.430146 0.902096 0.353900
H13   H     H_    0.450690 0.734610 0.914679 0.131474
H14   H     H_    0.515677 0.263955 0.083139 0.124505
H15   H     H_    0.508638 0.683688 0.010148 0.126581
H16   H     H_    0.547149 0.318456 0.986413 0.111599
O21   O     O_3   0.486886 0.634212 0.134217 -0.611340
H17   H     H_    0.489267 0.700216 0.107507 0.292729
O22   O     O_3   0.574284 0.370759 0.862307 -0.617853
H18   H     H_    0.603810 0.307108 0.888470 0.295572
N1    N     N_2   0.564481 0.706031 0.712314 -0.551802
H19   H     H_    0.481901 0.677160 0.682753 0.240086
C61   C     C_3   0.759640 0.730395 0.689262 -0.524858
H20   H     H_    0.812992 0.679388 0.663296 0.179110
H21   H     H_    0.858532 0.730638 0.729483 0.213564
H22   H     H_    0.761939 0.801585 0.655422 0.194462
N2    N     N_2   0.458641 0.298251 0.286003 -0.549022
H23   H     H_    0.543634 0.327969 0.314487 0.241653
C62   C     C_3   0.264742 0.274574 0.310682 -0.533665
H24   H     H_    0.213659 0.327093 0.335740 0.183259
H25   H     H_    0.263875 0.204189 0.345548 0.194640
H26   H     H_    0.163053 0.272738 0.271505 0.213122
O23   O     O_3   0.451051 0.497951 0.230178 -0.612232
H27   H     H_    0.401794 0.464119 0.273560 0.308486
O24   O     O_3   0.588812 0.506436 0.766980 -0.610002
H28   H     H_    0.627236 0.541981 0.722764 0.307928
N3    N     N_2   0.923027 0.501653 0.268665 -0.533310
H29   H     H_    0.804604 0.457892 0.280645 0.262000
C63   C     C_3   0.963695 0.533647 0.199847 -0.476546
H30   H     H_    0.966638 0.472229 0.178904 0.187093
H31   H     H_    0.105955 0.569490 0.190601 0.246885
H32   H     H_    0.850124 0.582001 0.175656 0.223662
N4    N     N_2   0.108188 0.497094 0.730709 -0.529236
H33   H     H_    0.227947 0.539358 0.716490 0.259219
C64   C     C_3   0.079670 0.465062 0.800148 -0.479699
H34   H     H_    0.087941 0.526170 0.821303 0.187905
H35   H     H_    0.193335 0.414758 0.821783 0.216877
H36   H     H_    0.935926 0.431549 0.812201 0.248221
O25   O     O_3   0.208422 0.859701 0.064475 -0.638757
H37   H     H_    0.258871 0.829969 0.031143 0.290135
O26   O     O_3   0.804814 0.162441 0.930483 -0.665529
H38   H     H_    0.792884 0.203612 0.960210 0.274131
O27   O     O_3   0.838331 0.847582 0.983330 -0.640973
H39   H     H_    0.801056 0.810696 0.027587 0.291814
O28   O     O_3   0.154621 0.172092 0.015987 -0.661382
H40   H     H_    0.147487 0.219653 0.973806 0.290288
N5    N     N_2   0.625534 0.996868 0.045952 -0.463740
H41   H     H_    0.595170 0.934521 0.079966 0.270460
C65   C     C_3   0.559572 0.080079 0.063955 -0.339372
H42   H     H_    0.442497 0.061324 0.100618 0.204496
H43   H     H_    0.505989 0.132038 0.021847 0.210551
H44   H     H_    0.676147 0.116684 0.082575 0.135806
N6    N     N_2   0.371726 0.032671 0.946790 -0.463440
H45   H     H_    0.422315 0.975183 0.932902 0.271273
C66   C     C_3   0.405115 0.122196 0.899291 -0.338772
H46   H     H_    0.427263 0.178538 0.923448 0.170705
H47   H     H_    0.281156 0.144595 0.867432 0.149316
H48   H     H_    0.533170 0.117897 0.868817 0.223380
N7    N     N_2   0.506540 0.177404 0.520097 -0.527087
H49   H     H_    0.407342 0.184311 0.554783 0.250773
C67   C     C_3   0.507758 0.255972 0.463398 -0.560280
H50   H     H_    0.535514 0.321887 0.477812 0.215258
H51   H     H_    0.365942 0.261270 0.440079 0.197006
H52   H     H_    0.622887 0.248148 0.428762 0.201000
N8    N     N_2   0.494533 0.822759 0.480243 -0.525520
H53   H     H_    0.594989 0.815641 0.445986 0.250455
C68   C     C_3   0.492584 0.744684 0.537274 -0.564287
H54   H     H_    0.470141 0.678192 0.523069 0.215279
H55   H     H_    0.373714 0.751820 0.570792 0.198702
H56   H     H_    0.632172 0.741099 0.561885 0.198675

loop_
_geom_bond_atom_site_label_1
_geom_bond_atom_site_label_2
_ccdc_geom_bond_type
C65   H44   S    
V4    O20   S    
C3    C43   S    
O21   H17   S    
C51   C55   A    
C67   H51   S    
C39   C41   S    
N1    H19   S    
N6    H45   S    
O4    C2    A    
V1    O19   S    
C31   C33   S    
C68   H54   S    
C29   O25   S    
C63   H30   S    
C23   C25   A    
C21   C22   A    
C7    C9    S    
N1    C61   S    
O9    V1    S    
C27   C32   S    
C9    C15   A    
C40   C42   S    
C28   C31   S    
C10   C16   A    
C11   C13   A    
C42   H12   S    
C64   H34   S    
O3    C1    A    
C66   H47   S    
C50   C52   A    
C63   H31   S    
C15   H4    S    
C27   O27   S    
O12   V4    S    
C65   H42   S    
C45   O23   S    
O13   V3    S    
C37   C42   S    
C28   C30   S    
C38   N8    S    
C18   C22   A    
O9    C5    A    
C29   C31   S    
C50   H13   S    
O7    C3    A    
C2    C39   S    
C30   C32   S    
C49   H14   S    
O22   H18   S    
C68   H55   S    
O5    C7    A    
C13   H6    S    
N5    H41   S    
C29   C34   S    
O7    V1    S    
O6    C8    A    
C14   H5    S    
C52   C56   A    
C47   N2    S    
O8    V2    S    
C25   H1    S    
C38   C40   S    
C26   H2    S    
C61   H20   S    
N8    C68   S    
C37   C39   S    
O14   V4    S    
C4    C44   S    
N7    C67   S    
C11   C19   A    
C57   H15   S    
O14   V2    S    
C30   C33   S    
C44   C48   A    
C62   H26   S    
C45   C53   A    
C24   C26   A    
C8    C10   S    
C2    O12   A    
C67   H52   S    
C17   C19   A    
C18   C20   A    
C46   O24   S    
C45   C47   A    
O11   V3    S    
C1    C40   S    
C49   C51   A    
O17   V3    S    
C27   C29   S    
C11   N3    S    
C15   C17   A    
O8    C4    A    
C66   H48   S    
C55   C56   A    
C19   C25   A    
C63   H32   S    
C1    O11   A    
C36   C39   S    
O15   V3    S    
C54   C60   A    
C9    C13   A    
C62   H25   S    
C35   C37   S    
C32   C34   S    
C30   O26   S    
C53   C59   A    
C58   C60   A    
N4    C64   S    
C23   H7    S    
C33   N5    S    
N8    H53   S    
C58   H16   S    
C36   H10   S    
O10   V2    S    
O1    V3    S    
C48   N1    S    
C34   N6    S    
N2    C62   S    
C35   C40   S    
O24   H28   S    
O3    V1    S    
C41   H11   S    
N3    H29   S    
C36   C38   S    
C52   C54   A    
O18   V4    S    
C46   C48   A    
O15   C5    A    
O25   H37   S    
C61   H22   S    
O16   C6    A    
C12   C20   A    
C12   N4    S    
C35   C41   S    
N4    H33   S    
C43   C49   A    
C68   H56   S    
C62   H24   S    
V2    O20   S    
C21   C24   A    
C20   C26   A    
C65   H43   S    
C22   C23   A    
O16   V4    S    
N2    H23   S    
N6    C66   S    
C10   C14   A    
C16   C18   A    
O28   H40   S    
C24   H8    S    
O5    V1    S    
C36   C42   S    
O6    V2    S    
O27   H39   S    
O10   C6    A    
O18   C8    A    
C46   C54   A    
O2    V4    S    
C64   H36   S    
N5    C65   S    
V3    O19   S    
O23   H27   S    
C27   C33   S    
C12   C14   A    
C43   C47   A    
C61   H21   S    
C5    C31   S    
C56   C57   A    
O13   V1    S    
C6    C32   S    
C35   H9    S    
O2    C4    A    
C37   N7    S    
N3    C63   S    
O26   H38   S    
C28   O28   S    
C28   C34   S    
O4    V2    S    
C44   C50   A    
O1    C3    A    
C38   C41   S    
C57   C59   A    
C16   H3    S    
C60   O22   S    
C67   H50   S    
C51   C53   A    
C17   C21   A    
C64   H35   S    
N7    H49   S    
C66   H46   S    
C59   O21   S    
C55   C58   A    
O17   C7    A    
