data_mof_unit_3205.cif
_audit_creation_date              2012-12-10T17:13:38-0500
_audit_creation_method            fapswitch 2.2
_symmetry_space_group_name_H-M    P1
_symmetry_Int_Tables_number       1
_space_group_crystal_system       triclinic
_cell_length_a                    10.85363
_cell_length_b                    13.050186
_cell_length_c                    11.70758
_cell_angle_alpha                 100.455068
_cell_angle_beta                  95.243379
_cell_angle_gamma                 90.540812
_cell_volume                      1623.35480438

loop_
_atom_site_label
_atom_site_type_symbol
_atom_type_description
_atom_site_fract_x
_atom_site_fract_y
_atom_site_fract_z
_atom_type_partial_charge
C1    C     C_R   0.491253 0.298882 0.478010 0.843274
C2    C     C_3   0.878202 0.486705 0.494697 -0.039240
C3    C     C_3   0.924435 0.599223 0.489172 -0.448834
C4    C     C_3   0.916941 0.406801 0.383129 0.695536
C5    C     C_R   0.482176 0.815617 0.537473 -0.109038
C6    C     C_R   0.475330 0.185061 0.465091 -0.204890
C7    C     C_R   0.444504 0.012604 0.342138 0.430936
C8    C     C_R   0.454493 0.121481 0.353889 -0.384164
C9    C     C_R   0.482270 0.138841 0.565067 0.371399
C10   C     C_R   0.464134 0.031238 0.553384 -0.034568
C11   C     C_R   0.455193 0.967082 0.442799 0.004419
C12   C     C_R   0.259744 0.500970 0.498883 0.831840
C13   C     C_R   0.461012 0.859143 0.435788 -0.235883
C14   C     C_R   0.484777 0.881840 0.649514 0.043785
C15   C     C_R   0.464872 0.987652 0.653327 -0.168173
C16   C     C_R   0.395986 0.390616 0.017110 -0.332042
C17   C     C_R   0.407427 0.401109 0.140102 0.073171
C18   C     C_R   0.536553 0.550859 0.159396 0.062976
C19   C     C_R   0.529835 0.541480 0.036196 0.008365
C20   C     C_R   0.458513 0.461220 0.963579 0.052789
C21   C     C_R   0.452811 0.454061 0.839945 -0.055024
C22   C     C_R   0.602838 0.591495 0.861921 0.656432
C23   C     C_R   0.497128 0.701485 0.522481 0.782577
C24   C     C_R   0.597222 0.608720 0.984774 -0.455853
C25   C     C_R   0.740067 0.493497 0.499157 0.783652
C26   C     C_3   0.083072 0.456558 0.604405 -0.418213
C27   C     C_3   0.942446 0.457883 0.608024 -0.463265
C28   C     C_3   0.068120 0.609219 0.499117 -0.156252
C29   C     C_3   0.065277 0.418162 0.381568 0.737152
C30   C     C_3   0.121399 0.497839 0.494741 -0.041824
Cu1   Cu    Cu3+1 0.509350 0.507730 0.615930 0.967129
Cu2   Cu    Cu3+1 0.490650 0.492270 0.384070 0.941004
H1    H     H_    0.127094 0.504182 0.686749 0.184510
H2    H     H_    0.097936 0.641489 0.425289 0.158959
H3    H     H_    0.883333 0.623920 0.408570 0.169567
H4    H     H_    0.455072 0.809216 0.350651 0.196364
H5    H     H_    0.459020 0.039341 0.735585 0.178178
H6    H     H_    0.448427 0.155704 0.275981 0.184046
H7    H     H_    0.393598 0.394904 0.783714 0.175096
H8    H     H_    0.115805 0.376209 0.605406 0.221029
H9    H     H_    0.340008 0.327034 0.964589 0.145861
H10   H     H_    0.646442 0.673549 0.041668 0.146338
H11   H     H_    0.359978 0.345468 0.179591 0.131942
H12   H     H_    0.592776 0.612647 0.214807 0.129794
H13   H     H_    0.909629 0.381951 0.624901 0.185400
H14   H     H_    0.921493 0.517256 0.683194 0.206039
H15   H     H_    0.887062 0.654697 0.559613 0.183268
N1    N     N_R   0.523430 0.519360 0.790130 -0.219165
N2    N     N_R   0.476570 0.480640 0.209880 -0.186767
O1    O     O_R   0.506640 0.354460 0.582000 -0.538623
O2    O     O_R   0.490840 0.341410 0.386200 -0.625303
O3    O     O_R   0.325590 0.506510 0.597900 -0.615314
O4    O     O_R   0.309790 0.493450 0.402100 -0.537963
O5    O     O_R   0.509160 0.658590 0.613800 -0.564685
O6    O     O_R   0.493360 0.645540 0.418000 -0.602066
O7    O     O_R   0.690210 0.506550 0.597900 -0.558280
O8    O     O_R   0.674410 0.493490 0.402100 -0.562839
O9    O     O_3   0.856885 0.437858 0.281345 -0.645894
C31   C     C_3   0.799022 0.359643 0.192824 0.131964
H16   H     H_    0.702210 0.347612 0.211065 0.173929
H17   H     H_    0.847698 0.284681 0.181681 0.154948
C32   C     C_3   0.790330 0.398958 0.077797 -0.896920
H18   H     H_    0.867643 0.369591 0.026082 0.218507
H19   H     H_    0.701362 0.371644 0.027583 0.235302
H20   H     H_    0.792011 0.485502 0.092612 0.260407
C33   C     C_3   0.518741 0.843179 0.763606 -0.354424
C34   C     C_3   0.532644 0.926206 0.876405 -0.439417
C35   C     C_3   0.578349 0.879576 0.982381 -0.771078
H21   H     H_    0.515419 0.815040 0.992151 0.267691
H22   H     H_    0.672797 0.849717 0.973658 0.249223
H23   H     H_    0.581664 0.940669 0.062106 0.273756
H24   H     H_    0.600920 0.987949 0.868236 0.224463
H25   H     H_    0.441681 0.961768 0.892324 0.220993
H26   H     H_    0.448353 0.784184 0.774484 0.216910
H27   H     H_    0.610379 0.807968 0.755143 0.270740
O10   O     O_3   0.429370 0.950690 0.232300 -0.591612
C36   C     C_3   0.301661 0.941755 0.194664 0.057090
H28   H     H_    0.271301 0.014445 0.164852 0.152214
H29   H     H_    0.244971 0.926116 0.264923 0.141456
C37   C     C_3   0.277163 0.851397 0.092520 -0.832495
H30   H     H_    0.321423 0.779908 0.113848 0.258382
H31   H     H_    0.175893 0.835957 0.073254 0.198245
H32   H     H_    0.313457 0.871144 0.013533 0.248787
O11   O     O_3   0.515282 0.197655 0.674824 -0.573364
C38   C     C_3   0.643918 0.188014 0.702184 0.071730
H33   H     H_    0.697660 0.220447 0.640601 0.146467
H34   H     H_    0.669991 0.105572 0.700967 0.136855
C39   C     C_3   0.681513 0.248763 0.822993 -0.828914
H35   H     H_    0.780676 0.236262 0.847822 0.198722
H36   H     H_    0.668268 0.333052 0.823533 0.258743
H37   H     H_    0.624567 0.222154 0.886773 0.247620
O12   O     O_3   0.680446 0.652612 0.812598 -0.573192
C40   C     C_3   0.803152 0.657930 0.867576 0.042173
H38   H     H_    0.847159 0.581599 0.845455 0.138603
H39   H     H_    0.810557 0.678840 0.963842 0.126041
C41   C     C_3   0.877155 0.742696 0.828745 -0.855330
H40   H     H_    0.845960 0.820819 0.867996 0.236006
H41   H     H_    0.976688 0.736895 0.857735 0.202425
H42   H     H_    0.864135 0.735663 0.733198 0.257234
C42   C     C_3   0.119282 0.690237 0.608288 -0.374158
C43   C     C_3   0.095425 0.803031 0.592235 -0.364577
C44   C     C_3   0.141660 0.881124 0.701643 -0.851305
H43   H     H_    0.089101 0.870646 0.775846 0.252180
H44   H     H_    0.241442 0.870852 0.725404 0.259450
H45   H     H_    0.128668 0.961690 0.685291 0.244901
H46   H     H_    0.144472 0.819841 0.518059 0.217849
H47   H     H_    0.994978 0.814177 0.572253 0.220442
H48   H     H_    0.077380 0.675453 0.686786 0.219272
H49   H     H_    0.220889 0.683365 0.624811 0.200394
O13   O     O_3   0.109857 0.440251 0.275079 -0.614200
C45   C     C_3   0.062619 0.522986 0.222087 0.060098
H50   H     H_    0.994955 0.571528 0.268683 0.155646
H51   H     H_    0.015810 0.488463 0.135722 0.191136
C46   C     C_3   0.167641 0.592303 0.198101 -0.838343
H52   H     H_    0.226130 0.547025 0.135307 0.262894
H53   H     H_    0.128338 0.657686 0.158962 0.193455
H54   H     H_    0.226195 0.625438 0.279178 0.259845
O14   O     O_3   0.118764 0.321270 0.399281 -0.602827
C47   C     C_3   0.122714 0.245569 0.296354 0.225751
H55   H     H_    0.211704 0.253935 0.258870 0.135100
H56   H     H_    0.045936 0.252023 0.228914 0.148404
C48   C     C_3   0.114672 0.137640 0.327330 -0.859378
H57   H     H_    0.039046 0.132969 0.383381 0.290420
H58   H     H_    0.095281 0.078303 0.246794 0.178112
H59   H     H_    0.202239 0.120513 0.375901 0.237162
O15   O     O_3   0.894702 0.298551 0.387492 -0.612328
C49   C     C_3   0.780994 0.264927 0.419087 0.049388
H60   H     H_    0.703085 0.275756 0.356368 0.158250
H61   H     H_    0.761866 0.303102 0.506920 0.116717
C50   C     C_3   0.789208 0.148496 0.419494 -0.842692
H62   H     H_    0.862987 0.134474 0.486651 0.239356
H63   H     H_    0.701495 0.116136 0.440399 0.210442
H64   H     H_    0.810015 0.106445 0.332367 0.253597

loop_
_geom_bond_atom_site_label_1
_geom_bond_atom_site_label_2
_ccdc_geom_bond_type
C43   H47   S    
C22   N1    A    
C40   H38   S    
C24   H10   S    
C2    C4    S    
C19   C20   A    
C25   O7    A    
Cu1   O3    S    
C26   H8    S    
C6    C9    A    
C17   H11   S    
C46   H52   S    
C7    C8    A    
C36   H28   S    
C7    C11   A    
C26   C27   S    
O15   C49   S    
C8    H6    S    
C3    C28   S    
C34   H24   S    
C2    C3    S    
C10   C15   A    
C38   C39   S    
C33   H26   S    
C41   H42   S    
C44   H45   S    
C18   C19   A    
O13   C45   S    
C15   H5    S    
C32   H19   S    
O14   C47   S    
C45   H50   S    
C35   H21   S    
C41   H41   S    
C2    C27   S    
C34   H25   S    
Cu1   O7    S    
C45   C46   S    
C1    O1    A    
Cu2   O6    S    
C5    C13   A    
C12   O4    A    
C21   N1    A    
C39   H35   S    
C27   H13   S    
C47   H56   S    
C33   C34   S    
C28   H2    S    
C42   H49   S    
C40   H39   S    
C25   O8    A    
Cu2   O8    S    
C37   H32   S    
C12   O3    A    
C36   H29   S    
C31   H17   S    
C42   H48   S    
C38   H34   S    
C34   C35   S    
C43   C44   S    
C29   O13   S    
O10   C36   S    
C13   H4    S    
C37   H31   S    
C17   N2    A    
C16   C17   A    
C6    C8    A    
O9    C31   S    
C38   H33   S    
C1    C6    S    
C50   H63   S    
C49   H61   S    
Cu2   O2    S    
C29   C30   S    
C18   H12   S    
C26   H1    S    
Cu1   Cu2   S    
C5    C23   S    
C39   H37   S    
C3    H3    S    
C16   C20   A    
C41   H40   S    
C32   H18   S    
C14   C33   S    
C45   H51   S    
O11   C38   S    
C44   H44   S    
C1    O2    A    
C5    C14   A    
C27   H14   S    
C39   H36   S    
C26   C30   S    
C40   C41   S    
Cu1   N1    S    
C22   C24   A    
C50   H64   S    
Cu1   O1    S    
C48   H58   S    
C49   H60   S    
Cu2   O4    S    
C23   O5    A    
C9    C10   A    
C47   C48   S    
C43   H46   S    
C31   C32   S    
C32   H20   S    
C12   C30   S    
C21   H7    S    
C4    C29   S    
C37   H30   S    
C46   H53   S    
C47   H55   S    
C23   O6    A    
C7    O10   S    
C29   O14   S    
C4    O15   S    
C48   H59   S    
C28   C30   S    
C19   C24   A    
C49   C50   S    
C11   C13   A    
C28   C42   S    
C36   C37   S    
C35   H23   S    
C33   H27   S    
C3    H15   S    
O12   C40   S    
C50   H62   S    
C2    C25   S    
Cu1   O5    S    
C44   H43   S    
Cu2   N2    S    
C46   H54   S    
C10   C11   A    
C9    O11   S    
C31   H16   S    
C20   C21   A    
C35   H22   S    
C4    O9    S    
C22   O12   S    
C14   C15   A    
C42   C43   S    
C48   H57   S    
C16   H9    S    
C18   N2    A    
