data_mof_unit_1732.cif
_audit_creation_date              2012-10-26T19:21:30-0400
_audit_creation_method            fapswitch 2.2
_symmetry_space_group_name_H-M    P1
_symmetry_Int_Tables_number       1
_space_group_crystal_system       triclinic
_cell_length_a                    9.947084
_cell_length_b                    11.073728
_cell_length_c                    15.790773
_cell_angle_alpha                 96.518401
_cell_angle_beta                  79.034654
_cell_angle_gamma                 111.039187
_cell_volume                      1591.83609033

loop_
_atom_site_label
_atom_site_type_symbol
_atom_type_description
_atom_site_fract_x
_atom_site_fract_y
_atom_site_fract_z
_atom_type_partial_charge
C1    C     C_R   0.555589 0.744267 0.506005 0.542458
C2    C     C_2   0.505872 0.066713 0.513289 0.163359
C3    C     C_2   0.932723 0.503725 0.485070 0.128846
C4    C     C_2   0.081892 0.520107 0.502660 0.137201
C5    C     C_R   0.412161 0.487215 0.662653 0.553739
C6    C     C_R   0.588339 0.515381 0.337583 0.555021
C7    C     C_R   0.361030 0.483244 0.756498 -0.009633
C8    C     C_R   0.642820 0.537432 0.245310 -0.007425
C9    C     C_R   0.167102 0.453144 0.880417 0.020201
C10   C     C_R   0.841958 0.622846 0.127765 0.029208
C11   C     C_R   0.214288 0.458725 0.791102 -0.135375
C12   C     C_R   0.444711 0.255259 0.493700 0.549404
C13   C     C_R   0.791896 0.591646 0.214326 -0.146571
C14   C     C_R   0.462279 0.504768 0.811653 -0.142592
C15   C     C_R   0.542373 0.514023 0.189423 -0.136033
C16   C     C_R   0.422620 0.509908 0.901768 0.019644
C17   C     C_R   0.586768 0.547896 0.103005 0.018627
C18   C     C_R   0.272107 0.481553 0.936787 0.072603
C19   C     C_R   0.738860 0.596220 0.070453 0.078744
C20   C     C_R   0.529149 0.540931 0.957622 0.041680
C21   C     C_R   0.482569 0.530757 0.047888 0.041122
C22   C     C_2   0.007015 0.414792 0.909645 0.211202
C23   C     C_R   0.334008 0.508963 0.080885 -0.143661
C24   C     C_2   0.002020 0.687585 0.103088 0.211780
C25   C     C_3   0.731392 0.179391 0.574847 -0.262684
C26   C     C_3   0.355519 0.830347 0.371684 -0.300136
C27   C     C_2   0.151064 0.637225 0.555370 0.319780
C28   C     C_2   0.901892 0.450721 0.398131 0.310347
C29   C     C_3   0.126768 0.286001 0.350217 -0.223121
C30   C     C_3   0.864920 0.699361 0.658528 -0.230015
C31   C     C_R   0.680937 0.584507 0.926514 -0.143330
C32   C     C_R   0.232075 0.486641 0.026736 -0.089944
C33   C     C_R   0.782685 0.612667 0.981608 -0.087038
C34   C     C_2   0.574899 0.879697 0.523376 -0.093682
C35   C     C_2   0.424802 0.118162 0.479459 -0.077804
C36   C     C_2   0.520824 0.941449 0.477310 0.140306
Cu1   Cu    Cu3+1 0.362980 0.479380 0.485080 0.963900
Cu2   Cu    Cu3+1 0.637020 0.520620 0.514920 0.967481
H1    H     H_    0.121913 0.475232 0.057208 0.167286
H2    H     H_    0.611036 0.920320 0.584310 0.109452
H3    H     H_    0.940554 0.437715 0.871165 0.101406
H4    H     H_    0.075775 0.669628 0.138606 0.089213
H5    H     H_    0.522150 0.183072 0.629929 0.256434
H6    H     H_    0.771146 0.286378 0.583372 0.174951
H7    H     H_    0.780310 0.151792 0.509603 0.179444
H8    H     H_    0.769017 0.140787 0.624168 0.123402
H9    H     H_    0.577554 0.859608 0.355693 0.254083
H10   H     H_    0.333285 0.724309 0.365491 0.155803
H11   H     H_    0.345284 0.861356 0.309531 0.151401
H12   H     H_    0.896060 0.643066 0.952280 0.171506
H13   H     H_    0.272129 0.850840 0.422501 0.114233
H14   H     H_    0.162918 0.731297 0.535743 0.054989
H15   H     H_    0.971783 0.500630 0.341954 0.038074
H16   H     H_    0.066622 0.257441 0.481471 0.256819
H17   H     H_    0.046980 0.191985 0.331027 0.135903
H18   H     H_    0.234325 0.274527 0.344934 0.171407
H19   H     H_    0.135688 0.359538 0.305109 0.136201
H20   H     H_    0.790604 0.498746 0.660793 0.255719
H21   H     H_    0.897654 0.714926 0.723408 0.127198
H22   H     H_    0.756081 0.708615 0.665081 0.172182
H23   H     H_    0.428857 0.465473 0.214278 0.120825
H24   H     H_    0.945475 0.775659 0.616617 0.136040
H25   H     H_    0.572254 0.515323 0.782333 0.118127
H26   H     H_    0.869695 0.613998 0.258445 0.100205
H27   H     H_    0.135066 0.439424 0.748168 0.148343
H28   H     H_    0.293882 0.514644 0.149153 0.090486
H29   H     H_    0.726510 0.602574 0.859760 0.094290
H30   H     H_    0.359325 0.066132 0.430748 0.088728
N1    N     N_2   0.842890 0.551600 0.537350 -0.179443
N2    N     N_2   0.157110 0.448400 0.462650 -0.178850
N3    N     N_2   0.573189 0.129476 0.586920 -0.525566
N4    N     N_2   0.502225 0.898812 0.389650 -0.505411
N5    N     N_2   0.076954 0.323852 0.437732 -0.426760
N6    N     N_2   0.861735 0.572407 0.622771 -0.423249
O1    O     O_R   0.426810 0.668300 0.492040 -0.479997
O2    O     O_2   0.053251 0.767595 0.047807 -0.505442
O3    O     O_2   0.180137 0.629346 0.625626 -0.489347
O4    O     O_2   0.806354 0.346468 0.388260 -0.470640
O5    O     O_R   0.573190 0.331700 0.507960 -0.433969
O6    O     O_R   0.658240 0.703130 0.517240 -0.513801
O7    O     O_R   0.341760 0.296870 0.482760 -0.524388
O8    O     O_R   0.319390 0.472820 0.610170 -0.445389
O9    O     O_R   0.680610 0.527180 0.389830 -0.480243
O10   O     O_R   0.550820 0.507640 0.635370 -0.531499
O11   O     O_R   0.449180 0.492360 0.364630 -0.521793
O12   O     O_2   0.946145 0.350216 0.972641 -0.505975

loop_
_geom_bond_atom_site_label_1
_geom_bond_atom_site_label_2
_ccdc_geom_bond_type
C2    C35   D    
C8    C13   A    
Cu2   O9    S    
C26   N4    S    
C4    N2    D    
C31   H29   S    
C6    O11   A    
C34   H2    S    
C23   H28   S    
Cu1   O11   S    
C3    C28   S    
C3    N1    D    
C30   N6    S    
C9    C22   S    
C22   H3    S    
C29   N5    S    
Cu2   O5    S    
C36   N4    S    
C12   O5    A    
C24   H4    S    
C32   H1    S    
C7    C14   A    
C30   H22   S    
C31   C33   A    
C25   N3    S    
C28   O4    D    
C26   H10   S    
Cu1   O1    S    
Cu2   N1    S    
Cu1   N2    S    
Cu1   O7    S    
C25   H6    S    
C1    C34   S    
C1    O1    A    
C19   C33   A    
C26   H11   S    
C5    C7    S    
C5    O10   A    
C24   O2    D    
C6    C8    S    
C29   H17   S    
C10   C24   S    
C33   H12   S    
C17   C21   A    
C7    C11   A    
Cu1   Cu2   S    
H16   N5    S    
C10   C19   A    
C16   C20   A    
C30   H21   S    
N2    N5    S    
C15   H23   S    
N1    N6    S    
C12   C35   S    
C9    C11   A    
C29   H19   S    
C8    C15   A    
C30   H24   S    
C14   C16   A    
Cu1   O8    S    
C18   C32   A    
C3    C4    S    
C25   H7    S    
C4    C27   S    
C27   H14   S    
H20   N6    S    
C2    C36   S    
C15   C17   A    
H5    N3    S    
C6    O9    A    
Cu2   O10   S    
C27   O3    D    
C10   C13   A    
C28   H15   S    
C29   H18   S    
C23   C32   A    
C21   C23   A    
C26   H13   S    
C5    O8    A    
C13   H26   S    
Cu2   O6    S    
C35   H30   S    
C14   H25   S    
C17   C19   A    
C12   O7    A    
C34   C36   D    
C22   O12   D    
H9    N4    S    
C11   H27   S    
C9    C18   A    
C20   C21   A    
C16   C18   A    
C1    O6    A    
C25   H8    S    
C2    N3    S    
C20   C31   A    
