data_mof_unit_4595.cif
_audit_creation_date              2012-12-11T20:10:34-0500
_audit_creation_method            fapswitch 2.2
_symmetry_space_group_name_H-M    P1
_symmetry_Int_Tables_number       1
_space_group_crystal_system       triclinic
_cell_length_a                    8.33262
_cell_length_b                    16.22253
_cell_length_c                    18.794553
_cell_angle_alpha                 111.965652
_cell_angle_beta                  91.735254
_cell_angle_gamma                 82.82242
_cell_volume                      2337.31362649

loop_
_atom_site_label
_atom_site_type_symbol
_atom_type_description
_atom_site_fract_x
_atom_site_fract_y
_atom_site_fract_z
_atom_type_partial_charge
Ba1   Ba    Ba6+2 0.333520 0.539550 0.472180 1.583574
Ba2   Ba    Ba6+2 0.856270 0.460520 0.527840 1.608039
C1    C     C_3   0.944403 0.814706 0.266439 -0.373235
C2    C     C_R   0.427413 0.423565 0.082814 0.032670
C3    C     C_R   0.284438 0.387166 0.052866 -0.082259
C4    C     C_3   0.488738 0.708212 0.306261 0.374986
C5    C     C_R   0.221344 0.392707 0.984730 -0.092558
C6    C     C_R   0.301452 0.433287 0.944261 0.028174
C7    C     C_R   0.444073 0.470947 0.973912 0.008736
C8    C     C_R   0.241633 0.435607 0.874325 -0.104121
C9    C     C_R   0.325288 0.471878 0.830812 -0.039593
C10   C     C_R   0.465910 0.512808 0.861591 0.003112
C11   C     C_R   0.524151 0.512379 0.933615 -0.000923
C12   C     C_3   0.983649 0.758102 0.315464 0.361709
C13   C     C_R   0.275604 0.465923 0.756448 0.002530
C14   C     C_R   0.366037 0.499402 0.713961 -0.282211
C15   C     C_R   0.502105 0.542817 0.743674 0.018587
C16   C     C_3   0.434474 0.723617 0.233066 -0.181307
C17   C     C_R   0.551082 0.551751 0.819709 -0.049212
C18   C     C_R   0.648358 0.504721 0.074307 -0.000352
C19   C     C_R   0.709972 0.500740 0.144683 -0.002245
C20   C     C_R   0.627952 0.459159 0.185344 -0.059599
C21   C     C_R   0.491707 0.417056 0.150934 -0.037539
C22   C     C_R   0.684041 0.596321 0.854896 -0.060185
C23   C     C_3   0.216831 0.258646 0.257295 0.230113
C24   C     C_R   0.743269 0.594249 0.925391 0.019426
C25   C     C_R   0.665259 0.550989 0.964362 0.005296
C26   C     C_R   0.728469 0.546663 0.034201 0.001031
C27   C     C_R   0.882462 0.633379 0.956665 -0.084448
C28   C     C_3   0.450349 0.746555 0.738390 0.265818
C29   C     C_R   0.951959 0.625796 0.023101 0.063338
C30   C     C_R   0.873446 0.582852 0.063053 0.029322
C31   C     C_R   0.854378 0.537746 0.173665 -0.052575
C32   C     C_R   0.936124 0.575656 0.131106 -0.126803
C33   C     C_R   0.916932 0.533034 0.243074 0.016800
C34   C     C_3   0.301031 0.165395 0.211870 -0.392889
C35   C     C_R   0.842559 0.485887 0.279803 -0.222642
C36   C     C_R   0.689250 0.457802 0.257116 0.053558
C37   C     C_2   0.389814 0.232424 0.478065 -0.261313
C38   C     C_R   0.767497 0.762377 0.542549 -0.231740
C39   C     C_2   0.257115 0.109497 0.386612 -0.151402
C40   C     C_3   0.457781 0.800249 0.824080 -0.430807
C41   C     C_2   0.262033 0.197738 0.421948 0.041097
C42   C     C_2   0.520941 0.178676 0.484587 -0.010043
C43   C     C_3   0.538138 0.079244 0.435520 -0.036269
C44   C     C_3   0.376947 0.042874 0.404541 0.014601
C45   C     C_3   0.614118 0.247542 0.677441 0.402039
C46   C     C_2   0.644216 0.022466 0.470896 -0.082426
C47   C     C_2   0.589295 0.963233 0.495783 -0.085189
C48   C     C_R   0.842626 0.931552 0.560818 -0.019804
C49   C     C_R   0.698497 0.903366 0.524271 -0.035858
C50   C     C_R   0.953544 0.873733 0.582666 -0.144048
C51   C     C_R   0.920875 0.786979 0.569459 0.056131
C52   C     C_3   0.616081 0.258609 0.338257 0.342373
C53   C     C_R   0.661581 0.817105 0.514090 0.032007
C54   C     C_3   0.708390 0.165017 0.303646 -0.361688
C55   C     C_3   0.024144 0.680434 0.717886 0.279882
C56   C     C_3   0.538359 0.176836 0.697196 -0.183594
C57   C     C_3   0.063531 0.697678 0.801597 -0.228427
C58   C     C_3   0.035867 0.818238 0.393931 -0.283750
C59   C     C_3   0.985141 0.789335 0.855437 -0.417803
C60   C     C_3   0.558670 0.764195 0.203133 -0.455251
C61   C     C_3   0.688368 0.313358 0.747910 -0.293773
C62   C     C_3   0.658194 0.119093 0.727748 -0.396412
C63   C     C_3   0.159677 0.071956 0.575310 -0.481145
C64   C     C_3   0.109304 0.664215 0.049529 -0.418164
C65   C     C_3   0.936558 0.456281 0.337745 -0.234505
C66   C     C_3   0.709768 0.682868 0.551424 -0.216511
C67   C     C_3   0.127691 0.238661 0.646077 0.360208
C68   C     C_3   0.121383 0.148025 0.652526 -0.227032
C69   C     C_R   0.506177 0.467014 0.043992 -0.001290
H1    H     H_    0.549997 0.847299 0.835467 0.120520
H2    H     H_    0.195406 0.691601 0.810802 0.083169
H3    H     H_    0.018941 0.643963 0.815271 0.085257
H4    H     H_    0.841805 0.867537 0.292445 0.085213
H5    H     H_    0.173233 0.290385 0.216029 0.032802
H6    H     H_    0.301347 0.301501 0.294829 0.077801
H7    H     H_    0.215031 0.124807 0.171544 0.119035
H8    H     H_    0.404523 0.170346 0.178452 0.102811
H9    H     H_    0.346291 0.131446 0.251202 0.092694
H10   H     H_    0.911338 0.771992 0.208053 0.105600
H11   H     H_    0.513114 0.286995 0.659398 -0.059224
H12   H     H_    0.338263 0.839378 0.845475 0.098082
H13   H     H_    0.439905 0.210852 0.740666 0.078057
H14   H     H_    0.484447 0.131925 0.644389 0.093585
H15   H     H_    0.250537 0.241317 0.626263 -0.057006
H16   H     H_    0.209309 0.139375 0.695384 0.104172
H17   H     H_    0.411491 0.660680 0.312776 0.115447
H18   H     H_    0.999600 0.144872 0.672674 0.148249
H19   H     H_    0.220755 0.354657 0.082399 0.059562
H20   H     H_    0.110612 0.364137 0.963138 0.071535
H21   H     H_    0.327978 0.492629 0.656680 0.073741
H22   H     H_    0.433726 0.378531 0.176394 0.093587
H23   H     H_    0.489370 0.754651 0.855375 0.098402
H24   H     H_    0.744709 0.631427 0.827096 0.090397
H25   H     H_    0.051035 0.598746 0.150162 0.123633
H26   H     H_    0.616577 0.676941 0.300106 -0.059493
H27   H     H_    0.065441 0.896048 0.608960 0.086849
H28   H     H_    0.383156 0.304161 0.509643 0.062920
H29   H     H_    0.772656 0.028490 0.473146 0.102748
H30   H     H_    0.462045 0.954947 0.491426 0.105616
H31   H     H_    0.413068 0.658577 0.187681 0.092032
H32   H     H_    0.319529 0.769257 0.244369 0.150202
H33   H     H_    0.358702 0.700290 0.727268 0.038273
H34   H     H_    0.495222 0.253210 0.356687 -0.086139
H35   H     H_    0.943298 0.876790 0.418594 0.047943
H36   H     H_    0.051663 0.780001 0.432068 0.126749
H37   H     H_    0.151491 0.843310 0.389197 0.154291
H38   H     H_    0.827787 0.168201 0.280965 0.151613
H39   H     H_    0.067999 0.609029 0.684111 0.057633
H40   H     H_    0.023725 0.843206 0.839324 0.151014
H41   H     H_    0.851285 0.792505 0.852918 0.122143
H42   H     H_    0.022684 0.800918 0.915247 0.115038
H43   H     H_    0.871798 0.730132 0.321543 -0.020689
H44   H     H_    0.581559 0.829621 0.247118 0.155992
H45   H     H_    0.679378 0.297447 0.389769 0.104306
H46   H     H_    0.671806 0.717388 0.187755 0.130458
H47   H     H_    0.512759 0.774850 0.150762 0.127079
H48   H     H_    0.713925 0.371898 0.735313 0.143003
H49   H     H_    0.603737 0.336773 0.797848 0.052225
H50   H     H_    0.803215 0.281770 0.763140 0.135837
H51   H     H_    0.596270 0.065810 0.734830 0.113462
H52   H     H_    0.703922 0.159942 0.784488 0.115435
H53   H     H_    0.761246 0.086658 0.687017 0.154437
H54   H     H_    0.037699 0.245227 0.603323 0.129316
H55   H     H_    0.272934 0.080191 0.550823 0.121324
H56   H     H_    0.639761 0.121230 0.255926 0.092125
H57   H     H_    0.176623 0.006918 0.582820 0.147675
H58   H     H_    0.059795 0.071565 0.534768 0.168055
H59   H     H_    0.130662 0.407277 0.853967 0.117777
H60   H     H_    0.938760 0.669940 0.929263 0.068319
H61   H     H_    0.156383 0.691043 0.008941 0.112904
H62   H     H_    0.092167 0.719635 0.106252 0.116774
H63   H     H_    0.203001 0.611549 0.053856 0.125074
H64   H     H_    0.904786 0.391511 0.335365 0.117036
H65   H     H_    0.067940 0.442586 0.324260 0.124569
H66   H     H_    0.912491 0.507083 0.396375 0.133154
H67   H     H_    0.728305 0.134953 0.347736 0.083907
H68   H     H_    0.163949 0.084827 0.345139 0.070486
H69   H     H_    0.764635 0.672185 0.601173 0.110082
H70   H     H_    0.578441 0.695184 0.565175 0.146864
H71   H     H_    0.741578 0.621780 0.499687 0.127740
H72   H     H_    0.412153 0.793585 0.708999 0.075367
H73   H     H_    0.892853 0.695730 0.714170 0.093666
H74   H     H_    0.050435 0.847564 0.261461 0.108289
O1    O     O_2   0.402610 0.439360 0.314250 -0.474604
O2    O     O_2   0.851874 0.189766 0.490834 -0.500338
O3    O     O_3   0.735870 0.204345 0.620479 -0.603015
O4    O     O_3   0.648560 0.446300 0.404730 -0.510056
O5    O     O_3   0.025080 0.609480 0.556050 -0.508427
O6    O     O_2   0.948320 0.280590 0.426090 -0.449912
O7    O     O_3   0.082337 0.252817 0.297277 -0.643610
O8    O     O_2   0.941025 0.467079 0.750997 -0.490438
O9    O     O_3   0.090602 0.307170 0.717816 -0.630991
O10   O     O_3   0.108870 0.604000 0.387500 -0.482092
O11   O     O_2   0.246815 0.531189 0.250210 -0.498343
O12   O     O_3   0.097554 0.737128 0.692431 -0.657406
O13   O     O_3   0.600725 0.296186 0.281722 -0.647945
O14   O     O_3   0.113021 0.691884 0.280192 -0.618981
O15   O     O_2   0.241370 0.719440 0.573960 -0.449287
O16   O     O_3   0.507090 0.652150 0.432150 -0.508677
O17   O     O_2   0.327324 0.809467 0.499061 -0.498876
O18   O     O_3   0.469335 0.789769 0.369967 -0.622759
O19   O     O_2   0.787080 0.560670 0.685800 -0.475482
O20   O     O_3   0.541120 0.553770 0.595290 -0.479034
O21   O     O_3   0.080800 0.396070 0.612520 -0.480718
O22   O     O_3   0.603963 0.702688 0.710160 -0.656450
O23   O     O_3   0.164600 0.390590 0.443970 -0.479074
O24   O     O_3   0.682580 0.347920 0.567870 -0.472061
P1    P     P_3+3 0.582960 0.413890 0.320860 0.959169
P2    P     P_3+3 0.071690 0.707860 0.593450 0.962774
P3    P     P_3+3 0.489566 0.768025 0.454948 0.915523
P4    P     P_3+3 0.606720 0.586180 0.679160 0.955395
P5    P     P_3+3 0.694859 0.231071 0.539228 0.927964
P6    P     P_3+3 0.092578 0.590775 0.290657 0.908035
P7    P     P_3+3 0.123059 0.278436 0.395021 0.927674
P8    P     P_3+3 0.097718 0.410718 0.709424 0.921227

loop_
_geom_bond_atom_site_label_1
_geom_bond_atom_site_label_2
_ccdc_geom_bond_type
Ba2   O5    S    
C29   C64   S    
O11   P6    D    
Ba2   O24   S    
C53   P3    S    
C4    O18   S    
O2    P5    D    
C5    C6    A    
C43   C44   S    
C42   C43   S    
C24   C25   A    
C23   O7    S    
C23   H6    S    
C33   C35   A    
C42   P5    S    
C28   O22   S    
Ba2   P4    S    
C47   H30   S    
C55   C57   S    
C19   C31   A    
O20   P4    S    
C63   C68   S    
C20   C36   A    
Ba1   P1    S    
C4    H17   S    
Ba1   Ba2   S    
C16   H31   S    
C45   H11   S    
Ba1   O10   S    
O8    P8    D    
C7    C11   A    
C60   H46   S    
C55   O12   S    
C15   C17   A    
C64   H63   S    
O16   P3    S    
C9    C13   A    
C55   H39   S    
C6    C7    A    
C47   C49   S    
C52   H45   S    
C1    H10   S    
C48   C50   A    
O24   P5    S    
C18   C69   A    
Ba1   O4    S    
C1    H4    S    
C57   H2    S    
C3    H19   S    
C52   H34   S    
O22   P4    S    
Ba2   O4    S    
C67   H54   S    
O14   P6    S    
C19   C20   A    
C39   C41   D    
Ba1   O1    S    
C46   H29   S    
C68   H16   S    
C26   C30   A    
C61   H50   S    
C15   P4    S    
C36   P1    S    
C64   H61   S    
Ba1   O15   S    
C56   C62   S    
C4    C16   S    
C52   C54   S    
C57   C59   S    
C60   H47   S    
O4    P1    S    
C63   H57   S    
C66   H70   S    
C34   H9    S    
C22   H24   S    
Ba2   O19   S    
C3    C5    A    
C2    C21   A    
O13   P1    S    
C37   C41   S    
C18   C26   A    
Ba1   O23   S    
C12   H43   S    
Ba1   P2    S    
O3    P5    S    
C28   H72   S    
C21   H22   S    
C30   C32   A    
C65   H64   S    
C8    H59   S    
O19   P4    D    
C35   C36   A    
C56   H13   S    
C52   O13   S    
C64   H62   S    
C54   H67   S    
C41   P7    S    
C37   H28   S    
O5    P2    S    
Ba2   O20   S    
Ba1   O20   S    
C39   C44   S    
C38   C53   A    
C5    H20   S    
C40   H1    S    
C48   C49   A    
Ba1   O5    S    
O21   P8    S    
C10   C11   A    
C66   H71   S    
O18   P3    S    
C58   H36   S    
C57   H3    S    
C1    C12   S    
C6    C8    A    
C46   C47   D    
C1    H74   S    
O1    P1    D    
C59   H42   S    
C66   H69   S    
C68   H18   S    
C59   H40   S    
C56   H14   S    
Ba2   O23   S    
C54   H38   S    
C58   H35   S    
C50   C51   A    
C4    H26   S    
C43   C46   S    
O10   P6    S    
Ba2   O6    S    
O23   P7    S    
Ba2   O21   S    
C45   O3    S    
O6    P7    D    
C55   H73   S    
C40   H23   S    
C28   C40   S    
C29   C30   A    
C16   C60   S    
C40   H12   S    
C7    C69   A    
C22   C24   A    
C2    C3    A    
C34   H8    S    
C58   H37   S    
C63   H58   S    
C9    C10   A    
C38   C51   A    
C14   H21   S    
C37   C42   D    
C62   H52   S    
C12   C58   S    
C67   O9    S    
C12   O14   S    
C23   H5    S    
C33   P6    S    
C63   H55   S    
C13   P8    S    
C17   C22   A    
C60   H44   S    
C54   H56   S    
C62   H53   S    
O12   P2    S    
C45   C56   S    
C45   C61   S    
C61   H49   S    
C27   H60   S    
C62   H51   S    
C35   C65   S    
C10   C17   A    
C50   H27   S    
C31   C33   A    
O15   P2    D    
C31   C32   A    
C65   H65   S    
C49   C53   A    
C16   H32   S    
C67   C68   S    
C65   H66   S    
C39   H68   S    
C8    C9    A    
C51   P2    S    
C23   C34   S    
Ba1   O16   S    
O7    P7    S    
O17   P3    D    
C18   C19   A    
C24   C27   A    
C27   C29   A    
C61   H48   S    
C38   C66   S    
O9    P8    S    
C28   H33   S    
C25   C26   A    
C20   C21   A    
C11   C25   A    
C34   H7    S    
C59   H41   S    
C2    C69   A    
C32   H25   S    
C67   H15   S    
C13   C14   A    
C14   C15   A    
