data_mof_unit_4392.cif
_audit_creation_date              2012-12-11T20:41:08-0500
_audit_creation_method            fapswitch 2.2
_symmetry_space_group_name_H-M    P1
_symmetry_Int_Tables_number       1
_space_group_crystal_system       triclinic
_cell_length_a                    8.228979
_cell_length_b                    18.982486
_cell_length_c                    26.943315
_cell_angle_alpha                 96.927944
_cell_angle_beta                  93.055675
_cell_angle_gamma                 85.765578
_cell_volume                      4162.39376095

loop_
_atom_site_label
_atom_site_type_symbol
_atom_type_description
_atom_site_fract_x
_atom_site_fract_y
_atom_site_fract_z
_atom_type_partial_charge
Ba1   Ba    Ba6+2 0.852670 0.466460 0.522850 1.702557
Ba2   Ba    Ba6+2 0.337150 0.533490 0.477140 1.663387
Br1   Br    Br    0.995198 0.317617 0.738254 -0.494219
C1    C     C_3   0.610112 0.219187 0.658783 -0.322458
C2    C     C_R   0.909178 0.569772 0.177607 0.572664
C3    C     C_2   0.755598 0.546521 0.272052 -0.082404
C4    C     C_3   0.166145 0.258234 0.651156 0.328039
C5    C     C_3   0.741685 0.569589 0.327252 -0.041737
C6    C     C_1   0.977279 0.486879 0.341658 -0.016649
C7    C     C_2   0.016319 0.484100 0.293831 -0.133423
C8    C     C_2   0.897044 0.512999 0.255387 0.207491
C9    C     C_R   0.014144 0.504949 0.100736 -0.080004
C10   C     C_R   0.041157 0.443969 0.125948 -0.033395
C11   C     C_R   0.107694 0.381181 0.099707 -0.060561
C12   C     C_3   0.609515 0.290276 0.638098 0.428501
C13   C     C_R   0.947213 0.568036 0.126951 -0.024525
C14   C     C_2   0.844889 0.522938 0.359447 -0.276857
C15   C     C_2   0.353563 0.482900 0.641474 -0.268595
C16   C     C_3   0.111678 0.238152 0.700511 0.139699
C17   C     C_R   0.160226 0.436949 0.971753 0.019346
C18   C     C_R   0.066818 0.563770 0.973633 0.021821
C19   C     C_R   0.133793 0.499596 0.947381 0.053159
C20   C     C_R   0.225463 0.374421 0.943499 -0.094495
C21   C     C_R   0.264647 0.373636 0.893707 -0.033749
C22   C     C_R   0.241071 0.435055 0.869461 -0.030477
C23   C     C_3   0.516102 0.644334 0.630377 0.304980
C24   C     C_R   0.175086 0.498156 0.896171 -0.076384
C25   C     C_R   0.150668 0.559914 0.871676 -0.024166
C26   C     C_R   0.193896 0.558113 0.821384 0.587926
C27   C     C_R   0.282260 0.434629 0.819013 0.647988
C28   C     C_3   0.179860 0.319195 0.335616 0.258011
C29   C     C_2   0.462340 0.484191 0.730270 -0.097104
C30   C     C_3   0.503595 0.488752 0.676208 -0.104046
C31   C     C_1   0.213799 0.512920 0.657327 0.039041
C32   C     C_2   0.174795 0.511877 0.704437 -0.043720
C33   C     C_2   0.304071 0.495519 0.743806 0.207617
C34   C     C_3   0.500818 0.670978 0.685615 -0.366522
C35   C     C_R   0.120952 0.438777 0.023144 0.020927
C36   C     C_R   0.053832 0.502979 0.049320 0.049871
C37   C     C_R   0.025891 0.565354 0.024712 0.020962
C38   C     C_R   0.146760 0.378527 0.049705 -0.096574
C39   C     C_R   0.919597 0.628783 0.102156 -0.059681
C40   C     C_3   0.033684 0.293440 0.303075 -0.397923
C41   C     C_R   0.043534 0.624561 0.947599 -0.097929
C42   C     C_R   0.084487 0.622533 0.897999 -0.054406
C43   C     C_R   0.957600 0.627607 0.052423 -0.100844
C44   C     C_2   0.388026 0.296720 0.509280 -0.190337
C45   C     C_3   0.068084 0.683924 0.342139 0.342400
C46   C     C_3   0.326144 0.255653 0.547902 -0.060798
C47   C     C_2   0.369832 0.176713 0.537211 -0.126335
C48   C     C_2   0.500409 0.153296 0.509529 -0.060942
C49   C     C_2   0.584156 0.206199 0.484729 -0.116269
C50   C     C_1   0.524745 0.273458 0.487610 0.049008
C51   C     C_R   0.662407 0.936151 0.496775 0.454289
C52   C     C_3   0.014096 0.682793 0.583430 0.298097
C53   C     C_R   0.560890 0.077051 0.505019 0.466990
C54   C     C_R   0.615186 0.809495 0.512564 -0.132505
C55   C     C_R   0.662684 0.736315 0.506977 0.015744
C56   C     C_3   0.082192 0.702939 0.289384 -0.310218
C57   C     C_R   0.895980 0.757059 0.461363 0.015469
C58   C     C_R   0.850097 0.830365 0.465891 -0.128846
C59   C     C_R   0.708247 0.857775 0.491222 -0.082089
C60   C     C_R   0.797450 0.710649 0.479677 -0.277591
C61   C     C_3   0.995841 0.762904 0.597727 -0.367513
C62   C     C_3   0.672847 0.380197 0.372628 0.304061
C63   C     C_3   0.631130 0.371400 0.316590 -0.388748
C64   C     C_1   0.594002 0.478415 0.767688 0.360250
C65   C     C_1   0.471710 0.833511 0.540422 0.372202
C66   C     C_1   0.296981 0.258381 0.341724 0.295136
C67   C     C_3   0.530599 0.724184 0.365430 0.354334
C68   C     C_3   0.491218 0.796432 0.347068 -0.354571
C69   C     C_R   0.000697 0.446884 0.176830 0.595774
H1    H     H_    0.689813 0.283148 0.605672 0.059398
H2    H     H_    0.806345 0.380162 0.378820 0.012963
H3    H     H_    0.613689 0.431790 0.388724 0.064640
H4    H     H_    0.736013 0.201866 0.671112 0.144805
H5    H     H_    0.667120 0.316498 0.299847 0.133515
H6    H     H_    0.694982 0.409554 0.297960 0.069593
H7    H     H_    0.498693 0.382212 0.309506 0.123054
H8    H     H_    0.483256 0.306995 0.626262 -0.137585
H9    H     H_    0.564935 0.178260 0.629416 0.060332
H10   H     H_    0.392843 0.632311 0.614359 0.027615
H11   H     H_    0.599099 0.595335 0.626587 0.029384
H12   H     H_    0.954085 0.339773 0.293456 0.115248
H13   H     H_    0.426619 0.722477 0.689826 0.144590
H14   H     H_    0.439661 0.632318 0.704669 0.073064
H15   H     H_    0.623675 0.678473 0.703778 0.124601
H16   H     H_    0.530516 0.224059 0.691206 0.124438
H17   H     H_    0.220793 0.222522 0.723809 0.048567
H18   H     H_    0.143801 0.633724 0.345916 0.092051
H19   H     H_    0.938464 0.675887 0.347593 -0.058972
H20   H     H_    0.199501 0.726646 0.285651 0.147973
H21   H     H_    0.078284 0.654057 0.262537 0.118849
H22   H     H_    0.980438 0.741613 0.280128 0.121657
H23   H     H_    0.074184 0.263225 0.267422 0.118935
H24   H     H_    0.665301 0.713502 0.365494 -0.064700
H25   H     H_    0.489605 0.726897 0.404293 0.074906
H26   H     H_    0.557240 0.837444 0.371457 0.082610
H27   H     H_    0.358409 0.811196 0.348227 0.153875
H28   H     H_    0.216797 0.311523 0.657975 0.030995
H29   H     H_    0.529910 0.795060 0.308079 0.122219
H30   H     H_    0.137269 0.463863 0.282714 0.116604
H31   H     H_    0.130413 0.333279 0.117882 0.120575
H32   H     H_    0.314443 0.324156 0.874162 0.129244
H33   H     H_    0.248009 0.324498 0.958603 0.071253
H34   H     H_    0.962683 0.258986 0.323101 0.128559
H35   H     H_    0.197879 0.327909 0.033095 0.071129
H36   H     H_    0.662628 0.566369 0.246165 0.116624
H37   H     H_    0.867840 0.678212 0.121260 0.123552
H38   H     H_    0.994236 0.675397 0.964334 0.069951
H39   H     H_    0.262954 0.217433 0.638070 -0.091963
H40   H     H_    0.064090 0.670906 0.880255 0.123517
H41   H     H_    0.050594 0.525959 0.715373 0.122135
H42   H     H_    0.931026 0.677066 0.037009 0.070188
H43   H     H_    0.826938 0.531739 0.399379 0.074895
H44   H     H_    0.359896 0.453806 0.604270 0.069446
H45   H     H_    0.895153 0.663358 0.569653 0.002459
H46   H     H_    0.305948 0.140312 0.556074 0.095521
H47   H     H_    0.690957 0.188902 0.463287 0.110243
H48   H     H_    0.927688 0.865962 0.451338 0.103763
H49   H     H_    0.321299 0.345336 0.500066 0.074342
H50   H     H_    0.833642 0.654349 0.476361 0.056251
H51   H     H_    0.033885 0.192302 0.693606 0.064335
H52   H     H_    0.241208 0.356803 0.315717 0.005645
H53   H     H_    0.102316 0.671004 0.553422 0.075498
H54   H     H_    0.898980 0.776400 0.625141 0.134068
H55   H     H_    0.962871 0.790368 0.564265 0.071364
H56   H     H_    0.112839 0.782174 0.614650 0.143137
N1    N     N_R   0.935846 0.509570 0.202495 -0.421337
N2    N     N_R   0.259671 0.495988 0.795623 -0.430498
N3    N     N_R   0.570095 0.966448 0.534981 -0.239524
N4    N     N_R   0.519867 0.034991 0.538949 -0.243542
N5    N     N_R   0.657844 0.047747 0.467476 -0.232226
N6    N     N_R   0.707264 0.978651 0.463348 -0.237511
N7    N     N_1   0.699440 0.473823 0.797559 -0.253242
N8    N     N_1   0.356993 0.852425 0.562747 -0.274774
N9    N     N_1   0.389058 0.210318 0.346550 -0.284060
O1    O     O_2   0.914730 0.537460 0.618690 -0.467372
O2    O     O_2   0.234812 0.752362 0.469127 -0.481595
O3    O     O_3   0.123584 0.739198 0.376699 -0.599825
O4    O     O_3   0.146720 0.537410 0.558510 -0.493747
O5    O     O_3   0.553920 0.415280 0.473710 -0.486847
O6    O     O_2   0.383540 0.672140 0.526840 -0.464954
O7    O     O_3   0.580453 0.697315 0.606869 -0.639018
O8    O     O_2   0.410121 0.534676 0.323377 -0.501596
O9    O     O_3   0.449492 0.671821 0.334003 -0.593807
O10   O     O_2   0.021280 0.393236 0.197925 -0.613237
O11   O     O_2   0.337938 0.379561 0.795868 -0.560358
O12   O     O_3   0.618794 0.322456 0.393332 -0.618530
O13   O     O_2   0.853324 0.625601 0.199656 -0.620373
O14   O     O_2   0.174606 0.612184 0.800677 -0.597907
O15   O     O_3   0.666360 0.409390 0.586570 -0.501312
O16   O     O_2   0.839379 0.446291 0.670243 -0.436823
O17   O     O_3   0.068729 0.650953 0.625916 -0.630202
O18   O     O_3   0.666428 0.340913 0.675777 -0.538609
O19   O     O_2   0.806150 0.327840 0.473120 -0.441685
O20   O     O_3   0.073640 0.373350 0.561550 -0.459201
O21   O     O_2   0.995098 0.246215 0.517452 -0.464510
O22   O     O_3   0.034840 0.258109 0.615491 -0.587285
O23   O     O_2   0.274960 0.462520 0.381280 -0.464067
O24   O     O_3   0.042980 0.462530 0.441480 -0.457608
O25   O     O_3   0.523340 0.590550 0.413420 -0.478523
O26   O     O_3   0.130024 0.348282 0.383527 -0.611972
O27   O     O_3   0.635780 0.584660 0.526290 -0.475265
O28   O     O_3   0.116060 0.626590 0.438450 -0.494448
P1    P     P_3+3 0.084800 0.558370 0.611580 0.994885
P2    P     P_3+3 0.628800 0.338360 0.458800 1.021954
P3    P     P_3+3 0.106920 0.281113 0.559902 0.998903
P4    P     P_3+3 0.104900 0.441570 0.388420 1.002123
P5    P     P_3+3 0.092642 0.719189 0.436970 0.948782
P6    P     P_3+3 0.668543 0.422676 0.652060 1.035993
P7    P     P_3+3 0.569252 0.673688 0.542053 0.951613
P8    P     P_3+3 0.529779 0.588663 0.348670 0.944051

loop_
_geom_bond_atom_site_label_1
_geom_bond_atom_site_label_2
_ccdc_geom_bond_type
C52   O17   S    
C23   H11   S    
Ba2   O6    S    
C6    P4    S    
C32   C33   S    
O12   P2    S    
C12   H8    S    
Ba2   O25   S    
C53   N5    A    
C54   C55   A    
C42   H40   S    
O21   P3    D    
C69   N1    Am   
C44   C46   S    
O25   P8    S    
C49   C50   D    
C37   C43   A    
C63   H7    S    
C16   H51   S    
O4    P1    S    
C28   C40   S    
O2    P5    D    
C57   C60   A    
C16   H17   S    
C29   C33   D    
C34   H13   S    
C25   C26   A    
C39   H37   S    
O6    P7    D    
Ba1   Ba2   S    
C35   C36   A    
C44   H49   S    
C4    O22   S    
Ba1   P2    S    
C51   N6    A    
O9    P8    S    
C22   C27   A    
O22   P3    S    
Ba2   O24   S    
Ba1   O15   S    
C31   C32   D    
C39   C43   A    
C2    C13   A    
Ba1   O5    S    
O5    P2    S    
C50   P2    S    
C1    H9    S    
C9    C13   A    
Ba1   O27   S    
C61   H56   S    
C45   H19   S    
C40   H23   S    
O23   P4    D    
Br1   C16   S    
C67   C68   S    
C67   O9    S    
C56   H22   S    
C6    C7    D    
C12   O18   S    
C67   H25   S    
C44   C50   D    
O24   P4    S    
C2    N1    Am   
C68   H29   S    
Ba1   O24   S    
C23   H10   S    
C45   H18   S    
C10   C11   A    
C58   H48   S    
C40   H12   S    
C23   O7    S    
C8    N1    S    
O20   P3    S    
C66   N9    T    
C63   H6    S    
C68   H26   S    
C28   O26   S    
C25   C42   A    
C4    H28   S    
C45   O3    S    
C48   C49   S    
C52   H53   S    
C34   H14   S    
C54   C59   A    
C21   C22   A    
C35   C38   A    
C15   H44   S    
C3    C8    D    
O15   P6    S    
C43   H42   S    
C5    P8    S    
C3    C5    S    
C51   C59   S    
O19   P2    D    
C27   N2    Am   
C68   H27   S    
C2    O13   D    
C57   C58   A    
C21   H32   S    
C40   H34   S    
C48   C53   S    
Ba1   O19   S    
C67   H24   S    
C64   N7    T    
C51   N3    A    
C33   N2    S    
C26   O14   D    
C18   C41   A    
C17   C35   A    
C26   N2    Am   
C17   C20   A    
C7    H30   S    
C20   C21   A    
C61   H55   S    
C52   C61   S    
O16   P6    D    
C47   C48   D    
C65   N8    T    
C15   C31   D    
Ba2   O28   S    
C53   N4    A    
C46   P3    S    
C29   C64   S    
C6    C14   D    
C12   H1    S    
C17   C19   A    
C62   C63   S    
C4    C16   S    
C19   C24   A    
C11   C38   A    
N5    N6    A    
Ba2   O5    S    
O27   P7    S    
C54   C65   S    
Ba2   O27   S    
N3    N4    A    
C30   P6    S    
C13   C39   A    
C36   C37   A    
C60   H50   S    
C41   C42   A    
C14   H43   S    
C45   C56   S    
C52   H45   S    
O28   P5    S    
C63   H5    S    
O3    P5    S    
C38   H35   S    
C47   H46   S    
C34   H15   S    
C55   C60   A    
O8    P8    D    
C28   H52   S    
C23   C34   S    
C27   O11   D    
C55   P7    S    
C1    H16   S    
C10   C69   A    
C22   C24   A    
C69   O10   D    
O7    P7    S    
C61   H54   S    
C5    C14   S    
C62   H3    S    
O1    P1    D    
C57   P5    S    
C29   C30   S    
C1    C12   S    
Ba1   O20   S    
C31   P1    S    
C11   H31   S    
C18   C37   A    
Ba1   P1    S    
C9    C36   A    
C4    H39   S    
C32   H41   S    
C56   H20   S    
C62   O12   S    
C58   C59   A    
O26   P4    S    
C15   C30   S    
C1    H4    S    
Ba1   O4    S    
C7    C8    S    
C62   H2    S    
Ba2   P4    S    
C49   H47   S    
O18   P6    S    
C28   C66   S    
C9    C10   A    
Ba2   O23   S    
C46   C47   S    
C24   C25   A    
Ba2   O4    S    
C3    H36   S    
O17   P1    S    
C56   H21   S    
C18   C19   A    
Ba1   O1    S    
C41   H38   S    
C20   H33   S    
