data_mof_unit_1346.cif
_audit_creation_date              2012-12-10T18:34:30-0500
_audit_creation_method            fapswitch 2.2
_symmetry_space_group_name_H-M    P1
_symmetry_Int_Tables_number       1
_space_group_crystal_system       triclinic
_cell_length_a                    15.018264
_cell_length_b                    15.428113
_cell_length_c                    15.71679
_cell_angle_alpha                 90.061045
_cell_angle_beta                  105.090413
_cell_angle_gamma                 81.315345
_cell_volume                      3472.95206177

loop_
_atom_site_label
_atom_site_type_symbol
_atom_type_description
_atom_site_fract_x
_atom_site_fract_y
_atom_site_fract_z
_atom_type_partial_charge
C1    C     C_R   0.441068 0.662032 0.485873 0.915323
C2    C     C_R   0.558898 0.337981 0.514040 0.923855
C3    C     C_R   0.292213 0.875740 0.503195 -0.150945
C4    C     C_R   0.706948 0.123626 0.497354 -0.158385
C5    C     C_R   0.320027 0.785899 0.499655 -0.277385
C6    C     C_R   0.678519 0.213596 0.498877 -0.280664
C7    C     C_R   0.456230 0.814287 0.455329 0.380295
C8    C     C_R   0.545111 0.186249 0.548925 0.395169
C9    C     C_R   0.442126 0.900838 0.482939 -0.062395
C10   C     C_R   0.559756 0.098671 0.524276 -0.073793
C11   C     C_R   0.354076 0.933993 0.497607 0.024426
C12   C     C_R   0.647098 0.065305 0.508252 0.012952
C13   C     C_R   0.512776 0.954483 0.498022 0.031279
C14   C     C_R   0.489596 0.044558 0.511587 0.028901
C15   C     C_R   0.395493 0.079191 0.504912 -0.223541
C16   C     C_R   0.606598 0.919815 0.503547 -0.214542
C17   C     C_R   0.329651 0.024303 0.505812 0.470604
C18   C     C_R   0.672788 0.974567 0.504442 0.488939
C19   C     C_R   0.837665 0.645892 0.621291 -0.331037
C20   C     C_R   0.163303 0.352260 0.381253 -0.307888
C21   C     C_R   0.750338 0.620279 0.602717 0.066440
C22   C     C_R   0.250028 0.378940 0.398320 0.077536
C23   C     C_R   0.501459 0.500220 0.662130 0.927075
C24   C     C_R   0.498526 0.499797 0.337863 0.925880
C25   C     C_R   0.795469 0.507527 0.512513 -0.032912
C26   C     C_R   0.204767 0.492217 0.487949 -0.049286
C27   C     C_R   0.885855 0.529846 0.529015 -0.000571
C28   C     C_R   0.115019 0.468734 0.473087 -0.005015
C29   C     C_R   0.905640 0.601217 0.584180 0.185017
C30   C     C_R   0.095495 0.396789 0.418666 0.168223
C31   C     C_R   0.956116 0.484786 0.492376 0.082409
C32   C     C_R   0.045075 0.513282 0.510461 0.084927
C33   C     C_R   0.061127 0.585224 0.565212 -0.229374
C34   C     C_R   0.940436 0.412140 0.438572 -0.233221
C35   C     C_R   0.992701 0.627858 0.601540 -0.211112
C36   C     C_R   0.008887 0.369365 0.402391 -0.202609
C37   C     C_3   0.438469 0.568764 0.011860 -0.144730
C38   C     C_3   0.561338 0.431106 0.988070 -0.143558
C39   C     C_3   0.526545 0.575048 0.979995 -0.162715
C40   C     C_3   0.473261 0.424821 0.019937 -0.162520
C41   C     C_1   0.504335 0.500725 0.751950 -0.142949
C42   C     C_1   0.495620 0.499247 0.248029 -0.131840
C43   C     C_3   0.414605 0.494118 0.948130 -0.165817
C44   C     C_3   0.585201 0.505751 0.051796 -0.159711
C45   C     C_3   0.502672 0.500400 0.918040 0.190683
C46   C     C_3   0.497137 0.499471 0.081893 0.189972
C47   C     C_1   0.504635 0.500745 0.827468 -0.059835
C48   C     C_1   0.495247 0.499170 0.172490 -0.054579
C49   C     C_R   0.403624 0.755076 0.477938 -0.156769
C50   C     C_R   0.596307 0.244936 0.522858 -0.152918
H1    H     H_    0.548482 0.636409 0.961618 0.144158
H2    H     H_    0.451321 0.363460 0.038310 0.145662
H3    H     H_    0.227352 0.544648 0.529084 0.120195
H4    H     H_    0.772550 0.455894 0.470356 0.118245
H5    H     H_    0.303631 0.344572 0.370706 0.130738
H6    H     H_    0.696689 0.654664 0.630265 0.122837
H7    H     H_    0.851817 0.700273 0.663829 0.136876
H8    H     H_    0.149562 0.297076 0.339743 0.155660
H9    H     H_    0.126053 0.610739 0.581733 0.134609
H10   H     H_    0.875957 0.385857 0.423100 0.136844
H11   H     H_    0.388103 0.624949 0.023652 0.153226
H12   H     H_    0.611700 0.374922 0.976269 0.155626
H13   H     H_    0.654908 0.510486 0.096329 0.147523
H14   H     H_    0.344903 0.489381 0.903588 0.142262
H15   H     H_    0.720607 0.258480 0.481676 0.169807
H16   H     H_    0.276501 0.740781 0.513714 0.170543
H17   H     H_    0.225405 0.898663 0.516118 0.180047
H18   H     H_    0.772764 0.100350 0.482522 0.186950
H19   H     H_    0.372021 0.148987 0.498873 0.201775
H20   H     H_    0.629202 0.850109 0.504910 0.190230
H21   H     H_    0.008019 0.682567 0.643340 0.139373
H22   H     H_    0.993865 0.314038 0.361387 0.151761
N1    N     N_R   0.731710 0.552730 0.549140 -0.093295
N2    N     N_R   0.268290 0.447270 0.450860 -0.094157
O1    O     O_R   0.383110 0.605620 0.475230 -0.625092
O2    O     O_R   0.616890 0.394380 0.524770 -0.629977
O3    O     O_R   0.531900 0.639510 0.506760 -0.586356
O4    O     O_R   0.468100 0.360490 0.493240 -0.571938
O5    O     O_R   0.425620 0.483070 0.607460 -0.596161
O6    O     O_R   0.574380 0.516930 0.392540 -0.584974
O7    O     O_R   0.574400 0.516960 0.638990 -0.626367
O8    O     O_R   0.425600 0.483040 0.361010 -0.628278
Zn1   Zn    Zn3+2 0.400660 0.477370 0.478940 0.985796
Zn2   Zn    Zn3+2 0.599340 0.522630 0.521060 0.992223
O9    O     O_3   0.238000 0.059277 0.502455 -0.654039
C51   C     C_3   0.232596 0.101712 0.581330 0.086050
H23   H     H_    0.168723 0.151954 0.565369 0.173516
H24   H     H_    0.291940 0.137626 0.609093 0.193303
C52   C     C_3   0.224051 0.035997 0.650710 -0.388392
H25   H     H_    0.162799 0.002526 0.623203 0.226918
H26   H     H_    0.287840 0.985662 0.668226 0.226116
C53   C     C_3   0.212052 0.081595 0.734093 -0.902052
H27   H     H_    0.273289 0.114382 0.763562 0.280689
H28   H     H_    0.206179 0.032333 0.782997 0.265258
H29   H     H_    0.147647 0.131162 0.718673 0.259321
O10   O     O_3   0.759392 0.940173 0.492844 -0.635047
C54   C     C_3   0.815526 0.892136 0.569815 0.081800
H30   H     H_    0.861766 0.837976 0.548695 0.186520
H31   H     H_    0.775174 0.860582 0.608058 0.110955
C55   C     C_3   0.876419 0.951180 0.629274 -0.368082
H32   H     H_    0.916308 0.982423 0.590694 0.232895
H33   H     H_    0.831188 0.003777 0.653648 0.227831
C56   C     C_3   0.944868 0.898997 0.708076 -0.945198
H34   H     H_    0.906503 0.867648 0.748059 0.265667
H35   H     H_    0.987303 0.943716 0.750228 0.273903
H36   H     H_    0.992609 0.847524 0.685314 0.254571
S1    S     S_3+6 0.491224 0.215835 0.636009 -0.011872
O11   O     O_2   0.483756 0.135061 0.685513 -0.322944
O12   O     O_2   0.550241 0.271226 0.698784 -0.313456
O13   O     O_3   0.384150 0.274293 0.595992 -0.589472
H37   H     H_    0.363065 0.293391 0.648693 0.375312
S2    S     S_3+6 0.509041 0.788369 0.366881 0.018798
O14   O     O_2   0.604103 0.734313 0.400386 -0.308640
O15   O     O_2   0.448574 0.736460 0.301238 -0.308652
O16   O     O_3   0.518750 0.880979 0.315921 -0.542495
H38   H     H_    0.552322 0.861003 0.271176 0.387254

loop_
_geom_bond_atom_site_label_1
_geom_bond_atom_site_label_2
_ccdc_geom_bond_type
C39   H1    S    
C8    S1    S    
C27   C29   A    
C1    O3    A    
N2    Zn1   S    
O6    Zn2   S    
O2    Zn2   S    
S2    O15   D    
C54   H30   S    
C20   C30   A    
O9    C51   S    
C19   H7    S    
C40   C46   S    
C17   O9    S    
C19   C21   A    
C51   H24   S    
O16   H38   S    
C21   N1    A    
C6    H15   S    
C24   C42   S    
C7    S2    S    
C15   C17   A    
C9    C13   A    
O13   H37   S    
C55   H32   S    
C38   C45   S    
C24   O8    A    
C2    C50   S    
C26   N2    A    
O4    Zn1   S    
C24   O6    A    
C40   C43   S    
S1    O11   D    
C52   H26   S    
N1    Zn2   S    
C25   N1    A    
C39   C45   S    
C35   H21   S    
C33   H9    S    
C38   C40   S    
C13   C14   A    
C34   H10   S    
S1    O12   D    
C5    C49   A    
C55   H33   S    
S2    O14   D    
C54   H31   S    
C44   C46   S    
C43   H14   S    
C45   C47   S    
C44   H13   S    
C15   H19   S    
C46   C48   S    
C27   C31   A    
C1    O1    A    
C28   C32   A    
C16   H20   S    
C25   H4    S    
C7    C49   A    
C4    C6    A    
C10   C14   A    
C4    H18   S    
C51   H23   S    
O3    Zn2   S    
C40   H2    S    
C55   C56   S    
C37   C43   S    
C38   C44   S    
C2    O4    A    
C9    C11   A    
C31   C32   A    
O10   C54   S    
C53   H28   S    
C41   C47   T    
C31   C34   A    
C56   H35   S    
C42   C48   T    
C6    C50   A    
C52   C53   S    
C43   C45   S    
C22   H5    S    
C10   C12   A    
C16   C18   A    
C20   C22   A    
S1    O13   S    
C4    C12   A    
C22   N2    A    
C20   H8    S    
C19   C29   A    
C26   H3    S    
C8    C50   A    
O7    Zn2   S    
C2    O2    A    
C7    C9    A    
C11   C17   A    
C54   C55   S    
C23   O7    A    
C3    H17   S    
C18   O10   S    
C5    H16   S    
C3    C5    A    
C51   C52   S    
C21   H6    S    
C37   H11   S    
C39   C44   S    
C25   C27   A    
C29   C35   A    
C26   C28   A    
C23   C41   S    
C30   C36   A    
C32   C33   A    
C28   C30   A    
C52   H25   S    
C37   C39   S    
O5    Zn1   S    
O1    Zn1   S    
C53   H27   S    
C33   C35   A    
C56   H36   S    
C34   C36   A    
C53   H29   S    
C3    C11   A    
C8    C10   A    
O8    Zn1   S    
C13   C16   A    
C12   C18   A    
C56   H34   S    
C14   C15   A    
C23   O5    A    
C37   C46   S    
C1    C49   S    
S2    O16   S    
C36   H22   S    
C38   H12   S    
