data_mof_unit_2375.cif
_audit_creation_date              2012-10-26T19:53:28-0400
_audit_creation_method            fapswitch 2.2
_symmetry_space_group_name_H-M    P1
_symmetry_Int_Tables_number       1
_space_group_crystal_system       triclinic
_cell_length_a                    9.116242
_cell_length_b                    7.79118
_cell_length_c                    10.695252
_cell_angle_alpha                 90.103969
_cell_angle_beta                  91.51673
_cell_angle_gamma                 89.729357
_cell_volume                      759.368282126

loop_
_atom_site_label
_atom_site_type_symbol
_atom_type_description
_atom_site_fract_x
_atom_site_fract_y
_atom_site_fract_z
_atom_type_partial_charge
C1    C     C_R   0.219997 0.500252 0.499653 0.561305
C2    C     C_3   0.622755 0.576687 0.049984 0.064171
C3    C     C_3   0.505405 0.501446 0.876905 -0.009155
C4    C     C_3   0.494576 0.498550 0.123093 -0.009166
C5    C     C_1   0.065324 0.500347 0.499867 -0.019779
C6    C     C_1   0.934676 0.499652 0.500132 -0.019781
C7    C     C_3   0.147882 0.733609 0.984416 -0.274163
C8    C     C_3   0.852102 0.266389 0.015576 -0.274181
C9    C     C_3   0.648054 0.897618 0.870044 -0.224581
C10   C     C_3   0.351952 0.102336 0.129936 -0.224650
C11   C     C_R   0.780003 0.499748 0.500346 0.561307
C12   C     C_R   0.493728 0.499576 0.259040 0.559863
C13   C     C_R   0.506264 0.500424 0.740959 0.559873
C14   C     C_3   0.380960 0.585191 0.034284 0.111899
C15   C     C_3   0.619022 0.414806 0.965713 0.111907
C16   C     C_3   0.507224 0.662046 0.961403 0.136242
C17   C     C_3   0.492757 0.337948 0.038594 0.136253
C18   C     C_3   0.377225 0.423309 0.950013 0.064177
Cu1   Cu    Cu3+1 0.500000 0.669080 0.500000 1.031535
Cu2   Cu    Cu3+1 0.500000 0.330920 0.500000 1.031540
H1    H     H_    0.209106 0.626694 0.156121 0.261720
H2    H     H_    0.629483 0.014047 0.811806 0.184316
H3    H     H_    0.702155 0.798065 0.812570 0.146305
H4    H     H_    0.721664 0.933619 0.949443 0.190612
H5    H     H_    0.577738 0.132222 0.142590 0.275546
H6    H     H_    0.370514 0.985759 0.188030 0.184414
H7    H     H_    0.278276 0.066532 0.050529 0.190561
H8    H     H_    0.297930 0.201808 0.187545 0.146351
H9    H     H_    0.085239 0.845041 0.019988 0.164373
H10   H     H_    0.069956 0.627967 0.963685 0.181446
H11   H     H_    0.199788 0.772141 0.896472 0.168128
H12   H     H_    0.790884 0.373324 0.843876 0.261716
H13   H     H_    0.914779 0.154987 0.979996 0.164365
H14   H     H_    0.800184 0.227813 0.103499 0.168122
H15   H     H_    0.930002 0.372041 0.036334 0.181443
H16   H     H_    0.422263 0.867777 0.857399 0.275549
I1    I     I_    0.194959 0.306230 0.851712 -0.479197
I2    I     I_    0.805007 0.693816 0.148269 -0.479193
N1    N     N_1   0.500000 0.076820 0.500000 -0.082869
N2    N     N_1   0.500000 0.923180 0.500000 -0.082868
N3    N     N_2   0.255467 0.680145 0.078500 -0.508278
N4    N     N_2   0.744517 0.319857 0.921493 -0.508231
N5    N     N_2   0.509683 0.837621 0.916238 -0.460231
N6    N     N_2   0.490318 0.162370 0.083752 -0.460239
O1    O     O_R   0.288390 0.642760 0.500000 -0.498650
O2    O     O_R   0.711610 0.357240 0.500000 -0.498646
O3    O     O_R   0.711610 0.642760 0.500000 -0.486233
O4    O     O_R   0.288390 0.357240 0.500000 -0.486238
O5    O     O_R   0.499960 0.642760 0.316850 -0.474116
O6    O     O_R   0.500040 0.357240 0.683150 -0.474109
O7    O     O_R   0.500040 0.642760 0.683150 -0.520241
O8    O     O_R   0.499960 0.357240 0.316850 -0.520245

loop_
_geom_bond_atom_site_label_1
_geom_bond_atom_site_label_2
_ccdc_geom_bond_type
C10   H7    S    
C2    C4    S    
Cu1   O1    S    
C1    O4    A    
C7    H9    S    
Cu2   O6    S    
C4    C12   S    
C2    C16   S    
C2    I2    S    
C11   O3    A    
Cu1   Cu2   S    
C3    C13   S    
C10   H6    S    
C17   C18   S    
C17   N6    S    
C9    H4    S    
C7    H10   S    
C8    H14   S    
C2    C15   S    
C16   N5    S    
C1    O1    A    
Cu2   O4    S    
C14   N3    S    
C1    C5    S    
C4    C17   S    
H5    N6    S    
C12   O8    A    
C18   I1    S    
C8    N4    S    
C12   O5    A    
Cu1   O3    S    
C8    H13   S    
C7    N3    S    
C4    C14   S    
C5    C6    T    
C14   C16   S    
C9    H2    S    
C9    N5    S    
C7    H11   S    
Cu1   N2    S    
C10   N6    S    
C13   O6    A    
Cu1   O7    S    
N1    N2    T    
C3    C15   S    
C3    C18   S    
Cu2   O8    S    
H1    N3    S    
C10   H8    S    
C6    C11   S    
C15   C17   S    
Cu2   N1    S    
Cu1   O5    S    
C9    H3    S    
C11   O2    A    
H12   N4    S    
C13   O7    A    
C14   C18   S    
Cu2   O2    S    
C3    C16   S    
C15   N4    S    
H16   N5    S    
C8    H15   S    
