data_mof_unit_4835.cif
_audit_creation_date              2013-03-05T16:06:22-0500
_audit_creation_method            fapswitch 2.2
_symmetry_space_group_name_H-M    P1
_symmetry_Int_Tables_number       1
_space_group_crystal_system       triclinic
_cell_length_a                    10.776908
_cell_length_b                    9.637375
_cell_length_c                    27.812258
_cell_angle_alpha                 90.071422
_cell_angle_beta                  92.532672
_cell_angle_gamma                 89.606159
_cell_volume                      2885.72071573

loop_
_atom_site_label
_atom_site_type_symbol
_atom_site_description
_atom_site_fract_x
_atom_site_fract_y
_atom_site_fract_z
_atom_type_partial_charge
O1    O     O_R   0.319640 0.618740 0.500000 -0.540187
O2    O     O_R   0.680360 0.381260 0.500000 -0.540108
O3    O     O_R   0.680360 0.618740 0.500000 -0.563744
O4    O     O_R   0.319640 0.381260 0.500000 -0.563676
C1    C     C_R   0.262823 0.500482 0.500189 0.894994
C2    C     C_R   0.737176 0.499518 0.499810 0.894999
O5    O     O_R   0.500020 0.618770 0.430260 -0.610681
O6    O     O_R   0.499980 0.381230 0.569740 -0.610674
O7    O     O_R   0.499980 0.618770 0.569740 -0.611514
O8    O     O_R   0.500020 0.381230 0.430260 -0.611424
C3    C     C_R   0.499582 0.499906 0.407571 0.806288
C4    C     C_R   0.500422 0.500094 0.592431 0.806394
Cu1   Cu    Cu3+1 0.500000 0.640660 0.500000 0.982717
Cu2   Cu    Cu3+1 0.500000 0.359340 0.500000 0.982825
C5    C     C_R   0.388784 0.492114 0.176121 0.593366
C6    C     C_R   0.610460 0.519410 0.823931 0.598684
O9    O     O_2   0.281334 0.484125 0.199090 -0.509494
O10   O     O_2   0.716700 0.538645 0.800948 -0.508157
N1    N     N_R   0.499048 0.500462 0.202151 -0.450502
N2    N     N_R   0.501434 0.499454 0.797915 -0.450608
C7    C     C_R   0.609565 0.509407 0.180117 0.571744
C8    C     C_R   0.392308 0.478650 0.820011 0.566561
C9    C     C_R   0.506740 0.624366 0.279057 -0.183888
C10   C     C_R   0.495493 0.375479 0.720983 -0.182371
C11   C     C_R   0.506746 0.624811 0.329139 -0.182588
C12   C     C_R   0.495347 0.375051 0.670901 -0.182907
C13   C     C_R   0.491427 0.373791 0.328962 -0.297616
C14   C     C_R   0.506606 0.626349 0.671011 -0.298480
C15   C     C_R   0.491115 0.372847 0.278400 0.478894
C16   C     C_R   0.506948 0.627318 0.721573 0.479693
C17   C     C_R   0.498858 0.499117 0.253667 0.329735
C18   C     C_R   0.501420 0.500870 0.746369 0.327007
C19   C     C_R   0.499661 0.500668 0.101995 -0.042011
C20   C     C_R   0.501008 0.499002 0.898098 -0.041938
C21   C     C_R   0.387018 0.491915 0.125609 -0.032832
C22   C     C_R   0.612298 0.519524 0.874445 -0.034780
C23   C     C_R   0.275273 0.483842 0.098471 -0.135510
C24   C     C_R   0.722653 0.540461 0.901544 -0.135845
C25   C     C_R   0.611957 0.509719 0.129680 -0.029605
C26   C     C_R   0.390012 0.478229 0.870452 -0.028373
C27   C     C_R   0.499235 0.499554 0.354571 -0.063391
C28   C     C_R   0.500811 0.500446 0.645434 -0.063625
H1    H     H_    0.485406 0.276478 0.348140 0.161320
H2    H     H_    0.510914 0.723787 0.651803 0.161551
H3    H     H_    0.187255 0.478907 0.115759 0.187741
H4    H     H_    0.809259 0.558046 0.884218 0.188963
C29   C     C_R   0.386909 0.482064 0.972451 0.042806
C30   C     C_R   0.614382 0.512419 0.027661 0.042793
C31   C     C_R   0.614167 0.516982 0.976542 0.043758
C32   C     C_R   0.385988 0.487712 0.023536 0.044308
C33   C     C_R   0.500698 0.499326 0.949249 0.072944
C34   C     C_R   0.500011 0.500287 0.050845 0.072621
C35   C     C_R   0.277649 0.458723 0.943472 -0.198539
C36   C     C_R   0.725535 0.518748 0.056697 -0.197640
C37   C     C_R   0.279419 0.457204 0.893582 -0.132006
C38   C     C_R   0.724020 0.517750 0.106594 -0.131752
O11   O     O_2   0.286326 0.459334 0.793221 -0.513045
O12   O     O_2   0.716705 0.517418 0.206967 -0.511740
C39   C     C_R   0.274443 0.482132 0.048533 -0.196831
C40   C     C_R   0.723824 0.539557 0.951487 -0.197622
H5    H     H_    0.491218 0.278127 0.740223 0.166313
H6    H     H_    0.512722 0.721561 0.259828 0.165188
H7    H     H_    0.193058 0.439280 0.873151 0.192049
H8    H     H_    0.811777 0.523033 0.127064 0.191728
H9    H     H_    0.188691 0.438864 0.958071 0.138714
H10   H     H_    0.816333 0.522324 0.042159 0.136868
H11   H     H_    0.183866 0.478582 0.030696 0.135866
H12   H     H_    0.812651 0.559327 0.969265 0.137527
C41   C     C_R   0.068269 0.434706 0.538519 0.270072
C42   C     C_R   0.931730 0.565294 0.461479 0.270218
C43   C     C_R   0.938084 0.431847 0.536936 0.401367
C44   C     C_R   0.061915 0.568135 0.463058 0.401354
C45   C     C_R   0.871191 0.498115 0.498959 -0.273395
C46   C     C_R   0.128808 0.501885 0.501038 -0.273486
C47   C     C_R   0.406599 0.073985 0.476467 0.422656
C48   C     C_R   0.593400 0.926015 0.523533 0.422563
C49   C     C_R   0.593412 0.072691 0.523504 0.407788
C50   C     C_R   0.406588 0.927308 0.476496 0.407738
N3    N     N_R   0.500000 0.852070 0.500000 -0.339700
N4    N     N_R   0.500000 0.147930 0.500000 -0.339615
O13   O     O_3   0.310216 0.138368 0.451085 -0.643279
H13   H     H_    0.342982 0.222246 0.436317 0.359926
O14   O     O_3   0.689784 0.861631 0.548915 -0.643183
H14   H     H_    0.657015 0.777757 0.563685 0.360108
O15   O     O_3   0.689766 0.135788 0.548839 -0.624628
H15   H     H_    0.657083 0.220779 0.563260 0.378704
O16   O     O_3   0.310232 0.864211 0.451162 -0.624478
H16   H     H_    0.342916 0.779221 0.436740 0.378915
O17   O     O_3   0.483888 0.250901 0.252365 -0.703165
H17   H     H_    0.479064 0.171908 0.275008 0.327152
O18   O     O_3   0.511853 0.749478 0.747543 -0.701966
H18   H     H_    0.515313 0.828541 0.724864 0.327014
H19   H     H_    0.490758 0.276497 0.652179 0.178116
H20   H     H_    0.512937 0.723241 0.347889 0.178197
O19   O     O_3   0.132418 0.373821 0.577346 -0.698243
H21   H     H_    0.217946 0.410278 0.580421 0.328497
O20   O     O_3   0.867579 0.626197 0.422655 -0.698422
H22   H     H_    0.782048 0.589750 0.419581 0.328393
O21   O     O_3   0.872625 0.370535 0.572943 -0.693248
H23   H     H_    0.930261 0.324239 0.596615 0.394837
O22   O     O_3   0.127377 0.629426 0.427046 -0.693001
H24   H     H_    0.069738 0.675615 0.403352 0.394939

loop_
_geom_bond_atom_site_label_1
_geom_bond_atom_site_label_2
_geom_bond_distance
_ccdc_geom_bond_type
C50   O16   1.373857 S    
O16   H16   0.981605 S    
Cu1   N3    2.037437 S    
O22   H24   0.989446 S    
C13   C15   1.406131 A    
O19   H21   0.988809 S    
C48   N3    1.378354 A    
O3    C2    1.298351 A    
N1    C17   1.432932 S    
C8    O11   1.349715 S    
C15   O17   1.380469 S    
O20   H22   0.988811 S    
O15   H15   0.981604 S    
C19   C34   1.422783 A    
C5    N1    1.366672 A    
C20   C33   1.422781 A    
C10   H5    1.082922 S    
C31   C40   1.416400 A    
O1    C1    1.297590 A    
C32   C39   1.416388 A    
N1    C7    1.366590 A    
C10   C12   1.392834 A    
C44   O22   1.385427 S    
C14   C28   1.406105 A    
C1    C46   1.445479 S    
C41   C43   1.402202 A    
O7    Cu1   1.951337 S    
C4    C28   1.473965 S    
C39   H11   1.075991 S    
C9    H6    1.082908 S    
C25   C38   1.395250 A    
C31   C33   1.421620 A    
C37   H7    1.083576 S    
C32   C34   1.421574 A    
C38   H8    1.083585 S    
Cu2   N4    2.037438 S    
C35   H9    1.075974 S    
C47   N4    1.378360 A    
O3    Cu1   1.953725 S    
C42   O20   1.385065 S    
C6    N2    1.367002 A    
C29   C35   1.416341 A    
C12   H19   1.082980 S    
C49   O15   1.373857 S    
C11   H20   1.082975 S    
Cu1   Cu2   2.711186 S    
O2    C2    1.297591 A    
C48   O14   1.374662 S    
C5    C21   1.404151 A    
C47   C50   1.413583 A    
O5    C3    1.307092 A    
C29   C32   1.422234 A    
C35   C37   1.388574 A    
C36   C38   1.388603 A    
C48   C49   1.413582 A    
C44   C46   1.403986 A    
O8    Cu2   1.951337 S    
C11   C27   1.404495 A    
O18   H18   0.991710 S    
C43   C45   1.404016 A    
C50   N3    1.378230 A    
C47   O13   1.374661 S    
C29   C33   1.421578 A    
C43   O21   1.385392 S    
C14   H2    1.083236 S    
O13   H13   0.982054 S    
C9    C17   1.398882 A    
C30   C36   1.416406 A    
C10   C18   1.399232 A    
C13   C27   1.406172 A    
O14   H14   0.982055 S    
C7    C25   1.404166 A    
C30   C34   1.421637 A    
O6    C4    1.307112 A    
C26   C37   1.395287 A    
C8    C26   1.404189 A    
C42   C45   1.413866 A    
C41   C46   1.413897 A    
C19   C25   1.408538 A    
C23   C39   1.388597 A    
C24   C40   1.388579 A    
C30   C31   1.422347 A    
N2    C8    1.366870 A    
C20   C26   1.408467 A    
O1    Cu1   1.956612 S    
C23   H3    1.083604 S    
C12   C28   1.404409 A    
C2    C45   1.445479 S    
N2    C18   1.433694 S    
C49   N4    1.378229 A    
C5    O9    1.349688 S    
O6    Cu2   1.950814 S    
C21   C23   1.395266 A    
C16   O18   1.380531 S    
C41   O19   1.385063 S    
C36   H10   1.075939 S    
O21   H23   0.989496 S    
C14   C16   1.406127 A    
C7    O12   1.349699 S    
C15   C17   1.403411 A    
C6    C22   1.404160 A    
C16   C18   1.403886 A    
O4    C1    1.298353 A    
C22   C24   1.395284 A    
C19   C21   1.408571 A    
C3    C27   1.473886 S    
C20   C22   1.408437 A    
C9    C11   1.392892 A    
O4    Cu2   1.953725 S    
O2    Cu2   1.956612 S    
O7    C4    1.306850 A    
C24   H4    1.083597 S    
O8    C3    1.306832 A    
C13   H1    1.083233 S    
O5    Cu1   1.950814 S    
C40   H12   1.075924 S    
C6    O10   1.349717 S    
C42   C44   1.402201 A    
O17   H17   0.991708 S    
