data_mof_unit_1809.cif
_audit_creation_date              2012-12-11T14:29:23-0500
_audit_creation_method            fapswitch 2.2
_symmetry_space_group_name_H-M    P1
_symmetry_Int_Tables_number       1
_space_group_crystal_system       triclinic
_cell_length_a                    6.932333
_cell_length_b                    14.752431
_cell_length_c                    16.252533
_cell_angle_alpha                 90.481259
_cell_angle_beta                  90.513997
_cell_angle_gamma                 90.13928
_cell_volume                      1661.99573279

loop_
_atom_site_label
_atom_site_type_symbol
_atom_type_description
_atom_site_fract_x
_atom_site_fract_y
_atom_site_fract_z
_atom_type_partial_charge
O1    O     O_R   0.494400 0.416610 0.413880 -0.553229
O2    O     O_R   0.823920 0.406790 0.585520 -0.543592
O3    O     O_R   0.994250 0.583390 0.586120 -0.538499
C1    C     C_R   0.655026 0.385228 0.613702 0.751161
O4    O     O_R   0.824110 0.405730 0.414490 -0.536401
O5    O     O_R   0.994440 0.582310 0.413870 -0.539156
C2    C     C_R   0.654164 0.388296 0.383020 0.675654
O6    O     O_R   0.494210 0.417690 0.586130 -0.540711
O7    O     O_3   0.660810 0.557940 0.500000 -0.366802
V1    V     V_3+5 0.935650 0.489250 0.500000 1.417500
O8    O     O_R   0.324160 0.593210 0.414480 -0.542077
C3    C     C_R   0.154450 0.614286 0.385908 0.638257
O9    O     O_R   0.323970 0.594270 0.585510 -0.536619
C4    C     C_R   0.155647 0.615960 0.614165 0.692630
V2    V     V_3+5 0.435660 0.510750 0.500000 1.427153
O10   O     O_3   0.160630 0.442060 0.500000 -0.373223
H1    H     H_    0.374597 0.913231 0.520413 0.138005
C5    C     C_R   0.020816 0.566262 0.776071 -0.210951
C6    C     C_R   0.955264 0.539522 0.852909 -0.129981
C7    C     C_R   0.946622 0.601669 0.918203 0.335620
C8    C     C_R   0.999028 0.692121 0.904560 -0.191185
C9    C     C_R   0.063251 0.721471 0.826680 0.030108
C10   C     C_R   0.075815 0.657003 0.761172 0.068628
C11   C     C_R   0.118990 0.812973 0.814080 -0.145451
C12   C     C_R   0.189527 0.839390 0.735977 0.035938
C13   C     C_R   0.202885 0.774740 0.670635 0.065908
C14   C     C_R   0.145788 0.683451 0.682989 -0.154289
C15   C     C_R   0.244552 0.930287 0.721078 -0.225761
C16   C     C_R   0.316169 0.956873 0.644651 0.340629
C17   C     C_R   0.325787 0.893257 0.580718 -0.123709
C18   C     C_R   0.269352 0.803811 0.593167 -0.213451
H2    H     H_    0.028563 0.514462 0.728749 0.125701
H3    H     H_    0.910697 0.469845 0.861053 0.134670
H4    H     H_    0.991469 0.738746 0.956129 0.111233
H5    H     H_    0.233135 0.981792 0.768513 0.104531
H6    H     H_    0.277218 0.758125 0.540929 0.124959
C19   C     C_2   0.000061 0.731560 0.296812 -0.013175
C20   C     C_2   0.142738 0.668525 0.309514 -0.225876
C21   C     C_2   0.978336 0.782377 0.218232 -0.050988
C22   C     C_2   0.127967 0.825131 0.183920 -0.280786
H7    H     H_    0.833954 0.792207 0.193365 0.152865
H8    H     H_    0.270299 0.819380 0.211979 0.153396
C23   C     C_2   0.779362 0.209696 0.783200 -0.118734
C24   C     C_2   0.613647 0.179987 0.816881 -0.292424
H9    H     H_    0.915716 0.182789 0.805427 0.138092
H10   H     H_    0.475344 0.205475 0.796270 0.123170
C25   C     C_2   0.792040 0.278218 0.716355 -0.150492
C26   C     C_2   0.638782 0.317875 0.680179 -0.314106
H11   H     H_    0.936092 0.296119 0.696260 0.136027
H12   H     H_    0.493616 0.301239 0.698923 0.133848
C27   C     C_2   0.776987 0.232518 0.198147 0.047372
C28   C     C_2   0.622686 0.178674 0.179333 -0.244969
H13   H     H_    0.500514 0.177973 0.220739 0.102948
C29   C     C_2   0.782188 0.284856 0.276741 -0.251335
C30   C     C_2   0.636649 0.337884 0.303904 -0.143687
H14   H     H_    0.914806 0.281174 0.312718 0.117989
O11   O     O_R   0.770210 0.079270 0.910680 -0.532620
O12   O     O_R   0.440150 0.091160 0.082270 -0.544799
O13   O     O_R   0.269970 0.914530 0.082860 -0.541550
C31   C     C_R   0.610623 0.114596 0.109168 0.779732
O14   O     O_R   0.440480 0.090100 0.911240 -0.549379
O15   O     O_R   0.270310 0.913460 0.910610 -0.538969
C32   C     C_R   0.608869 0.111902 0.883187 0.761103
O16   O     O_R   0.769870 0.080340 0.082930 -0.524371
O17   O     O_3   0.603660 0.938980 0.996790 -0.377157
V3    V     V_3+5 0.328750 0.007610 0.996740 1.463445
O18   O     O_R   0.940600 0.902510 0.911180 -0.545691
C33   C     C_R   0.108986 0.880597 0.882770 0.687821
O19   O     O_R   0.940270 0.903570 0.082200 -0.549517
C34   C     C_R   0.109968 0.884051 0.111621 0.728826
V4    V     V_3+5 0.828770 0.986010 0.996670 1.467746
O20   O     O_3   0.103730 0.054750 0.996710 -0.355144
C35   C     C_2   0.278193 0.638855 0.243864 0.392325
H15   H     H_    0.419068 0.612530 0.260718 0.069213
O21   O     O_2   0.230555 0.637862 0.171361 -0.531895
C36   C     C_2   0.947192 0.243742 0.144331 0.418692
H16   H     H_    0.086463 0.260177 0.171695 0.039602
O22   O     O_2   0.931833 0.241205 0.069454 -0.518302
C37   C     C_2   0.461496 0.357112 0.252750 0.367364
H17   H     H_    0.325355 0.372361 0.282213 0.037280
O23   O     O_2   0.469570 0.361203 0.177837 -0.513813
N1    N     N_2   0.878857 0.574692 0.997021 -0.524165
H18   H     H_    0.855604 0.627356 0.037911 0.267209
C38   C     C_3   0.978020 0.498989 0.034489 -0.394753
H19   H     H_    0.917795 0.486445 0.096492 0.211029
H20   H     H_    0.134487 0.514195 0.041165 0.221860
H21   H     H_    0.957645 0.436229 0.997326 0.203358
N2    N     N_2   0.371362 0.048654 0.631319 -0.529714
H22   H     H_    0.322907 0.093947 0.675182 0.244439
C39   C     C_3   0.572797 0.062161 0.612089 -0.532794
H23   H     H_    0.599599 0.135111 0.600393 0.204610
H24   H     H_    0.612807 0.023600 0.555864 0.203611
H25   H     H_    0.665242 0.040489 0.664557 0.196371
C40   C     C_2   0.863170 0.757277 0.363266 0.355222
H26   H     H_    0.891987 0.740149 0.426932 0.059898
O24   O     O_2   0.717146 0.800218 0.347614 -0.548453

loop_
_geom_bond_atom_site_label_1
_geom_bond_atom_site_label_2
_ccdc_geom_bond_type
C7    N1    S    
C35   H15   S    
C6    C7    A    
C38   H21   S    
C2    C30   S    
C1    O6    A    
C25   H11   S    
C12   C15   A    
C13   C14   A    
C16   C17   A    
C22   C34   S    
C15   C16   A    
C36   O22   D    
O13   V3    S    
O5    C3    A    
C17   C18   A    
O12   C31   A    
V2    O10   S    
O14   C32   A    
C5    C6    A    
O16   V4    S    
O19   V4    S    
C16   N2    S    
C28   C31   S    
O8    V2    S    
C38   H19   S    
O12   V3    S    
V3    O20   S    
C15   H5    S    
O1    V2    S    
C10   C14   A    
C4    C14   S    
O7    V1    S    
C22   H8    S    
C13   C18   A    
O9    C4    A    
H1    C17   S    
C35   O21   D    
O19   C34   A    
O14   V3    S    
C24   H10   S    
O11   C32   A    
C36   H16   S    
C9    C10   A    
C24   C32   S    
C29   H14   S    
O15   V3    S    
O18   C33   A    
C11   C12   A    
C21   H7    S    
C6    H3    S    
C21   C22   D    
O4    C2    A    
C8    H4    S    
C12   C13   A    
O17   V4    S    
C5    C10   A    
O2    C1    A    
C23   C24   D    
C19   C20   D    
C30   C37   S    
C39   H24   S    
C25   C26   D    
C7    C8    A    
O11   V4    S    
C40   O24   D    
C23   H9    S    
O3    C4    A    
N2    C39   S    
O17   V3    S    
O6    V2    S    
N1    C38   S    
O9    V2    S    
C9    C11   A    
C5    H2    S    
O2    V1    S    
C28   H13   S    
C39   H25   S    
C37   O23   D    
C1    C26   S    
C29   C30   D    
O1    C2    A    
C38   H20   S    
O5    V1    S    
O8    C3    A    
O15   C33   A    
C31   O16   A    
C27   C29   S    
O7    V2    S    
C27   C28   D    
C19   C21   S    
O3    V1    S    
V1    O10   S    
C39   H23   S    
C26   H12   S    
C19   C40   S    
O18   V4    S    
C3    C20   S    
C40   H26   S    
C11   C33   S    
O13   C34   A    
C37   H17   S    
O4    V1    S    
V4    O20   S    
N2    H22   S    
N1    H18   S    
C27   C36   S    
C18   H6    S    
C8    C9    A    
C23   C25   S    
C20   C35   S    
