data_mof_unit_1510.cif
_audit_creation_date              2013-03-05T15:44:58-0500
_audit_creation_method            fapswitch 2.2
_symmetry_space_group_name_H-M    P1
_symmetry_Int_Tables_number       1
_space_group_crystal_system       triclinic
_cell_length_a                    10.853728
_cell_length_b                    10.990101
_cell_length_c                    18.864274
_cell_angle_alpha                 90.646542
_cell_angle_beta                  90.169832
_cell_angle_gamma                 119.556545
_cell_volume                      1957.15932067

loop_
_atom_site_label
_atom_site_type_symbol
_atom_site_description
_atom_site_fract_x
_atom_site_fract_y
_atom_site_fract_z
_atom_type_partial_charge
O1    O     O_R   0.766500 0.250040 0.579790 -0.465787
O2    O     O_R   0.798570 0.516780 0.574780 -0.432696
C1    C     C_R   0.863447 0.641491 0.602431 0.543138
O3    O     O_R   0.984000 0.732950 0.581090 -0.556427
O4    O     O_R   0.218600 0.700890 0.574760 -0.497019
C2    C     C_R   0.203655 0.592195 0.610180 0.563786
O5    O     O_R   0.249390 0.515350 0.579940 -0.512008
O6    O     O_R   0.982790 0.280900 0.573700 -0.531633
C3    C     C_R   0.858140 0.221155 0.600653 0.535519
O7    O     O_R   0.766600 0.251130 0.419260 -0.487524
O8    O     O_R   0.798660 0.517790 0.425980 -0.459496
C4    C     C_R   0.862398 0.638676 0.398260 0.546201
O9    O     O_R   0.984100 0.734040 0.420570 -0.512316
O10   O     O_R   0.218690 0.701900 0.425960 -0.452390
C5    C     C_R   0.274288 0.636173 0.397446 0.569588
O11   O     O_R   0.249490 0.516440 0.419420 -0.509362
O12   O     O_R   0.982880 0.281910 0.424890 -0.516377
C6    C     C_R   0.861827 0.226622 0.396462 0.541075
Cr1   Cr    Cr6+3 0.791660 0.390250 0.499930 1.148351
Cr2   Cr    Cr6+3 0.098520 0.708290 0.500540 1.063332
Cr3   Cr    Cr6+3 0.109770 0.401430 0.499480 1.037537
O13   O     O_3   0.999980 0.499990 0.499980 -0.296218
C7    C     C_R   0.187842 0.687189 0.730692 -0.122373
H1    H     H_    0.133256 0.737168 0.708073 0.124805
C8    C     C_R   0.226678 0.708523 0.803182 -0.131458
H2    H     H_    0.198613 0.771435 0.836764 0.121285
C9    C     C_R   0.310852 0.655927 0.829958 0.027480
C10   C     C_R   0.324223 0.555605 0.789160 -0.127222
H3    H     H_    0.370055 0.496687 0.810402 0.154048
C11   C     C_R   0.285694 0.533121 0.719157 -0.124593
H4    H     H_    0.307967 0.461073 0.689818 0.160422
C12   C     C_R   0.227652 0.607564 0.687273 0.027562
C13   C     C_R   0.790958 0.081196 0.812337 -0.006334
C14   C     C_R   0.054197 0.174563 0.816916 -0.095436
C15   C     C_R   0.175721 0.189702 0.783153 0.024459
C16   C     C_R   0.170922 0.166981 0.710016 -0.163968
C17   C     C_R   0.051287 0.141421 0.671082 -0.122629
C18   C     C_R   0.931510 0.133578 0.704792 0.001573
C19   C     C_R   0.924831 0.128467 0.779154 -0.014429
H5    H     H_    0.261223 0.173759 0.682463 0.176619
H6    H     H_    0.065734 0.205963 0.871841 0.198237
C20   C     C_R   0.689021 0.097809 0.699685 0.012335
C21   C     C_R   0.669877 0.057989 0.770918 -0.008156
C22   C     C_R   0.577355 0.113242 0.667710 0.263381
C23   C     C_R   0.439541 0.019662 0.684894 -0.088821
C24   C     C_R   0.418520 0.991764 0.755601 -0.125255
C25   C     C_R   0.531189 0.012005 0.798757 -0.078149
C26   C     C_R   0.823368 0.141180 0.666894 -0.018048
H7    H     H_    0.052420 0.124619 0.614575 0.146849
H8    H     H_    0.503216 0.999772 0.852742 0.194795
H9    H     H_    0.353025 0.016441 0.654613 0.129807
H10   H     H_    0.317967 0.968557 0.778020 0.121823
C27   C     C_R   0.687193 0.593151 0.700855 -0.062018
H11   H     H_    0.601445 0.510783 0.670892 0.202580
C28   C     C_R   0.671625 0.606029 0.773813 -0.101018
H12   H     H_    0.578473 0.528597 0.799809 0.169899
C29   C     C_R   0.781116 0.713752 0.813456 0.008243
C30   C     C_R   0.902094 0.812639 0.778336 -0.139242
H13   H     H_    0.987695 0.899518 0.806479 0.150824
C31   C     C_R   0.920005 0.795971 0.707356 -0.148199
H14   H     H_    0.020001 0.870083 0.684247 0.134767
C32   C     C_R   0.818252 0.678560 0.669232 0.032203
C33   C     C_R   0.374712 0.593051 0.292166 -0.159961
H15   H     H_    0.382409 0.510691 0.319178 0.180054
C34   C     C_R   0.388087 0.598608 0.219999 -0.137495
H16   H     H_    0.412758 0.524103 0.194978 0.153552
C35   C     C_R   0.371077 0.697635 0.181070 0.002730
C36   C     C_R   0.347463 0.796246 0.216333 -0.148444
H17   H     H_    0.342342 0.877341 0.186447 0.160155
C37   C     C_R   0.333778 0.792341 0.290168 0.038769
C38   C     C_R   0.339015 0.682852 0.327920 0.002352
C39   C     C_R   0.713310 0.111339 0.293085 -0.108023
H18   H     H_    0.619782 0.090047 0.322597 0.183417
C40   C     C_R   0.703451 0.096594 0.220626 -0.103198
H19   H     H_    0.600237 0.058969 0.196378 0.154381
C41   C     C_R   0.824205 0.129784 0.180162 0.027130
C42   C     C_R   0.954022 0.170417 0.213679 -0.148987
H20   H     H_    0.046702 0.190910 0.183319 0.133501
C43   C     C_R   0.964762 0.189214 0.286930 -0.139555
H21   H     H_    0.067952 0.230431 0.311928 0.143629
C44   C     C_R   0.844875 0.165272 0.326291 0.020139
C45   C     C_R   0.895204 0.787292 0.297150 -0.125916
H22   H     H_    0.968916 0.878639 0.327703 0.159863
C46   C     C_R   0.894234 0.797725 0.224524 -0.108276
H23   H     H_    0.963496 0.898514 0.201409 0.163150
C47   C     C_R   0.804673 0.680874 0.182541 -0.002865
C48   C     C_R   0.707793 0.556317 0.214695 -0.144838
H24   H     H_    0.630556 0.469920 0.182341 0.163084
C49   C     C_R   0.707307 0.544277 0.288426 0.034526
C50   C     C_R   0.811788 0.658330 0.329429 0.000383
O14   O     O_R   0.895110 0.806860 0.920430 -0.509334
O15   O     O_R   0.872260 0.046970 0.925000 -0.517483
C51   C     C_R   0.769903 0.044781 0.887698 0.526540
O16   O     O_R   0.691430 0.085060 0.918550 -0.507976
O17   O     O_R   0.451490 0.822460 0.925250 -0.542022
C52   C     C_R   0.387554 0.696068 0.898483 0.527834
O18   O     O_R   0.413330 0.603360 0.920440 -0.512015
O19   O     O_R   0.676110 0.626250 0.926750 -0.482946
C53   C     C_R   0.772694 0.730798 0.890355 0.543643
O20   O     O_R   0.895350 0.809870 0.080950 -0.509478
O21   O     O_R   0.872490 0.049760 0.073800 -0.498446
C54   C     C_R   0.803521 0.099858 0.104811 0.560119
O22   O     O_R   0.691680 0.088070 0.079070 -0.510721
O23   O     O_R   0.451720 0.825250 0.074050 -0.506064
C55   C     C_R   0.403350 0.707733 0.105893 0.554893
O24   O     O_R   0.413580 0.606370 0.080960 -0.515187
O25   O     O_R   0.676340 0.629040 0.075550 -0.501515
C56   C     C_R   0.794985 0.701426 0.107215 0.560269
Cr4   Cr    Cr6+3 0.874790 0.925890 0.000070 1.042920
Cr5   Cr    Cr6+3 0.574120 0.948670 0.999300 1.018752
Cr6   Cr    Cr6+3 0.551420 0.625320 0.000920 1.040219
O26   O     O_3   0.666780 0.833290 0.000090 -0.297407
N1    N     N_R   0.599208 0.252364 0.662933 0.123130
O27   O     O_R   0.699650 0.352005 0.700569 -0.334925
O28   O     O_R   0.520200 0.279228 0.621134 -0.380805
C57   C     C_2   0.313900 0.903567 0.324422 0.570062
O29   O     O_2   0.370522 0.954697 0.381537 -0.515148
O30   O     O_R   0.235064 0.954380 0.289507 -0.725646
H25   H     H_    0.227191 0.028763 0.318200 0.324729
C58   C     C_2   0.595091 0.413072 0.319437 0.573465
O31   O     O_2   0.542454 0.415295 0.376343 -0.503887
O32   O     O_R   0.544169 0.287328 0.281489 -0.718383
H26   H     H_    0.467681 0.205641 0.307950 0.355772
C59   C     C_2   0.306263 0.227438 0.824720 0.525561
O33   O     O_2   0.417036 0.258246 0.794355 -0.512628
O34   O     O_R   0.303485 0.229176 0.898883 -0.708282
H27   H     H_    0.399307 0.257446 0.921012 0.343210

loop_
_geom_bond_atom_site_label_1
_geom_bond_atom_site_label_2
_geom_bond_distance
_ccdc_geom_bond_type
C2    C12   1.469763 S    
C28   H12   1.072568 S    
C33   C34   1.368365 A    
O34   H27   1.013985 S    
O17   C52   1.302739 A    
C48   H24   1.084174 S    
O4    Cr2   1.939553 S    
C23   C24   1.366451 A    
C58   O31   1.223184 D    
O8    Cr1   1.963728 S    
C13   C19   1.428641 A    
C40   C41   1.405002 A    
O22   Cr5   2.060984 S    
C4    C50   1.467477 S    
C10   H3    1.072274 S    
C46   C47   1.400807 A    
O4    C2    1.314251 A    
O18   Cr6   2.056923 S    
O15   Cr4   1.963482 S    
C23   H9    1.082994 S    
O21   Cr4   1.944064 S    
C5    O11   1.280379 A    
C29   C53   1.469477 S    
C24   H10   1.079610 S    
C6    C44   1.448020 S    
C57   O29   1.223118 D    
C31   C32   1.403695 A    
C14   C15   1.401408 A    
O30   H25   1.013760 S    
C36   H17   1.084101 S    
Cr6   O26   1.992379 S    
O6    C3    1.286569 A    
C34   C35   1.404733 A    
C7    H1    1.076861 S    
C37   C38   1.429999 A    
C11   C12   1.394732 A    
C18   C26   1.410272 A    
C39   C44   1.390712 A    
C42   H20   1.083254 S    
C27   C28   1.401186 A    
O20   Cr4   2.079927 S    
Cr3   O13   1.966369 S    
C9    C52   1.475492 S    
C14   H6    1.075559 S    
C20   C22   1.436066 A    
O23   C55   1.286441 A    
C58   O32   1.396235 S    
O6    Cr3   1.966371 S    
C25   H8    1.054528 S    
O24   Cr6   2.067489 S    
C42   C43   1.390885 A    
C41   C54   1.446987 S    
O1    Cr1   2.087642 S    
O20   C56   1.260254 A    
C40   H19   1.082067 S    
C35   C36   1.393361 A    
C13   C21   1.435742 A    
O21   C54   1.267932 A    
O10   Cr2   1.945376 S    
C16   H5    1.080823 S    
Cr1   O13   1.968899 S    
O1    C3    1.247783 A    
C41   C42   1.397160 A    
C39   C40   1.372274 A    
Cr4   O26   1.966238 S    
C43   C44   1.409291 A    
C47   C48   1.396400 A    
C35   C55   1.454068 S    
C37   C57   1.483750 S    
C30   H13   1.080359 S    
C27   H11   1.076703 S    
O16   Cr5   2.090105 S    
O12   Cr3   1.940128 S    
C14   C19   1.421183 A    
C31   H14   1.081703 S    
C15   C16   1.395536 A    
C17   C18   1.413308 A    
C17   H7    1.080934 S    
C27   C32   1.400280 A    
C49   C58   1.481728 S    
O7    Cr1   2.064515 S    
O25   C56   1.273584 A    
C52   O18   1.256182 A    
O12   C6    1.258538 A    
C51   O16   1.276399 A    
C20   C26   1.436093 A    
C46   H23   1.083313 S    
C36   C37   1.400087 A    
Cr2   O13   1.992108 S    
C22   N1    1.430932 S    
C45   H22   1.082556 S    
C45   C46   1.376558 A    
C28   C29   1.399948 A    
C43   H21   1.083269 S    
C20   C21   1.402006 A    
C1    O3    1.264581 A    
C49   C50   1.423378 A    
C22   C23   1.375833 A    
C59   O34   1.399550 S    
N1    O27   1.300691 A    
C1    C32   1.477781 S    
C24   C25   1.388997 A    
C15   C59   1.483493 S    
O19   Cr6   1.946078 S    
O9    Cr2   2.059957 S    
O2    Cr1   1.945564 S    
O25   Cr6   1.937707 S    
C47   C56   1.452923 S    
C33   C38   1.393846 A    
C39   H18   1.080331 S    
O17   Cr5   1.941827 S    
C13   C51   1.469000 S    
O8    C4    1.275990 A    
O11   Cr3   2.084202 S    
C2    O5    1.299789 A    
C8    C9    1.395989 A    
C5    C38   1.463558 S    
C55   O24   1.258987 A    
C45   C50   1.398590 A    
C7    C12   1.407939 A    
O14   Cr4   2.063784 S    
C48   C49   1.398411 A    
O2    C1    1.294595 A    
C8    H2    1.082211 S    
C34   H16   1.083191 S    
O5    Cr3   2.058978 S    
O23   Cr5   1.967136 S    
C11   H4    1.082351 S    
C29   C30   1.399182 A    
C18   C19   1.405217 A    
C21   C25   1.434311 A    
O7    C6    1.265074 A    
C10   C11   1.366465 A    
O15   C51   1.303293 A    
C57   O30   1.397927 S    
C7    C8    1.412269 A    
C54   O22   1.251426 A    
Cr5   O26   1.969280 S    
C33   H15   1.081987 S    
O3    Cr2   2.064363 S    
C4    O9    1.281147 A    
C3    C26   1.475386 S    
C16   C17   1.390771 A    
O19   C53   1.313107 A    
C9    C10   1.402987 A    
O10   C5    1.264298 A    
O14   C53   1.294254 A    
O32   H26   1.010745 S    
C30   C31   1.376718 A    
C59   O33   1.222748 D    
N1    O28   1.302039 A    
