data_mof_unit_3398.cif
_audit_creation_date              2012-12-10T19:06:26-0500
_audit_creation_method            fapswitch 2.2
_symmetry_space_group_name_H-M    P1
_symmetry_Int_Tables_number       1
_space_group_crystal_system       triclinic
_cell_length_a                    23.462619
_cell_length_b                    10.857587
_cell_length_c                    9.598347
_cell_angle_alpha                 89.620324
_cell_angle_beta                  89.049596
_cell_angle_gamma                 90.084019
_cell_volume                      2444.76110009

loop_
_atom_site_label
_atom_site_type_symbol
_atom_type_description
_atom_site_fract_x
_atom_site_fract_y
_atom_site_fract_z
_atom_type_partial_charge
C1    C     C_R   0.501281 0.262608 0.500007 0.879391
C2    C     C_R   0.968777 0.327466 0.671371 -0.147596
C3    C     C_R   0.028256 0.327295 0.672302 -0.162747
C4    C     C_R   0.059575 0.405148 0.581917 -0.023147
C5    C     C_R   0.030502 0.483386 0.489540 -0.016604
C6    C     C_R   0.061431 0.561419 0.398037 -0.019732
C7    C     C_R   0.032051 0.639302 0.306502 -0.163037
C8    C     C_R   0.972606 0.640511 0.306633 -0.149059
C9    C     C_R   0.119395 0.407811 0.582240 0.548465
C10   C     C_R   0.121155 0.559879 0.400963 0.543057
C11   C     C_R   0.237482 0.596179 0.537880 -0.224839
C12   C     C_R   0.391320 0.501664 0.500852 0.947814
C13   C     C_R   0.297436 0.603593 0.536877 0.318101
C14   C     C_R   0.329074 0.498025 0.501502 -0.194202
C15   C     C_R   0.301747 0.389817 0.458657 0.326717
C16   C     C_R   0.241940 0.385186 0.458358 -0.235041
C17   C     C_R   0.209951 0.488357 0.496795 0.261827
C18   C     C_R   0.759925 0.425075 0.391073 0.452062
C19   C     C_R   0.700524 0.430480 0.393562 -0.213372
C20   C     C_R   0.671324 0.497595 0.496044 -0.200467
C21   C     C_R   0.701890 0.561992 0.596030 -0.207884
C22   C     C_R   0.761338 0.560346 0.595067 0.449517
C23   C     C_R   0.501606 0.737665 0.499083 0.835318
C24   C     C_R   0.790939 0.490684 0.492381 0.126464
C25   C     C_R   0.513173 0.062608 0.620908 0.063895
C26   C     C_R   0.507556 0.129839 0.497961 -0.112615
C27   C     C_R   0.510937 0.067003 0.370607 -0.334006
C28   C     C_R   0.509761 0.937785 0.367968 0.440802
C29   C     C_R   0.508275 0.871109 0.495639 -0.166968
C30   C     C_R   0.514582 0.935976 0.619715 0.004844
C31   C     C_3   0.482877 0.926589 0.755544 -0.508803
C32   C     C_3   0.479959 0.066877 0.754740 0.301809
C33   C     C_R   0.547988 0.531073 0.071455 0.273999
C34   C     C_R   0.608878 0.499764 0.498878 0.824665
C35   C     C_R   0.452087 0.475680 0.077679 -0.221323
C36   C     C_R   0.450781 0.481474 0.929938 0.507432
C37   C     C_R   0.548122 0.530159 0.924299 0.149370
C38   C     C_3   0.603375 0.462433 0.918397 -0.440946
C39   C     C_3   0.603331 0.464064 0.075991 -0.459337
C40   C     C_R   0.881540 0.563977 0.400841 0.538577
C41   C     C_R   0.879603 0.408759 0.578708 0.538432
C42   C     C_R   0.939373 0.405864 0.580449 -0.019252
C43   C     C_R   0.970349 0.484085 0.489131 -0.017369
C44   C     C_R   0.941317 0.563465 0.397860 -0.019263
Cu1   Cu    Cu3+1 0.500000 0.499980 0.640670 0.992771
Cu2   Cu    Cu3+1 0.500000 0.500020 0.359330 0.963842
H1    H     H_    0.945951 0.266474 0.742559 0.193661
H2    H     H_    0.677039 0.379344 0.316757 0.176890
H3    H     H_    0.679511 0.616516 0.673475 0.174834
H4    H     H_    0.511261 0.117209 0.272720 0.171352
H5    H     H_    0.441063 0.879425 0.747054 0.215176
H6    H     H_    0.510652 0.890141 0.838671 0.180545
H7    H     H_    0.504162 0.113142 0.838739 0.064594
H8    H     H_    0.413786 0.450535 0.134957 0.172465
H9    H     H_    0.049571 0.266185 0.744210 0.187978
H10   H     H_    0.599101 0.368371 0.874505 0.208657
H11   H     H_    0.638274 0.518922 0.871681 0.214131
H12   H     H_    0.599148 0.370845 0.123866 0.202328
H13   H     H_    0.637910 0.522072 0.118680 0.218677
H14   H     H_    0.054862 0.700070 0.235034 0.187955
H15   H     H_    0.951295 0.702116 0.235253 0.193463
H16   H     H_    0.211583 0.672977 0.571649 0.151063
H17   H     H_    0.220118 0.301511 0.429447 0.156544
N1    N     N_R   0.852124 0.487464 0.490365 -0.489940
N2    N     N_R   0.148837 0.484608 0.492854 -0.441814
N3    N     N_R   0.500360 0.500930 0.147930 -0.208400
N4    N     N_R   0.500360 0.500890 0.852020 -0.228730
O1    O     O_R   0.500000 0.319640 0.618810 -0.560995
O2    O     O_2   0.849106 0.334100 0.664726 -0.506526
O3    O     O_2   0.147894 0.335518 0.672234 -0.546303
O4    O     O_2   0.151411 0.632710 0.312363 -0.555362
O5    O     O_R   0.500010 0.319680 0.381230 -0.595582
O6    O     O_R   0.417880 0.499940 0.618820 -0.518499
O7    O     O_R   0.417880 0.499980 0.381240 -0.602640
O8    O     O_R   0.499990 0.680320 0.618770 -0.588070
O9    O     O_R   0.500000 0.680360 0.381190 -0.526854
O10   O     O_R   0.582120 0.500020 0.618760 -0.590837
O11   O     O_R   0.582120 0.500060 0.381180 -0.583580
O12   O     O_2   0.852932 0.640302 0.315387 -0.505796
O13   O     O_3   0.788516 0.628485 0.695351 -0.691283
H18   H     H_    0.830251 0.625160 0.679835 0.341063
O14   O     O_3   0.510015 0.876536 0.241603 -0.549748
C45   C     C_3   0.460107 0.904577 0.166998 0.072775
H19   H     H_    0.468802 0.983410 0.095298 0.133341
H20   H     H_    0.422931 0.926635 0.235937 0.125844
C46   C     C_3   0.442830 0.793374 0.082271 -0.792689
H21   H     H_    0.427379 0.719358 0.153698 0.254498
H22   H     H_    0.407886 0.818647 0.010972 0.177983
H23   H     H_    0.479627 0.758710 0.020170 0.245168
O15   O     O_3   0.424390 0.111638 0.731655 -0.543235
C47   C     C_3   0.396064 0.129256 0.860462 0.065855
H24   H     H_    0.418059 0.201032 0.922211 0.161708
H25   H     H_    0.393832 0.041681 0.921214 0.115876
C48   C     C_3   0.335554 0.172298 0.833788 -0.679254
H26   H     H_    0.336373 0.253262 0.762658 0.290665
H27   H     H_    0.310626 0.097651 0.784975 0.225506
H28   H     H_    0.314333 0.198070 0.933590 0.185907
O16   O     O_3   0.399887 0.454237 0.866866 -0.562184
C49   C     C_3   0.359485 0.548550 0.894854 0.044561
H29   H     H_    0.365317 0.624364 0.817735 0.208646
H30   H     H_    0.362540 0.589504 0.000506 0.108345
C50   C     C_3   0.299479 0.496670 0.883802 -0.736122
H31   H     H_    0.291818 0.426926 0.967165 0.227253
H32   H     H_    0.267824 0.571922 0.895998 0.218794
H33   H     H_    0.293596 0.452881 0.781140 0.254808
O17   O     O_3   0.326441 0.708481 0.578818 -0.602673
C51   C     C_3   0.303444 0.816237 0.518521 0.029130
H34   H     H_    0.263318 0.842936 0.573412 0.160313
H35   H     H_    0.295674 0.804436 0.405055 0.160469
C52   C     C_3   0.345255 0.921503 0.535653 -0.745757
H36   H     H_    0.385790 0.901166 0.479441 0.230353
H37   H     H_    0.326737 0.007851 0.493874 0.231655
H38   H     H_    0.353803 0.934110 0.647777 0.270145
O18   O     O_3   0.334712 0.287149 0.429036 -0.566782
C53   C     C_3   0.321116 0.238322 0.297713 0.094145
H39   H     H_    0.310368 0.311021 0.219653 0.132789
H40   H     H_    0.284807 0.172998 0.309556 0.144713
C54   C     C_3   0.372414 0.167993 0.242150 -0.838331
H41   H     H_    0.389497 0.108186 0.325492 0.261542
H42   H     H_    0.359754 0.110043 0.153177 0.184329
H43   H     H_    0.406421 0.232920 0.207492 0.246361
O19   O     O_3   0.785642 0.354318 0.288845 -0.689960
H44   H     H_    0.827333 0.352495 0.302169 0.341527

loop_
_geom_bond_atom_site_label_1
_geom_bond_atom_site_label_2
_ccdc_geom_bond_type
C12   O7    A    
C41   C42   A    
C7    H14   S    
C19   C20   A    
C23   O9    A    
C11   H16   S    
C54   H42   S    
Cu2   O9    S    
O18   C53   S    
C36   N4    A    
C7    C8    A    
Cu1   Cu2   S    
C26   C27   A    
C29   C30   A    
C18   C24   A    
C23   C29   S    
C28   C29   A    
Cu2   N3    S    
C34   O10   A    
C30   C31   S    
C46   H22   S    
O17   C51   S    
C15   C16   A    
C1    O1    A    
C50   H33   S    
Cu1   O6    S    
C18   C19   A    
C54   H41   S    
C52   H36   S    
C3    H9    S    
C32   O15   S    
C45   H19   S    
C16   C17   A    
C53   H40   S    
C12   O6    A    
Cu1   N4    S    
C51   H34   S    
C16   H17   S    
C31   H6    S    
Cu2   O5    S    
C27   H4    S    
C8    H15   S    
C20   C34   S    
C10   O4    S    
C25   C32   S    
C5    C43   A    
C24   N1    S    
C21   C22   A    
C35   H8    S    
C51   H35   S    
C48   H28   S    
C21   H3    S    
C33   N3    A    
C9    N2    A    
C38   C39   S    
C15   O18   S    
C1    O5    A    
C28   O14   S    
C50   H31   S    
C9    O3    S    
C31   H5    S    
C47   H24   S    
Cu2   O11   S    
C19   H2    S    
O13   H18   S    
C35   N3    A    
C25   C26   A    
C39   H12   S    
C33   C37   A    
C54   H43   S    
C50   H32   S    
C43   C44   A    
C37   C38   S    
C47   H25   S    
C38   H11   S    
C49   H29   S    
C40   C44   A    
C53   C54   S    
C39   H13   S    
C45   C46   S    
Cu1   O1    S    
C40   O12   S    
C33   C39   S    
C48   H27   S    
C52   H38   S    
C18   O19   S    
C45   H20   S    
C12   C14   S    
O16   C49   S    
C1    C26   S    
C51   C52   S    
C22   C24   A    
C42   C43   A    
C3    C4    A    
C32   H7    S    
Cu2   O7    S    
C41   O2    S    
C10   N2    A    
C25   C30   A    
C11   C17   A    
C49   H30   S    
C46   H21   S    
C31   C32   S    
C8    C44   A    
C23   O8    A    
C13   O17   S    
C46   H23   S    
C6    C10   A    
C36   O16   S    
C6    C7    A    
C2    H1    S    
C17   N2    S    
C40   N1    A    
Cu1   O8    S    
C2    C3    A    
O19   H44   S    
C22   O13   S    
C34   O11   A    
C47   C48   S    
C11   C13   A    
O15   C47   S    
C5    C6    A    
C2    C42   A    
C37   N4    A    
C48   H26   S    
C52   H37   S    
C4    C5    A    
C49   C50   S    
C38   H10   S    
C20   C21   A    
O14   C45   S    
C27   C28   A    
C14   C15   A    
Cu1   O10   S    
C35   C36   A    
C41   N1    A    
C4    C9    A    
C13   C14   A    
C53   H39   S    
