data_mof_unit_2996.cif
_audit_creation_date              2012-12-10T18:08:46-0500
_audit_creation_method            fapswitch 2.2
_symmetry_space_group_name_H-M    P1
_symmetry_Int_Tables_number       1
_space_group_crystal_system       triclinic
_cell_length_a                    12.728675
_cell_length_b                    13.920508
_cell_length_c                    23.567538
_cell_angle_alpha                 88.131163
_cell_angle_beta                  93.295366
_cell_angle_gamma                 98.199867
_cell_volume                      4125.13690237

loop_
_atom_site_label
_atom_site_type_symbol
_atom_type_description
_atom_site_fract_x
_atom_site_fract_y
_atom_site_fract_z
_atom_type_partial_charge
C1    C     C_R   0.483473 0.315741 0.499677 0.818609
C2    C     C_R   0.516544 0.684262 0.500489 0.811219
C3    C     C_R   0.440853 0.577927 0.237424 -0.094723
C4    C     C_R   0.419361 0.440607 0.761423 -0.106220
C5    C     C_R   0.437005 0.570631 0.296726 0.110995
C6    C     C_R   0.414096 0.444333 0.701806 0.112282
C7    C     C_R   0.502327 0.510700 0.328215 -0.091535
C8    C     C_R   0.500374 0.495968 0.672513 -0.102566
C9    C     C_R   0.573187 0.462063 0.299270 -0.072750
C10   C     C_R   0.591460 0.540520 0.704606 -0.076911
C11   C     C_R   0.576207 0.472158 0.240208 -0.165530
C12   C     C_R   0.596188 0.530856 0.763776 -0.152005
C13   C     C_R   0.509081 0.528138 0.209247 0.306399
C14   C     C_R   0.509603 0.483809 0.792468 0.294620
C15   C     C_1   0.526149 0.787622 0.500647 -0.184157
C16   C     C_1   0.473981 0.212390 0.499732 -0.183202
C17   C     C_2   0.543895 0.978529 0.500648 -0.168910
C18   C     C_2   0.456691 0.021534 0.499777 -0.154498
C19   C     C_1   0.465679 0.125358 0.499756 -0.005691
C20   C     C_1   0.534722 0.874673 0.500697 0.001776
C21   C     C_2   0.027829 0.472845 0.484882 -0.259982
C22   C     C_2   0.972105 0.527124 0.515482 -0.265994
C23   C     C_R   0.500584 0.503022 0.390796 0.803753
C24   C     C_R   0.499624 0.498807 0.609436 0.799418
C25   C     C_1   0.854781 0.519408 0.511362 0.222963
C26   C     C_1   0.145199 0.480594 0.488809 0.197088
C27   C     C_R   0.526606 0.577890 0.877344 0.533691
C28   C     C_R   0.463081 0.439928 0.123688 0.533020
C29   C     C_R   0.491767 0.405779 0.886013 0.528177
C30   C     C_R   0.538769 0.606027 0.116868 0.532916
C31   C     C_R   0.482952 0.410535 0.945633 -0.063040
C32   C     C_R   0.537610 0.602225 0.056749 -0.064833
C33   C     C_R   0.508391 0.502622 0.971237 -0.040731
C34   C     C_R   0.506356 0.510735 0.030963 -0.040800
C35   C     C_R   0.536387 0.586736 0.936927 -0.062742
C36   C     C_R   0.471886 0.427580 0.064958 -0.065223
C37   C     C_R   0.452317 0.326797 0.980335 -0.069390
C38   C     C_R   0.569787 0.685434 0.021991 -0.070018
C39   C     C_R   0.447137 0.335283 0.039632 -0.065896
C40   C     C_R   0.571754 0.677089 0.962679 -0.063994
Cu1   Cu    Cu3+1 0.395330 0.493960 0.496390 0.965154
Cu2   Cu    Cu3+1 0.604670 0.506040 0.503610 0.991894
H1    H     H_    0.389080 0.620690 0.212662 0.140646
H2    H     H_    0.352289 0.405155 0.784143 0.145969
H3    H     H_    0.627932 0.432968 0.217635 0.138265
H4    H     H_    0.665598 0.565043 0.788132 0.152971
H5    H     H_    0.378107 0.979021 0.499108 0.158407
H6    H     H_    0.622495 0.021023 0.501280 0.150755
H7    H     H_    0.015019 0.579463 0.544689 0.155870
H8    H     H_    0.984799 0.420433 0.455784 0.157729
N1    N     N_R   0.509594 0.488774 0.853461 -0.452752
N2    N     N_R   0.502795 0.525473 0.148303 -0.455663
N3    N     N_1   0.238030 0.484870 0.490960 -0.160020
N4    N     N_1   0.761970 0.515130 0.509040 -0.148467
O1    O     O_R   0.399110 0.356330 0.496510 -0.570234
O2    O     O_R   0.600890 0.643670 0.503490 -0.567226
O3    O     O_R   0.575900 0.366540 0.502610 -0.564144
O4    O     O_R   0.424100 0.633460 0.497390 -0.569817
O5    O     O_R   0.411590 0.494870 0.414830 -0.572615
O6    O     O_R   0.588410 0.505130 0.585170 -0.564984
O7    O     O_R   0.588370 0.505070 0.420930 -0.565037
O8    O     O_R   0.411630 0.494930 0.579070 -0.573061
O9    O     O_2   0.530834 0.657589 0.842962 -0.541381
O10   O     O_2   0.413771 0.368094 0.156558 -0.530716
O11   O     O_2   0.484271 0.319661 0.860451 -0.542401
O12   O     O_2   0.576505 0.688404 0.144232 -0.541035
C41   C     C_R   0.422918 0.228906 0.956048 0.190472
C42   C     C_R   0.322638 0.203154 0.928361 -0.106303
C43   C     C_R   0.292750 0.108904 0.908784 -0.123358
C44   C     C_R   0.362145 0.039820 0.917362 -0.117731
C45   C     C_R   0.461670 0.065115 0.945238 -0.160177
C46   C     C_R   0.492447 0.159392 0.964201 -0.103312
H9    H     H_    0.267724 0.255782 0.922451 0.109926
H10   H     H_    0.215451 0.089172 0.887457 0.121773
H11   H     H_    0.338637 0.966621 0.902696 0.121279
H12   H     H_    0.514781 0.011600 0.952775 0.140262
H13   H     H_    0.569401 0.177815 0.986230 0.114090
C47   C     C_R   0.597160 0.783798 0.045628 0.194906
C48   C     C_R   0.517269 0.842598 0.049561 -0.134531
C49   C     C_R   0.543324 0.937940 0.067635 -0.153919
C50   C     C_R   0.649023 0.975024 0.082136 -0.114441
C51   C     C_R   0.728958 0.916559 0.078516 -0.124868
C52   C     C_R   0.703326 0.821190 0.060054 -0.082906
H14   H     H_    0.435354 0.815149 0.037512 0.116391
H15   H     H_    0.481572 0.983366 0.069292 0.152169
H16   H     H_    0.669069 0.049189 0.095767 0.119205
H17   H     H_    0.810853 0.945443 0.089470 0.121818
H18   H     H_    0.765842 0.776861 0.056395 0.110894
C53   C     C_R   0.420605 0.245417 0.075002 0.181495
C54   C     C_R   0.315362 0.198610 0.075685 -0.092449
C55   C     C_R   0.290032 0.116896 0.110988 -0.132509
C56   C     C_R   0.369215 0.082143 0.146169 -0.111532
C57   C     C_R   0.474169 0.128300 0.145583 -0.132991
C58   C     C_R   0.500242 0.208951 0.109601 -0.117947
H19   H     H_    0.253114 0.226072 0.049379 0.111148
H20   H     H_    0.208840 0.081026 0.111454 0.123669
H21   H     H_    0.349353 0.019241 0.173731 0.130912
H22   H     H_    0.535423 0.101139 0.172734 0.133926
H23   H     H_    0.581743 0.244303 0.109494 0.108488
C59   C     C_R   0.622319 0.761538 0.928895 0.184109
C60   C     C_R   0.563171 0.834000 0.907868 -0.077918
C61   C     C_R   0.610719 0.910562 0.873946 -0.133744
C62   C     C_R   0.717708 0.916259 0.861931 -0.097539
C63   C     C_R   0.777211 0.844899 0.883339 -0.133037
C64   C     C_R   0.729654 0.767474 0.916540 -0.144512
H24   H     H_    0.480107 0.829899 0.916779 0.108584
H25   H     H_    0.564617 0.965404 0.856800 0.139553
H26   H     H_    0.754390 0.975779 0.835864 0.126492
H27   H     H_    0.859988 0.849239 0.873892 0.124782
H28   H     H_    0.776085 0.711961 0.932458 0.113821
C65   C     C_3   0.364476 0.628818 0.325175 -0.818999
H29   H     H_    0.410046 0.673804 0.358828 0.227599
H30   H     H_    0.328357 0.678641 0.294528 0.217314
H31   H     H_    0.298619 0.579421 0.344018 0.250053
C66   C     C_3   0.316477 0.391566 0.671119 -0.814698
H32   H     H_    0.339873 0.340009 0.640798 0.235588
H33   H     H_    0.262402 0.348858 0.700982 0.215298
H34   H     H_    0.270987 0.444499 0.648115 0.246789
C67   C     C_R   0.642100 0.396999 0.329020 0.135725
C68   C     C_R   0.753103 0.417802 0.326935 -0.132920
C69   C     C_R   0.818406 0.356818 0.355150 -0.146426
C70   C     C_R   0.773410 0.274401 0.385229 -0.113665
C71   C     C_R   0.662996 0.252576 0.386928 -0.117798
C72   C     C_R   0.597355 0.313547 0.358938 -0.112077
H35   H     H_    0.788931 0.481622 0.303909 0.127925
H36   H     H_    0.903909 0.373434 0.353652 0.126329
H37   H     H_    0.824084 0.227275 0.407048 0.123336
H38   H     H_    0.628332 0.188339 0.409897 0.132358
H39   H     H_    0.511891 0.295837 0.360541 0.111105
C73   C     C_R   0.681016 0.602399 0.678103 0.146808
C74   C     C_R   0.783758 0.576202 0.683199 -0.135714
C75   C     C_R   0.867529 0.633247 0.656844 -0.146648
C76   C     C_R   0.849470 0.717015 0.625658 -0.119092
C77   C     C_R   0.747718 0.744214 0.621013 -0.111176
C78   C     C_R   0.663720 0.687390 0.647271 -0.094352
H40   H     H_    0.798507 0.511001 0.706839 0.123736
H41   H     H_    0.946369 0.612286 0.660384 0.127024
H42   H     H_    0.914331 0.760847 0.605113 0.123065
H43   H     H_    0.733814 0.809122 0.596885 0.127983
H44   H     H_    0.585100 0.708937 0.643150 0.107396

loop_
_geom_bond_atom_site_label_1
_geom_bond_atom_site_label_2
_ccdc_geom_bond_type
C38   C40   A    
C21   C26   S    
C57   C58   A    
C61   C62   A    
C11   C13   A    
Cu1   Cu2   S    
C65   H29   S    
C17   H6    S    
C64   H28   S    
C18   H5    S    
C50   C51   A    
C71   H38   S    
C71   C72   A    
C67   C72   A    
C23   O5    A    
C3    H1    S    
C59   C64   A    
C60   C61   A    
Cu1   O4    S    
C18   C19   S    
C63   H27   S    
C33   C35   A    
C66   H32   S    
C53   C58   A    
C17   C20   S    
C41   C46   A    
C70   H37   S    
C63   C64   A    
C46   H13   S    
Cu2   O2    S    
C55   H20   S    
C47   C52   A    
Cu1   O1    S    
C73   C78   A    
C75   C76   A    
C66   H33   S    
C22   C25   S    
C31   C33   A    
C62   H26   S    
C32   C38   A    
C50   H16   S    
C3    C13   A    
C52   H18   S    
C76   H42   S    
C21   C22   D    
C48   H14   S    
C78   H44   S    
Cu1   O8    S    
Cu2   O3    S    
C21   H8    S    
C27   N1    A    
C56   H21   S    
C33   C34   A    
C43   H10   S    
C15   C20   T    
C37   C39   A    
C41   C42   A    
C54   H19   S    
C25   N4    T    
Cu1   O5    S    
C12   H4    S    
C74   H40   S    
Cu2   O6    S    
C77   H43   S    
C5    C7    A    
C47   C48   A    
C42   C43   A    
C6    C8    A    
C5    C65   S    
C27   C35   A    
C42   H9    S    
C31   C37   A    
C4    H2    S    
C32   C34   A    
C10   C73   S    
C49   H15   S    
C1    O3    A    
C13   N2    S    
C14   N1    S    
C23   O7    A    
C24   O6    A    
C66   H34   S    
C17   C18   D    
C61   H25   S    
C65   H30   S    
C1    C16   S    
C2    C15   S    
C9    C11   A    
Cu2   O7    S    
Cu1   N3    S    
C69   C70   A    
C30   O12   S    
C10   C12   A    
C22   H7    S    
C29   O11   S    
C28   O10   S    
C4    C6    A    
C12   C14   A    
C76   C77   A    
C9    C67   S    
C11   H3    S    
C74   C75   A    
C26   N3    T    
C44   H11   S    
C44   C45   A    
C68   C69   A    
C29   N1    A    
C60   H24   S    
C7    C9    A    
C30   N2    A    
C24   O8    A    
C68   H35   S    
C36   C39   A    
C49   C50   A    
C3    C5    A    
C40   C59   S    
C67   C68   A    
C2    O4    A    
C77   C78   A    
C38   C47   S    
C73   C74   A    
C1    O1    A    
C69   H36   S    
C29   C31   A    
C2    O2    A    
Cu2   N4    S    
C30   C32   A    
C28   N2    A    
C54   C55   A    
C45   H12   S    
C58   H23   S    
C16   C19   T    
C7    C23   S    
C37   C41   S    
C56   C57   A    
C8    C24   S    
C72   H39   S    
C35   C40   A    
C65   H31   S    
C34   C36   A    
C4    C14   A    
C43   C44   A    
C6    C66   S    
C48   C49   A    
C45   C46   A    
C28   C36   A    
C8    C10   A    
C51   C52   A    
C62   C63   A    
C70   C71   A    
C27   O9    S    
C59   C60   A    
C75   H41   S    
C53   C54   A    
C57   H22   S    
C39   C53   S    
C55   C56   A    
C51   H17   S    
