data_mof_unit_1623.cif
_audit_creation_date              2012-12-11T15:16:39-0500
_audit_creation_method            fapswitch 2.2
_symmetry_space_group_name_H-M    P1
_symmetry_Int_Tables_number       1
_space_group_crystal_system       triclinic
_cell_length_a                    24.88053
_cell_length_b                    7.247026
_cell_length_c                    22.335489
_cell_angle_alpha                 90.0
_cell_angle_beta                  109.471813
_cell_angle_gamma                 90.000022
_cell_volume                      3796.96910298

loop_
_atom_site_label
_atom_site_type_symbol
_atom_type_description
_atom_site_fract_x
_atom_site_fract_y
_atom_site_fract_z
_atom_type_partial_charge
O1    O     O_R   0.554350 0.505270 0.581390 -0.531931
O2    O     O_R   0.445650 0.005270 0.418610 -0.531931
O3    O     O_R   0.553380 0.177580 0.454800 -0.524480
O4    O     O_R   0.446620 0.677580 0.545200 -0.524479
C1    C     C_R   0.563166 0.342557 0.435269 0.731132
C2    C     C_R   0.436834 0.842557 0.564731 0.731133
O5    O     O_R   0.560970 0.175640 0.583140 -0.536988
O6    O     O_R   0.439030 0.675640 0.416860 -0.536988
O7    O     O_R   0.453290 0.004120 0.547860 -0.533557
O8    O     O_R   0.546710 0.504120 0.452140 -0.533557
C3    C     C_R   0.577241 0.344381 0.606705 0.815686
C4    C     C_R   0.422759 0.844381 0.393294 0.815686
O9    O     O_3   0.464660 0.338800 0.488280 -0.381083
O10   O     O_3   0.535340 0.838800 0.511720 -0.381083
V1    V     V_3+5 0.506560 0.064420 0.502170 1.434354
V2    V     V_3+5 0.493440 0.564420 0.497830 1.434355
C5    C     C_R   0.150394 0.102661 0.272428 -0.153361
C6    C     C_R   0.849606 0.602662 0.727572 -0.153362
H1    H     H_    0.065139 0.114165 0.208113 0.113104
H2    H     H_    0.934861 0.614166 0.791887 0.113104
H3    H     H_    0.236252 0.178750 0.372981 0.130872
H4    H     H_    0.763747 0.678751 0.627019 0.130872
H5    H     H_    0.140013 0.188238 0.306875 0.117337
H6    H     H_    0.859987 0.688240 0.693125 0.117337
C7    C     C_R   0.119256 0.952275 0.170343 -0.043088
C8    C     C_R   0.880744 0.452275 0.829657 -0.043088
C9    C     C_R   0.394264 0.768069 0.278773 0.251746
C10   C     C_R   0.605735 0.268069 0.721227 0.251745
C11   C     C_R   0.352682 0.724032 0.220410 0.277725
C12   C     C_R   0.647318 0.224032 0.779590 0.277725
C13   C     C_R   0.295684 0.768798 0.209184 -0.257111
C14   C     C_R   0.704316 0.268798 0.790816 -0.257110
C15   C     C_R   0.278330 0.869093 0.253516 -0.008319
C16   C     C_R   0.721670 0.369093 0.746484 -0.008319
C17   C     C_R   0.320366 0.910871 0.314339 -0.026212
C18   C     C_R   0.679634 0.410871 0.685661 -0.026212
C19   C     C_R   0.220029 0.927960 0.239055 0.100762
C20   C     C_R   0.779971 0.427960 0.760945 0.100762
C21   C     C_R   0.206172 0.040853 0.283492 0.097550
C22   C     C_R   0.793828 0.540853 0.716508 0.097551
C23   C     C_R   0.247633 0.091007 0.339656 -0.259292
C24   C     C_R   0.752367 0.591007 0.660344 -0.259292
C25   C     C_R   0.302449 0.017243 0.357677 0.272326
C26   C     C_R   0.697551 0.517243 0.642324 0.272326
C27   C     C_R   0.174943 0.884854 0.181532 -0.210179
C28   C     C_R   0.825056 0.384854 0.818468 -0.210179
C29   C     C_R   0.107482 0.058536 0.216557 -0.153038
C30   C     C_R   0.892518 0.558537 0.783443 -0.153038
C31   C     C_R   0.378330 0.847695 0.328186 -0.179817
C32   C     C_R   0.621670 0.347695 0.671814 -0.179817
H7    H     H_    0.181814 0.806797 0.143686 0.101437
H8    H     H_    0.818186 0.306796 0.856314 0.101437
H9    H     H_    0.266173 0.728460 0.163733 0.132442
H10   H     H_    0.733827 0.228460 0.836267 0.132442
C33   C     C_R   0.117847 0.768388 0.877900 -0.162866
C34   C     C_R   0.882152 0.268388 0.122100 -0.162866
H11   H     H_    0.096863 0.642908 0.884509 0.124092
H12   H     H_    0.903137 0.142908 0.115490 0.124092
C35   C     C_R   0.155956 0.758229 0.843952 -0.140366
C36   C     C_R   0.844044 0.258229 0.156048 -0.140366
C37   C     C_R   0.184497 0.916618 0.833837 0.020926
C38   C     C_R   0.815503 0.416619 0.166163 0.020927
C39   C     C_R   0.173802 0.085814 0.858675 -0.138708
C40   C     C_R   0.826198 0.585814 0.141325 -0.138708
H13   H     H_    0.194820 0.210784 0.851675 0.137796
H14   H     H_    0.805180 0.710785 0.148325 0.137796
C41   C     C_R   0.135334 0.096303 0.892392 -0.162133
C42   C     C_R   0.864666 0.596304 0.107608 -0.162133
H15   H     H_    0.128175 0.229085 0.910658 0.123343
H16   H     H_    0.871825 0.729085 0.089342 0.123342
C43   C     C_R   0.106808 0.937562 0.902554 -0.046807
C44   C     C_R   0.893192 0.437562 0.097446 -0.046808
N1    N     N_R   0.258158 0.049246 0.793592 -0.284010
N2    N     N_R   0.741842 0.549246 0.206408 -0.284010
N3    N     N_R   0.293297 0.037461 0.759743 -0.285045
N4    N     N_R   0.706703 0.537461 0.240257 -0.285045
C45   C     C_R   0.296121 0.880458 0.727547 0.528483
C46   C     C_R   0.703878 0.380459 0.272453 0.528483
N5    N     N_R   0.262530 0.735860 0.731072 -0.284484
N6    N     N_R   0.737470 0.235860 0.268927 -0.284484
N7    N     N_R   0.227649 0.747362 0.765043 -0.288010
N8    N     N_R   0.772350 0.247362 0.234957 -0.288010
C47   C     C_R   0.224459 0.904378 0.796909 0.512517
C48   C     C_R   0.775541 0.404378 0.203091 0.512517
C49   C     C_R   0.326326 0.722566 0.644064 -0.192912
C50   C     C_R   0.673674 0.222567 0.355935 -0.192913
C51   C     C_R   0.359899 0.709469 0.604595 0.278742
C52   C     C_R   0.640101 0.209469 0.395405 0.278742
C53   C     C_R   0.402079 0.844806 0.608124 -0.091249
C54   C     C_R   0.597921 0.344806 0.391876 -0.091249
C55   C     C_R   0.409840 0.987367 0.652767 -0.257742
C56   C     C_R   0.590160 0.487367 0.347233 -0.257741
H17   H     H_    0.441851 0.091228 0.656716 0.161433
H18   H     H_    0.558148 0.591228 0.343284 0.161433
C57   C     C_R   0.376146 0.999260 0.691999 -0.146952
C58   C     C_R   0.623853 0.499260 0.308001 -0.146953
C59   C     C_R   0.333682 0.867325 0.687829 -0.012150
C60   C     C_R   0.666318 0.367326 0.312171 -0.012149
O11   O     O_R   0.953220 0.285790 0.047790 -0.538520
O12   O     O_R   0.046780 0.785790 0.952210 -0.538520
O13   O     O_R   0.939020 0.617570 0.916840 -0.536829
O14   O     O_R   0.060980 0.117570 0.083160 -0.536829
C61   C     C_R   0.924227 0.449387 0.893237 0.682668
C62   C     C_R   0.075773 0.949387 0.106762 0.682668
O15   O     O_R   0.946600 0.615450 0.045180 -0.540734
O16   O     O_R   0.053400 0.115450 0.954820 -0.540735
O17   O     O_R   0.054370 0.786770 0.081410 -0.534704
O18   O     O_R   0.945630 0.286770 0.918590 -0.534704
C63   C     C_R   0.933841 0.447082 0.061154 0.675589
C64   C     C_R   0.066159 0.947082 0.938845 0.675590
O19   O     O_3   0.035300 0.454160 0.011680 -0.375213
O20   O     O_3   0.964700 0.954160 0.988320 -0.375213
V3    V     V_3+5 0.993450 0.728620 0.997830 1.406204
V4    V     V_3+5 0.006550 0.228620 0.002170 1.406204
H19   H     H_    0.163121 0.625338 0.825757 0.135766
H20   H     H_    0.836879 0.125338 0.174243 0.135766
H21   H     H_    0.293511 0.619900 0.639308 0.145512
H22   H     H_    0.706488 0.119900 0.360691 0.145513
N9    N     N_2   0.347663 0.567669 0.558086 -0.538088
H23   H     H_    0.304664 0.554195 0.533395 0.243622
C65   C     C_3   0.373297 0.392402 0.581989 -0.487120
H24   H     H_    0.354169 0.335720 0.616482 0.183111
H25   H     H_    0.419994 0.407284 0.604933 0.210997
H26   H     H_    0.365849 0.295156 0.541924 0.196760
N10   N     N_2   0.652337 0.067669 0.441914 -0.538089
H27   H     H_    0.695336 0.054195 0.466605 0.243622
C66   C     C_3   0.626703 0.892402 0.418011 -0.487121
H28   H     H_    0.645830 0.835721 0.383518 0.183111
H29   H     H_    0.580006 0.907284 0.395067 0.210998
H30   H     H_    0.634152 0.795155 0.458076 0.196759
H31   H     H_    0.383210 0.112558 0.725341 0.145216
H32   H     H_    0.616790 0.612558 0.274658 0.145216
N11   N     N_2   0.452974 0.736215 0.287591 -0.530990
H33   H     H_    0.460721 0.624880 0.262896 0.284369
C67   C     C_3   0.483294 0.900397 0.279923 -0.565936
H34   H     H_    0.527753 0.864771 0.284094 0.186917
H35   H     H_    0.484374 0.003896 0.316941 0.200258
H36   H     H_    0.462578 0.962729 0.232426 0.204739
N12   N     N_2   0.547026 0.236214 0.712409 -0.530990
H37   H     H_    0.539279 0.124879 0.737104 0.284368
C68   C     C_3   0.516706 0.400396 0.720077 -0.565936
H38   H     H_    0.472246 0.364770 0.715906 0.186917
H39   H     H_    0.515626 0.503896 0.683059 0.200257
H40   H     H_    0.537422 0.462727 0.767574 0.204740
N13   N     N_2   0.368150 0.629265 0.172783 -0.528304
H41   H     H_    0.344886 0.510049 0.157797 0.254673
C69   C     C_3   0.368736 0.743109 0.119802 -0.528496
H42   H     H_    0.385270 0.661444 0.087639 0.203828
H43   H     H_    0.396874 0.864514 0.136619 0.205917
H44   H     H_    0.324939 0.790926 0.092593 0.186440
N14   N     N_2   0.631850 0.129266 0.827217 -0.528304
H45   H     H_    0.655113 0.010049 0.842203 0.254673
C70   C     C_3   0.631265 0.243110 0.880198 -0.528495
H46   H     H_    0.614730 0.161446 0.912361 0.203828
H47   H     H_    0.603128 0.364518 0.863382 0.205916
H48   H     H_    0.675062 0.290922 0.907408 0.186439
N15   N     N_2   0.336998 0.044401 0.421553 -0.512757
H49   H     H_    0.342641 0.182503 0.433173 0.260095
C71   C     C_3   0.316256 0.942126 0.465074 -0.562065
H50   H     H_    0.332929 0.003954 0.512720 0.186564
H51   H     H_    0.329425 0.796087 0.465498 0.218991
H52   H     H_    0.269103 0.947469 0.451953 0.189604
N16   N     N_2   0.663002 0.544401 0.578446 -0.512757
H53   H     H_    0.657360 0.682503 0.566827 0.260094
C72   C     C_3   0.683744 0.442124 0.534926 -0.562060
H54   H     H_    0.667071 0.503953 0.487280 0.186563
H55   H     H_    0.670574 0.296085 0.534502 0.218990
H56   H     H_    0.730897 0.447463 0.548048 0.189603

loop_
_geom_bond_atom_site_label_1
_geom_bond_atom_site_label_2
_ccdc_geom_bond_type
C67   H36   S    
C20   C22   A    
C39   H13   S    
O12   C64   A    
C72   H54   S    
C33   C35   A    
C9    C11   A    
C23   C25   A    
C69   H42   S    
O1    C3    A    
O2    C4    A    
O11   V4    S    
N13   H41   S    
C12   N14   S    
O3    V1    S    
C67   H34   S    
C21   C23   A    
H4    C24   S    
O5    C3    A    
N15   H49   S    
N2    N4    A    
O16   V4    S    
C6    H6    S    
C40   C42   A    
O15   V3    S    
C69   H43   S    
N4    C46   A    
C68   H39   S    
C11   N13   S    
C50   C52   A    
C27   H7    S    
O11   C63   A    
C43   C64   S    
C28   H8    S    
C56   C58   A    
O13   V3    S    
C36   C38   A    
C5    C21   A    
O18   V4    S    
C37   C39   A    
C6    C22   A    
O17   V3    S    
C65   H26   S    
C38   C40   A    
N13   C69   S    
C10   C32   A    
N16   H53   S    
C34   C44   A    
C51   C53   A    
C58   C60   A    
C46   C60   S    
N14   H45   S    
C71   H51   S    
C45   C59   S    
C61   O18   A    
C26   N16   S    
C53   C55   A    
C17   C25   A    
C7    C29   A    
C16   C18   A    
C1    C54   S    
C49   C59   A    
C8    C30   A    
C58   H32   S    
C49   C51   A    
C72   H55   S    
C57   H31   S    
N1    N3    A    
C51   N9    S    
C10   N12   S    
C24   C26   A    
C2    O7    A    
C11   C13   A    
C14   H10   S    
O20   V3    S    
N7    C47   A    
C4    C31   S    
N9    C65   S    
O9    V2    S    
N12   H37   S    
C39   C41   A    
C35   C37   A    
C20   C28   A    
C9    N11   S    
C69   H44   S    
C45   N5    A    
N6    N8    A    
C37   C47   S    
C68   H40   S    
N5    N7    A    
O5    V1    S    
O3    C1    A    
C15   C19   A    
C34   C36   A    
C42   C44   A    
C41   H15   S    
C40   H14   S    
O4    V2    S    
O14   C62   A    
C66   H29   S    
C17   C31   A    
C52   N10   S    
O14   V4    S    
C8    C61   S    
C55   H17   S    
N3    C45   A    
C54   C56   A    
C71   H50   S    
O6    C4    A    
C13   C15   A    
C71   H52   S    
C50   H22   S    
O1    V2    S    
C5    H5    S    
C13   H9    S    
C70   H48   S    
C49   H21   S    
O2    V1    S    
C46   N6    A    
C65   H24   S    
H2    C30   S    
H3    C23   S    
C35   H19   S    
C52   C54   A    
C72   H56   S    
N8    C48   A    
C33   H11   S    
N11   H33   S    
C18   C26   A    
O4    C2    A    
C70   H47   S    
C19   C27   A    
C66   H28   S    
C7    C27   A    
C18   C32   A    
N11   C67   S    
O16   C64   A    
C67   H35   S    
C38   C48   S    
C44   C63   S    
N16   C72   S    
C16   C20   A    
O12   V3    S    
C5    C29   A    
N2    C48   A    
C25   N15   S    
C6    C30   A    
N15   C71   S    
N9    H23   S    
C57   C59   A    
C7    C62   S    
C2    C53   S    
O13   C61   A    
C10   C12   A    
O7    V1    S    
C66   H30   S    
C1    O8    A    
C19   C21   A    
C3    C32   S    
O8    V2    S    
C68   H38   S    
C12   C14   A    
N12   C68   S    
C56   H18   S    
N10   H27   S    
O15   C63   A    
C22   C24   A    
C15   C17   A    
C34   H12   S    
O19   V4    S    
C41   C43   A    
N14   C70   S    
C50   C60   A    
C65   H25   S    
C36   H20   S    
C8    C28   A    
C55   C57   A    
O6    V2    S    
H1    C29   S    
N10   C66   S    
C42   H16   S    
O10   V1    S    
C70   H46   S    
N1    C47   A    
C62   O17   A    
C33   C43   A    
C9    C31   A    
C14   C16   A    
