data_mof_unit_624.cif
_audit_creation_date              2012-10-26T18:26:36-0400
_audit_creation_method            fapswitch 2.2
_symmetry_space_group_name_H-M    P1
_symmetry_Int_Tables_number       1
_space_group_crystal_system       triclinic
_cell_length_a                    15.81708
_cell_length_b                    8.722168
_cell_length_c                    7.433519
_cell_angle_alpha                 101.852582
_cell_angle_beta                  94.168948
_cell_angle_gamma                 92.344925
_cell_volume                      999.36228252

loop_
_atom_site_label
_atom_site_type_symbol
_atom_type_description
_atom_site_fract_x
_atom_site_fract_y
_atom_site_fract_z
_atom_type_partial_charge
C1    C     C_R   0.493941 0.200954 0.456707 0.555414
C2    C     C_3   0.976510 0.647598 0.546148 -0.100925
C3    C     C_1   0.250340 0.500914 0.507172 -0.043060
C4    C     C_1   0.749644 0.499504 0.492883 -0.041826
C5    C     C_3   0.033622 0.565265 0.670941 -0.098707
C6    C     C_3   0.966283 0.433294 0.328985 -0.099739
C7    C     C_3   0.082812 0.499630 0.504308 0.054337
C8    C     C_3   0.917105 0.498945 0.495619 0.053161
C9    C     C_1   0.174662 0.500351 0.507453 -0.067982
C10   C     C_1   0.825289 0.499047 0.492496 -0.070529
C11   C     C_3   0.391445 0.967378 0.332473 -0.260748
C12   C     C_R   0.504914 0.799086 0.543794 0.547130
C13   C     C_3   0.315512 0.067833 0.382430 -0.307638
C14   C     C_3   0.231916 0.984788 0.289565 -0.461311
C15   C     C_3   0.605088 0.032182 0.670412 -0.255476
C16   C     C_3   0.675607 0.059868 0.546856 -0.297365
C17   C     C_3   0.758030 0.125276 0.661564 -0.454368
C18   C     C_R   0.339947 0.500999 0.502501 0.531905
C19   C     C_R   0.660079 0.500289 0.497679 0.542818
C20   C     C_2   0.474009 0.037743 0.446770 -0.022768
C21   C     C_2   0.522421 0.962914 0.556613 -0.026346
C22   C     C_3   0.972646 0.416604 0.620390 -0.102503
C23   C     C_3   0.027251 0.581958 0.379547 -0.100794
C24   C     C_3   0.023412 0.350950 0.453783 -0.101551
Cu1   Cu    Cu3+1 0.509330 0.517380 0.684380 0.933831
Cu2   Cu    Cu3+1 0.490670 0.482620 0.315620 0.930141
H1    H     H_    0.044094 0.229258 0.416196 0.094485
H2    H     H_    0.218911 0.875557 0.340268 0.153909
H3    H     H_    0.179150 0.063196 0.322553 0.139568
H4    H     H_    0.311778 0.093849 0.534438 0.159536
H5    H     H_    0.323674 0.180206 0.336244 0.187325
H6    H     H_    0.400731 0.957822 0.183841 0.159091
H7    H     H_    0.372826 0.848663 0.352076 0.179527
H8    H     H_    0.748121 0.239607 0.753426 0.167651
H9    H     H_    0.780659 0.041747 0.746386 0.145446
H10   H     H_    0.807609 0.143758 0.568543 0.142041
H11   H     H_    0.687533 0.946971 0.454039 0.156545
H12   H     H_    0.955749 0.769257 0.583760 0.098234
H13   H     H_    0.656588 0.143806 0.459809 0.174683
H14   H     H_    0.594974 0.140227 0.772626 0.182101
H15   H     H_    0.628777 0.949349 0.755506 0.148955
H16   H     H_    0.948700 0.348760 0.719071 0.096306
H17   H     H_    0.051192 0.649875 0.280922 0.097137
H18   H     H_    0.937215 0.379277 0.188669 0.099185
H19   H     H_    0.062676 0.619276 0.811271 0.100192
H20   H     H_    0.435054 0.377447 0.949147 0.240538
H21   H     H_    0.564964 0.622518 0.050848 0.241228
H22   H     H_    0.234474 0.955150 0.137483 0.156723
N1    N     N_2   0.476600 0.456420 0.038510 -0.256992
N2    N     N_2   0.523400 0.543580 0.961490 -0.257565
O1    O     O_R   0.506070 0.286130 0.619780 -0.516583
O2    O     O_R   0.493930 0.713870 0.380220 -0.516452
O3    O     O_R   0.490300 0.256770 0.308360 -0.504054
O4    O     O_R   0.509700 0.743230 0.691640 -0.502072
O5    O     O_R   0.386960 0.514660 0.655680 -0.496737
O6    O     O_R   0.613040 0.485340 0.344320 -0.500738
O7    O     O_R   0.371190 0.485310 0.344260 -0.505919
O8    O     O_R   0.628810 0.514690 0.655740 -0.498397

loop_
_geom_bond_atom_site_label_1
_geom_bond_atom_site_label_2
_ccdc_geom_bond_type
C19   O6    A    
C8    C22   S    
Cu1   O1    S    
C3    C9    T    
C17   H10   S    
Cu2   O2    S    
C11   C13   S    
C2    H12   S    
C18   O7    A    
C24   H1    S    
C11   H7    S    
C16   H11   S    
C6    C24   S    
C6    H18   S    
C13   C14   S    
C20   C21   D    
C1    O1    A    
H20   N1    S    
C22   H16   S    
C18   O5    A    
C7    C23   S    
C6    C23   S    
C12   O2    A    
C11   H6    S    
H21   N2    S    
C5    C7    S    
C19   O8    A    
C15   H14   S    
Cu2   O7    S    
C22   C24   S    
C11   C20   S    
C2    C5    S    
C17   H8    S    
C12   O4    A    
C16   H13   S    
C4    C10   T    
C7    C24   S    
Cu2   O3    S    
Cu1   O5    S    
C13   H4    S    
C15   C21   S    
C23   H17   S    
Cu1   O4    S    
C15   H15   S    
C3    C18   S    
C8    C10   S    
N1    N2    D    
Cu1   O8    S    
Cu2   N1    S    
C2    C23   S    
C7    C9    S    
C14   H22   S    
C1    O3    A    
Cu1   N2    S    
C1    C20   S    
C6    C8    S    
C17   H9    S    
C14   H2    S    
Cu1   Cu2   S    
C4    C19   S    
C5    H19   S    
C12   C21   S    
C13   H5    S    
C2    C8    S    
C5    C22   S    
C15   C16   S    
C14   H3    S    
C16   C17   S    
Cu2   O6    S    
