data_mof_unit_1303.cif
_audit_creation_date              2012-12-10T17:39:00-0500
_audit_creation_method            fapswitch 2.2
_symmetry_space_group_name_H-M    P1
_symmetry_Int_Tables_number       1
_space_group_crystal_system       triclinic
_cell_length_a                    12.053028
_cell_length_b                    12.807841
_cell_length_c                    23.454862
_cell_angle_alpha                 90.134118
_cell_angle_beta                  85.605328
_cell_angle_gamma                 93.544915
_cell_volume                      3603.2400617

loop_
_atom_site_label
_atom_site_type_symbol
_atom_type_description
_atom_site_fract_x
_atom_site_fract_y
_atom_site_fract_z
_atom_type_partial_charge
C1    C     C_R   0.522513 0.700127 0.497496 0.960458
C2    C     C_R   0.477490 0.299907 0.502529 0.958243
C3    C     C_R   0.396195 0.500814 0.765645 0.161637
C4    C     C_R   0.598413 0.498724 0.233383 0.168420
C5    C     C_R   0.397748 0.500737 0.706244 -0.173765
C6    C     C_R   0.599435 0.498003 0.292787 -0.176168
C7    C     C_R   0.499184 0.502286 0.672818 -0.122586
C8    C     C_R   0.499304 0.497484 0.327226 -0.122877
C9    C     C_R   0.599947 0.504301 0.698978 -0.230438
C10   C     C_R   0.397429 0.496498 0.302177 -0.243641
C11   C     C_R   0.600276 0.504778 0.758306 0.379030
C12   C     C_R   0.394415 0.497017 0.243080 0.382766
C13   C     C_R   0.497845 0.502860 0.791616 0.170700
C14   C     C_R   0.495530 0.499257 0.208592 0.173736
C15   C     C_R   0.461289 0.188510 0.503763 -0.146662
C16   C     C_R   0.538684 0.811569 0.496445 -0.172171
C17   C     C_R   0.617333 0.963480 0.541773 -0.126407
C18   C     C_R   0.382369 0.036437 0.458837 -0.080357
C19   C     C_R   0.615654 0.857641 0.531671 -0.262216
C20   C     C_R   0.384233 0.142305 0.468646 -0.275877
C21   C     C_R   0.470521 0.871708 0.465584 0.378963
C22   C     C_R   0.529188 0.128623 0.534950 0.292672
C23   C     C_R   0.499834 0.501372 0.610593 0.952710
C24   C     C_R   0.500019 0.498408 0.389410 0.957356
C25   C     C_R   0.463093 0.976924 0.480745 0.002673
C26   C     C_R   0.536628 0.023201 0.519970 -0.010908
C27   C     C_R   0.956914 0.394860 0.452103 -0.264994
C28   C     C_R   0.043089 0.605070 0.547955 -0.256293
C29   C     C_R   0.840798 0.404159 0.455657 0.358030
C30   C     C_R   0.159248 0.596002 0.544223 0.356942
C31   C     C_R   0.858163 0.546943 0.519805 -0.032817
C32   C     C_R   0.141795 0.452835 0.480345 -0.039422
C33   C     C_R   0.975075 0.538268 0.517220 0.045980
C34   C     C_R   0.024883 0.461497 0.482946 0.047640
C35   C     C_R   0.483198 0.407157 0.120116 0.608867
C36   C     C_R   0.499335 0.596060 0.880335 0.597841
C37   C     C_R   0.504880 0.593618 0.119957 0.625010
C38   C     C_R   0.487449 0.409683 0.880480 0.640839
C39   C     C_R   0.494978 0.597979 0.060667 -0.143754
C40   C     C_R   0.474060 0.406799 0.940459 -0.169305
C41   C     C_R   0.487823 0.501716 0.030461 -0.083579
C42   C     C_R   0.487764 0.502493 0.970418 -0.084654
C43   C     C_R   0.482924 0.404571 0.060102 -0.049075
C44   C     C_R   0.502944 0.598771 0.940178 -0.030964
C45   C     C_R   0.497754 0.694357 0.030372 0.451256
C46   C     C_R   0.452891 0.311617 0.971077 0.452254
C47   C     C_R   0.518257 0.693999 0.970465 0.011973
C48   C     C_R   0.474123 0.308976 0.029174 0.013544
H1    H     H_    0.180284 0.393692 0.453832 0.130015
H2    H     H_    0.819660 0.606026 0.546358 0.126435
H3    H     H_    0.994142 0.334385 0.425938 0.157305
H4    H     H_    0.005915 0.665678 0.574041 0.155027
H5    H     H_    0.319653 0.499005 0.686140 0.177114
H6    H     H_    0.678291 0.498200 0.312098 0.175885
H7    H     H_    0.678384 0.505746 0.673126 0.212925
H8    H     H_    0.319891 0.495077 0.328777 0.213595
H9    H     H_    0.328078 0.188911 0.447016 0.175066
H10   H     H_    0.671950 0.810940 0.553143 0.174461
H11   H     H_    0.681050 0.996543 0.567523 0.194973
H12   H     H_    0.318822 0.003021 0.433023 0.221021
N1    N     N_R   0.493960 0.500127 0.147831 -0.344895
N2    N     N_R   0.496162 0.502901 0.852449 -0.345452
N3    N     N_R   0.207800 0.519350 0.510590 -0.100134
N4    N     N_R   0.792200 0.480650 0.489410 -0.095704
O1    O     O_R   0.421690 0.658830 0.502820 -0.591369
O2    O     O_R   0.578310 0.341170 0.497180 -0.590152
O3    O     O_R   0.609320 0.646410 0.496030 -0.632806
O4    O     O_R   0.390680 0.353590 0.503970 -0.632555
O5    O     O_R   0.406170 0.506240 0.587240 -0.648113
O6    O     O_R   0.593830 0.493760 0.412760 -0.646449
O7    O     O_R   0.593790 0.493820 0.580450 -0.589859
O8    O     O_R   0.406210 0.506180 0.419550 -0.594594
O9    O     O_2   0.470622 0.318502 0.151468 -0.534433
O10   O     O_2   0.496513 0.684775 0.849742 -0.561121
O11   O     O_2   0.529995 0.680734 0.149849 -0.465271
O12   O     O_2   0.496308 0.320981 0.849850 -0.422685
Zn1   Zn    Zn3+2 0.374720 0.508290 0.504530 1.003442
Zn2   Zn    Zn3+2 0.625280 0.491710 0.495470 1.005734
S1    S     S_3+6 0.461009 0.814043 0.064609 0.087180
O13   O     O_2   0.563215 0.867657 0.087093 -0.252712
O14   O     O_2   0.414311 0.885773 0.023093 -0.259331
O15   O     O_3   0.363323 0.790202 0.118846 -0.482774
H13   H     H_    0.355593 0.858401 0.138282 0.393812
S2    S     S_3+6 0.381404 0.200687 0.940766 0.092233
O16   O     O_2   0.465241 0.131975 0.911747 -0.227093
O17   O     O_2   0.312524 0.138679 0.986592 -0.246849
O18   O     O_3   0.295370 0.239937 0.892933 -0.519850
H14   H     H_    0.267049 0.174762 0.874729 0.405088
C49   C     C_3   0.226174 0.676953 0.575988 -0.778460
H15   H     H_    0.172649 0.717011 0.608798 0.206311
H16   H     H_    0.290260 0.642490 0.599559 0.248464
H17   H     H_    0.262903 0.738715 0.546033 0.261404
C50   C     C_3   0.774029 0.323974 0.423276 -0.792526
H18   H     H_    0.827967 0.283529 0.390815 0.209182
H19   H     H_    0.735794 0.262251 0.452799 0.246601
H20   H     H_    0.711275 0.359266 0.399154 0.252585
C51   C     C_3   0.567326 0.793005 0.940327 -0.563525
H21   H     H_    0.606739 0.848713 0.970127 0.246868
H22   H     H_    0.635933 0.774346 0.908316 0.246908
H23   H     H_    0.501856 0.832627 0.919360 0.289616
C52   C     C_3   0.495136 0.204820 0.055842 -0.555923
H24   H     H_    0.513127 0.143939 0.023334 0.259148
H25   H     H_    0.571043 0.212789 0.079888 0.233450
H26   H     H_    0.421804 0.176132 0.084301 0.288906
C53   C     C_3   0.286479 0.498789 0.801131 -0.750499
H27   H     H_    0.276853 0.427818 0.828544 0.272801
H28   H     H_    0.283375 0.569322 0.828656 0.253640
H29   H     H_    0.214758 0.497655 0.774040 0.246935
C54   C     C_3   0.706523 0.498102 0.196681 -0.771965
H30   H     H_    0.705756 0.428045 0.168719 0.242947
H31   H     H_    0.717696 0.569541 0.169661 0.262407
H32   H     H_    0.779309 0.496093 0.222897 0.250689
S3    S     S_3+6 0.729172 0.508007 0.790071 0.075968
O19   O     O_2   0.732467 0.412950 0.827154 -0.195485
O20   O     O_2   0.825267 0.509219 0.745199 -0.277894
O21   O     O_3   0.742590 0.615240 0.831018 -0.525031
H33   H     H_    0.735176 0.674653 0.804905 0.363476
S4    S     S_3+6 0.263415 0.493704 0.213332 0.069437
O22   O     O_2   0.247533 0.395105 0.179334 -0.206355
O23   O     O_2   0.169916 0.496423 0.259499 -0.296772
O24   O     O_3   0.258407 0.596682 0.169655 -0.479330
H34   H     H_    0.256339 0.657947 0.195476 0.385438
S5    S     S_3+6 0.594114 0.184280 0.595162 0.058660
O25   O     O_2   0.527259 0.270843 0.619984 -0.267213
O26   O     O_2   0.600186 0.104208 0.641406 -0.251756
O27   O     O_3   0.723459 0.233713 0.574558 -0.506800
H35   H     H_    0.759342 0.176993 0.552732 0.326164
S6    S     S_3+6 0.404347 0.817545 0.405532 0.018841
O28   O     O_2   0.464599 0.725915 0.381905 -0.305909
O29   O     O_2   0.285713 0.782606 0.423991 -0.311613
O30   O     O_3   0.406030 0.907213 0.353090 -0.546328
H36   H     H_    0.363879 0.872432 0.322966 0.398815

loop_
_geom_bond_atom_site_label_1
_geom_bond_atom_site_label_2
_ccdc_geom_bond_type
C38   C40   A    
C4    C54   S    
C16   C21   A    
O6    Zn2   S    
C28   H4    S    
C41   C42   A    
C23   O5    A    
O5    Zn1   S    
S2    O18   S    
O18   H14   S    
S6    O28   D    
C51   H21   S    
C24   O6    A    
S5    O25   D    
C39   C41   A    
C38   O12   S    
C3    C53   S    
C40   C46   A    
C53   H28   S    
C52   H24   S    
O27   H35   S    
C17   C26   A    
C5    H5    S    
S2    O17   D    
C2    O4    A    
C54   H31   S    
S5    O26   D    
C27   C29   A    
O21   H33   S    
S4    O22   D    
C17   C19   A    
C15   C22   A    
C35   O9    S    
C13   N2    S    
C1    O1    A    
C31   C33   A    
C9    H7    S    
C49   H16   S    
C10   H8    S    
C43   C48   A    
C3    C13   A    
C44   C47   A    
C39   C45   A    
S3    O21   S    
C40   C42   A    
C37   O11   S    
C29   N4    A    
C27   C34   A    
C30   N3    A    
C41   C43   A    
O3    Zn2   S    
C42   C44   A    
C6    H6    S    
C30   C49   S    
C36   N2    A    
C51   H22   S    
C27   H3    S    
C45   C47   A    
C19   H10   S    
C15   C20   A    
O2    Zn2   S    
C53   H29   S    
C46   C48   A    
O1    Zn1   S    
C23   O7    A    
C22   S5    S    
S2    O16   D    
C35   N1    A    
C54   H32   S    
S1    O14   D    
S5    O27   S    
C6    C8    A    
C3    C5    A    
C25   C26   A    
C14   N1    S    
C49   H17   S    
S4    O24   S    
C32   C34   A    
O8    Zn1   S    
C33   C34   A    
C45   S1    S    
C1    C16   S    
C21   S6    S    
C2    C15   S    
C9    C11   A    
O24   H34   S    
C10   C12   A    
C17   H11   S    
C46   S2    S    
C18   H12   S    
C12   C14   A    
C28   C33   A    
C52   H26   S    
C12   S4    S    
C36   C44   A    
C4    C6    A    
C31   H2    S    
O30   H36   S    
S6    O30   S    
C51   H23   S    
C35   C43   A    
C24   O8    A    
C5    C7    A    
S3    O19   D    
N3    Zn1   S    
O4    Zn1   S    
C7    C9    A    
C21   C25   A    
C36   O10   S    
N4    Zn2   S    
C31   N4    A    
C8    C10   A    
C32   N3    A    
C2    O2    A    
S6    O29   D    
S1    O15   S    
C37   N1    A    
C1    O3    A    
C50   H20   S    
C53   H27   S    
C47   C51   S    
C52   H25   S    
C50   H18   S    
C28   C30   A    
C49   H15   S    
C37   C39   A    
C18   C25   A    
C54   H30   S    
C29   C50   S    
C11   C13   A    
C16   C19   A    
C7    C23   S    
C48   C52   S    
C8    C24   S    
C18   C20   A    
C4    C14   A    
C11   S3    S    
S4    O23   D    
C32   H1    S    
S1    O13   D    
C50   H19   S    
O15   H13   S    
C22   C26   A    
S3    O20   D    
C20   H9    S    
O7    Zn2   S    
C38   N2    A    
