data_mof_unit_4480.cif
_audit_creation_date              2012-12-11T14:33:13-0500
_audit_creation_method            fapswitch 2.2
_symmetry_space_group_name_H-M    P1
_symmetry_Int_Tables_number       1
_space_group_crystal_system       triclinic
_cell_length_a                    6.94694
_cell_length_b                    13.737547
_cell_length_c                    17.946102
_cell_angle_alpha                 112.375881
_cell_angle_beta                  95.525537
_cell_angle_gamma                 90.291964
_cell_volume                      1574.73229796

loop_
_atom_site_label
_atom_site_type_symbol
_atom_type_description
_atom_site_fract_x
_atom_site_fract_y
_atom_site_fract_z
_atom_type_partial_charge
O1    O     O_R   0.484560 0.544530 0.414330 -0.536850
O2    O     O_R   0.197040 0.638810 0.585080 -0.539194
O3    O     O_R   0.026800 0.455470 0.585670 -0.541773
C1    C     C_R   0.374003 0.678936 0.610367 0.684627
O4    O     O_R   0.155000 0.556150 0.414940 -0.543058
O5    O     O_R   0.984450 0.372220 0.414320 -0.535964
C2    C     C_R   0.317644 0.565051 0.386571 0.757791
O6    O     O_R   0.526900 0.627780 0.585680 -0.539255
O7    O     O_3   0.339170 0.439750 0.499990 -0.374234
V1    V     V_3+5 0.064350 0.511180 0.500000 1.370408
O8    O     O_R   0.654880 0.361190 0.414920 -0.542409
C3    C     C_R   0.816895 0.324468 0.386451 0.763452
O9    O     O_R   0.696930 0.443850 0.585060 -0.541495
C4    C     C_R   0.873211 0.433852 0.612481 0.692448
V2    V     V_3+5 0.564340 0.488820 0.500000 1.370961
O10   O     O_3   0.839390 0.560250 0.500010 -0.374912
C5    C     C_R   0.041528 0.860695 0.822564 -0.051925
C6    C     C_R   0.906330 0.397712 0.679887 -0.051990
C7    C     C_R   0.921254 0.821133 0.682791 -0.127460
C8    C     C_R   0.973516 0.787790 0.745689 -0.145418
C9    C     C_R   0.052594 0.968538 0.836707 -0.211626
C10   C     C_R   0.997661 0.005008 0.773569 0.096729
C11   C     C_R   0.933093 0.928347 0.695817 0.120558
C12   C     C_R   0.002769 0.114216 0.784753 0.066677
C13   C     C_R   0.945228 0.144178 0.717680 0.066676
C14   C     C_R   0.884991 0.063959 0.641701 -0.179199
C15   C     C_R   0.878950 0.958652 0.631320 -0.219207
C16   C     C_R   0.063045 0.194433 0.860729 -0.179249
C17   C     C_R   0.069129 0.299737 0.871105 -0.219143
C18   C     C_R   0.014957 0.330043 0.806612 0.120656
C19   C     C_R   0.950314 0.253388 0.728867 0.096732
C20   C     C_R   0.026833 0.437255 0.819636 -0.127450
C21   C     C_R   0.974480 0.470605 0.756749 -0.145511
C22   C     C_R   0.895288 0.289865 0.665738 -0.211709
H1    H     H_    0.829870 0.900037 0.571886 0.118400
H2    H     H_    0.989177 0.553585 0.768003 0.091481
H3    H     H_    0.118257 0.358350 0.930535 0.118459
H4    H     H_    0.869229 0.762818 0.623724 0.138700
H5    H     H_    0.958875 0.704807 0.734432 0.091524
H6    H     H_    0.101012 0.021287 0.897698 0.092706
H7    H     H_    0.839913 0.079700 0.588489 0.123616
H8    H     H_    0.108151 0.178692 0.913937 0.123643
H9    H     H_    0.114052 0.224016 0.308852 0.155247
H10   H     H_    0.834383 0.034430 0.193598 0.155251
C23   C     C_2   0.135783 0.037604 0.184062 -0.353375
C24   C     C_2   0.972768 0.077811 0.217023 -0.130270
H11   H     H_    0.674543 0.177340 0.294483 0.125152
C25   C     C_2   0.812644 0.220855 0.318373 -0.353398
C26   C     C_2   0.975663 0.180642 0.285418 -0.130251
H12   H     H_    0.273875 0.081133 0.207935 0.125149
C27   C     C_R   0.409344 0.785122 0.677260 -0.057776
C28   C     C_R   0.539119 0.473102 0.825438 -0.057630
C29   C     C_R   0.531183 0.886787 0.817120 -0.125294
C30   C     C_R   0.478975 0.790286 0.754349 -0.141786
C31   C     C_R   0.397571 0.880133 0.663467 -0.210552
C32   C     C_R   0.452185 0.980754 0.727192 0.097683
C33   C     C_R   0.517755 0.981343 0.804636 0.117980
C34   C     C_R   0.445721 0.080456 0.717436 0.066008
C35   C     C_R   0.502541 0.177780 0.785285 0.066039
C36   C     C_R   0.563542 0.172042 0.860544 -0.179500
C37   C     C_R   0.571201 0.076113 0.869699 -0.217249
C38   C     C_R   0.384690 0.086196 0.642180 -0.179421
C39   C     C_R   0.377032 0.182123 0.633024 -0.217191
C40   C     C_R   0.430523 0.276891 0.698081 0.118072
C41   C     C_R   0.496109 0.277481 0.775526 0.097686
C42   C     C_R   0.417150 0.371445 0.685589 -0.125466
C43   C     C_R   0.469456 0.467938 0.748351 -0.141761
C44   C     C_R   0.550793 0.378099 0.839244 -0.210634
H13   H     H_    0.620979 0.076126 0.928845 0.118597
H14   H     H_    0.600065 0.385530 0.900025 0.092610
H15   H     H_    0.453620 0.539199 0.736604 0.091434
H16   H     H_    0.327236 0.182111 0.573880 0.118653
H17   H     H_    0.584099 0.887473 0.876066 0.143261
H18   H     H_    0.494867 0.719023 0.766088 0.091378
H19   H     H_    0.348309 0.872704 0.602685 0.092553
H20   H     H_    0.607919 0.240898 0.913989 0.123768
H21   H     H_    0.340285 0.017342 0.588738 0.123769
H22   H     H_    0.364221 0.370764 0.626644 0.143307
H23   H     H_    0.334240 0.667410 0.194525 0.154550
H24   H     H_    0.614929 0.590816 0.308141 0.154403
C45   C     C_2   0.314169 0.602320 0.318880 -0.351016
C46   C     C_2   0.476516 0.610972 0.285376 -0.130037
H25   H     H_    0.773101 0.636063 0.206961 0.125972
C47   C     C_2   0.634975 0.655939 0.183745 -0.350735
C48   C     C_2   0.472681 0.647265 0.217275 -0.129860
H26   H     H_    0.176091 0.622215 0.295639 0.126026
O11   O     O_R   0.421600 0.630430 0.917010 -0.539332
O12   O     O_R   0.793840 0.702190 0.087630 -0.542926
O13   O     O_R   0.964010 0.886170 0.088190 -0.535969
C49   C     C_R   0.631302 0.693225 0.116055 0.758168
O14   O     O_R   0.751460 0.619510 0.917500 -0.539205
O15   O     O_R   0.921330 0.802900 0.916840 -0.541862
C50   C     C_R   0.574509 0.579303 0.892312 0.684624
O16   O     O_R   0.464290 0.713700 0.088350 -0.537161
O17   O     O_3   0.609200 0.818520 0.002630 -0.374324
V3    V     V_3+5 0.884140 0.747190 0.002530 1.370442
O18   O     O_R   0.251150 0.814630 0.917340 -0.541871
C51   C     C_R   0.074799 0.824556 0.889966 0.692124
O19   O     O_R   0.293530 0.897310 0.087470 -0.542502
C52   C     C_R   0.131540 0.933979 0.115996 0.763429
V4    V     V_3+5 0.384070 0.769710 0.002370 1.371085
O20   O     O_3   0.109180 0.698190 0.002460 -0.374780
H27   H     H_    0.078957 0.495564 0.878693 0.138806
H28   H     H_    0.846815 0.237120 0.604753 0.092695

loop_
_geom_bond_atom_site_label_1
_geom_bond_atom_site_label_2
_ccdc_geom_bond_type
C34   C38   A    
C31   C32   A    
O12   V3    S    
C13   C19   A    
V4    O20   S    
V3    O20   S    
C4    C6    S    
C38   H21   S    
O2    C1    A    
O17   V3    S    
C1    O6    A    
C21   H2    S    
C45   C46   D    
O15   C51   A    
C23   C24   D    
C24   C26   S    
C14   C15   A    
C38   C39   A    
C16   C17   A    
O5    C3    A    
C18   C19   A    
V2    O10   S    
O18   C51   A    
O15   V3    S    
C5    C8    A    
C32   C33   A    
O14   V3    S    
C30   H18   S    
O8    V2    S    
H11   C25   S    
O16   V4    S    
O1    V2    S    
C11   C15   A    
O7    V1    S    
C27   C31   A    
C45   H26   S    
C28   C44   A    
C3    C25   S    
C31   H19   S    
C42   C43   A    
C35   C36   A    
O11   V4    S    
O9    C4    A    
C47   C49   S    
H10   C24   S    
C49   O16   A    
C42   H22   S    
C20   H27   S    
C1    C27   S    
C12   C13   A    
H24   C46   S    
O4    C2    A    
C8    H5    S    
C29   C33   A    
H9    C26   S    
O13   C52   A    
C15   H1    S    
C13   C14   A    
C29   C30   A    
C36   H20   S    
C22   H28   S    
C36   C37   A    
C40   C42   A    
C7    C11   A    
C17   C18   A    
C7    H4    S    
O14   C50   A    
H25   C47   S    
C41   C44   A    
C19   C22   A    
C28   C50   S    
C47   C48   D    
C6    C22   A    
O3    C4    A    
C25   C26   D    
O19   V4    S    
O12   C49   A    
O6    V2    S    
O9    V2    S    
C10   C12   A    
O2    V1    S    
H23   C48   S    
C5    C51   S    
C37   H13   S    
C2    C45   S    
O1    C2    A    
C29   H17   S    
C12   C16   A    
C28   C43   A    
C23   C52   S    
O5    V1    S    
O8    C3    A    
C33   C37   A    
C46   C48   S    
O19   C52   A    
C27   C30   A    
C20   C21   A    
C7    C8    A    
C34   C35   A    
O4    V1    S    
O3    V1    S    
V1    O10   S    
C35   C41   A    
C18   C20   A    
C9    H6    S    
C23   H12   S    
O13   V3    S    
O11   C50   A    
C40   C41   A    
C16   H8    S    
C32   C34   A    
C43   H15   S    
O7    V2    S    
C6    C21   A    
C5    C9    A    
C39   C40   A    
C39   H16   S    
C44   H14   S    
C17   H3    S    
C10   C11   A    
C9    C10   A    
O18   V4    S    
O17   V4    S    
C14   H7    S    
