data_mof_unit_1927.cif
_audit_creation_date              2012-12-10T17:02:01-0500
_audit_creation_method            fapswitch 2.2
_symmetry_space_group_name_H-M    P1
_symmetry_Int_Tables_number       1
_space_group_crystal_system       triclinic
_cell_length_a                    10.859968
_cell_length_b                    10.99067
_cell_length_c                    9.789182
_cell_angle_alpha                 110.341688
_cell_angle_beta                  98.208854
_cell_angle_gamma                 91.352035
_cell_volume                      1080.9474224

loop_
_atom_site_label
_atom_site_type_symbol
_atom_type_description
_atom_site_fract_x
_atom_site_fract_y
_atom_site_fract_z
_atom_type_partial_charge
C1    C     C_R   0.484751 0.254184 0.441890 0.851888
C2    C     C_R   0.084001 0.607546 0.627105 0.094581
C3    C     C_R   0.131071 0.518564 0.507047 -0.132322
C4    C     C_R   0.050923 0.436849 0.383643 -0.230463
C5    C     C_R   0.922880 0.434394 0.376913 0.133664
C6    C     C_R   0.872549 0.516770 0.499590 -0.138190
C7    C     C_2   0.474141 0.114666 0.411710 -0.400925
C8    C     C_2   0.431302 0.062098 0.503064 0.195630
C9    C     C_2   0.491715 0.884102 0.588568 -0.365959
C10   C     C_2   0.454573 0.925773 0.477226 -0.155197
C11   C     C_2   0.506958 0.514367 0.081948 -0.079527
C12   C     C_R   0.263442 0.507673 0.503159 0.797536
C13   C     C_2   0.487225 0.491739 0.919456 -0.071805
C14   C     C_R   0.505463 0.746044 0.558377 0.842308
C15   C     C_R   0.737973 0.505402 0.499785 0.793845
C16   C     C_R   0.163482 0.698922 0.748786 -0.223801
C17   C     C_R   0.116476 0.777098 0.871973 -0.159766
C18   C     C_R   0.988254 0.775356 0.872190 0.221205
C19   C     C_R   0.907578 0.698073 0.745010 -0.209775
C20   C     C_R   0.953256 0.607044 0.623900 0.035506
Cu1   Cu    Cu3+1 0.521920 0.521810 0.644910 0.919276
Cu2   Cu    Cu3+1 0.478080 0.478190 0.355090 0.931545
H1    H     H_    0.089130 0.371166 0.291269 0.161030
H2    H     H_    0.512184 0.053352 0.316243 0.124749
H3    H     H_    0.413549 0.420682 0.847246 0.155251
H4    H     H_    0.575376 0.591010 0.155505 0.152871
H5    H     H_    0.624914 0.620836 0.933566 0.183952
H6    H     H_    0.381053 0.372885 0.064959 0.190752
H7    H     H_    0.262693 0.711777 0.752150 0.173372
H8    H     H_    0.180567 0.839458 0.967377 0.141042
H9    H     H_    0.809676 0.711947 0.744042 0.159385
H10   H     H_    0.445152 0.859713 0.363238 0.161822
H11   H     H_    0.505618 0.950590 0.702427 0.156392
N1    N     N_2   0.445130 0.445430 0.137370 -0.282267
N2    N     N_2   0.554930 0.554500 0.862630 -0.288492
O1    O     O_R   0.511700 0.332330 0.577400 -0.571539
O2    O     O_R   0.474680 0.295500 0.332650 -0.573146
O3    O     O_R   0.338160 0.518420 0.622400 -0.594485
O4    O     O_R   0.301140 0.481590 0.377650 -0.573218
O5    O     O_R   0.525320 0.704500 0.667350 -0.589719
O6    O     O_R   0.488300 0.667670 0.422600 -0.575612
O7    O     O_R   0.698860 0.518410 0.622350 -0.579366
O8    O     O_R   0.661840 0.481580 0.377600 -0.569645
C21   C     C_3   0.937691 0.850444 0.010454 -0.416340
C22   C     C_3   0.960841 0.996814 0.051636 -0.861830
H12   H     H_    0.062191 0.026209 0.070828 0.249610
H13   H     H_    0.912174 0.028193 0.963113 0.258289
H14   H     H_    0.923848 0.045522 0.155477 0.235108
H15   H     H_    0.835624 0.826308 0.997146 0.192224
H16   H     H_    0.982968 0.821845 0.102817 0.203147
C23   C     C_3   0.845766 0.339431 0.236818 -0.381578
C24   C     C_3   0.813647 0.403523 0.121913 -0.762433
H17   H     H_    0.745998 0.337759 0.027445 0.236247
H18   H     H_    0.772615 0.497369 0.169947 0.252212
H19   H     H_    0.899366 0.422747 0.080397 0.235006
H20   H     H_    0.899889 0.255708 0.187296 0.184096
H21   H     H_    0.761305 0.295210 0.258482 0.212643
C25   C     C_3   0.359367 0.135313 0.626106 -0.343777
C26   C     C_3   0.237335 0.058952 0.618205 -0.848469
H22   H     H_    0.179280 0.034686 0.507746 0.254721
H23   H     H_    0.255595 0.967828 0.639878 0.260560
H24   H     H_    0.184165 0.119025 0.703094 0.235999
H25   H     H_    0.418270 0.155079 0.735161 0.187538
H26   H     H_    0.332428 0.229762 0.618856 0.204646

loop_
_geom_bond_atom_site_label_1
_geom_bond_atom_site_label_2
_ccdc_geom_bond_type
C21   H15   S    
C22   H12   S    
C9    C14   S    
C13   N2    D    
C23   H21   S    
C18   C21   S    
C2    C20   A    
C6    C20   A    
C9    C10   D    
C15   O7    A    
Cu2   O8    S    
C24   H19   S    
C1    O2    A    
C19   H9    S    
C12   O4    A    
C17   C18   A    
C25   C26   S    
C15   O8    A    
C26   H22   S    
Cu1   O1    S    
Cu1   Cu2   S    
C21   C22   S    
C9    H11   S    
C17   H8    S    
C11   C13   S    
C13   H3    S    
C16   C17   A    
Cu1   O5    S    
H5    N2    S    
C14   O6    A    
Cu1   N2    S    
Cu2   O4    S    
C24   H18   S    
C2    C3    A    
C22   H13   S    
C12   O3    A    
C5    C6    A    
Cu2   N1    S    
C7    H2    S    
C26   H23   S    
Cu2   O6    S    
Cu1   O3    S    
H6    N1    S    
C23   C24   S    
C10   H10   S    
C7    C8    D    
C2    C16   A    
C24   H17   S    
C16   H7    S    
C8    C10   S    
C18   C19   A    
C22   H14   S    
C21   H16   S    
C25   H25   S    
C3    C12   S    
C4    H1    S    
C5    C23   S    
C26   H24   S    
Cu1   O7    S    
C11   H4    S    
C8    C25   S    
C6    C15   S    
C1    C7    S    
Cu2   O2    S    
C14   O5    A    
C11   N1    D    
C3    C4    A    
C19   C20   A    
C1    O1    A    
C4    C5    A    
C25   H26   S    
C23   H20   S    
