data_mof_unit_1956.cif
_audit_creation_date              2012-12-11T14:01:18-0500
_audit_creation_method            fapswitch 2.2
_symmetry_space_group_name_H-M    P1
_symmetry_Int_Tables_number       1
_space_group_crystal_system       triclinic
_cell_length_a                    18.903616
_cell_length_b                    10.940507
_cell_length_c                    18.704949
_cell_angle_alpha                 89.999411
_cell_angle_beta                  90.432803
_cell_angle_gamma                 89.999839
_cell_volume                      3868.35633755

loop_
_atom_site_label
_atom_site_type_symbol
_atom_type_description
_atom_site_fract_x
_atom_site_fract_y
_atom_site_fract_z
_atom_type_partial_charge
C1    C     C_R   0.293405 0.989488 0.859083 0.611403
C2    C     C_R   0.706597 0.989490 0.140918 0.612478
C3    C     C_R   0.793404 0.489491 0.859083 0.612432
C4    C     C_R   0.206596 0.489487 0.140918 0.611448
C5    C     C_R   0.485768 0.056245 0.072971 -0.008572
C6    C     C_R   0.514219 0.056320 0.926965 -0.008408
C7    C     C_R   0.985854 0.556393 0.073039 -0.008341
C8    C     C_R   0.014306 0.556172 0.927033 -0.008637
C9    C     C_R   0.992047 0.666630 0.036197 -0.069113
C10   C     C_R   0.008385 0.666511 0.963818 -0.069301
C11   C     C_R   0.491777 0.166551 0.036166 -0.069266
C12   C     C_R   0.508114 0.166591 0.963787 -0.069153
C13   C     C_2   0.243313 0.578084 0.918386 -0.075352
C14   C     C_2   0.756658 0.578175 0.081581 -0.077269
C15   C     C_2   0.743313 0.078081 0.918382 -0.077377
C16   C     C_2   0.256659 0.078176 0.081577 -0.075249
C17   C     C_2   0.211769 0.490325 0.063284 0.345542
C18   C     C_2   0.788238 0.490346 0.936718 0.345116
C19   C     C_2   0.711773 0.990340 0.063285 0.345139
C20   C     C_2   0.288241 0.990330 0.936719 0.345520
C21   C     C_2   0.273833 0.472043 0.029459 -0.114774
C22   C     C_2   0.726195 0.471944 0.970560 -0.114918
C23   C     C_2   0.773836 0.972055 0.029460 -0.114908
C24   C     C_2   0.226197 0.971935 0.970560 -0.114782
C25   C     C_2   0.284876 0.498483 0.952885 -0.131359
C26   C     C_2   0.715163 0.498404 0.047134 -0.132267
C27   C     C_2   0.784880 0.998493 0.952886 -0.132290
C28   C     C_2   0.215166 0.998397 0.047134 -0.131333
C29   C     C_2   0.518091 0.836185 0.587746 -0.106966
C30   C     C_2   0.547628 0.830376 0.434683 -0.109832
C31   C     C_2   0.952370 0.330377 0.565317 -0.109841
C32   C     C_2   0.981908 0.336183 0.412254 -0.106962
C33   C     C_2   0.562695 0.737747 0.478749 -0.115121
C34   C     C_2   0.539557 0.735840 0.552956 -0.071197
C35   C     C_2   0.960446 0.235838 0.447046 -0.071193
C36   C     C_2   0.937305 0.237748 0.521252 -0.115121
C37   C     C_2   0.269724 0.659186 0.563699 -0.061867
C38   C     C_2   0.732129 0.656497 0.435938 -0.091236
C39   C     C_2   0.767872 0.156499 0.564062 -0.091235
C40   C     C_2   0.230278 0.159182 0.436301 -0.061863
C41   C     C_2   0.260941 0.616740 0.409375 0.356264
C42   C     C_2   0.739290 0.614643 0.590088 0.347539
C43   C     C_2   0.760710 0.114642 0.409912 0.347536
C44   C     C_2   0.239059 0.116742 0.590625 0.356269
C45   C     C_R   0.472334 0.822257 0.852851 0.538235
C46   C     C_R   0.527706 0.822249 0.147117 0.551535
C47   C     C_R   0.972274 0.322240 0.852899 0.551470
C48   C     C_R   0.027647 0.322266 0.147165 0.538294
C49   C     C_2   0.223162 0.700967 0.444552 -0.114188
C50   C     C_2   0.775943 0.701142 0.555713 -0.113814
C51   C     C_2   0.724057 0.201141 0.444286 -0.113814
C52   C     C_2   0.276837 0.200969 0.555447 -0.114188
C53   C     C_2   0.240889 0.738507 0.517492 -0.133174
C54   C     C_2   0.758367 0.737650 0.482628 -0.141160
C55   C     C_2   0.741632 0.237651 0.517371 -0.141161
C56   C     C_2   0.259110 0.238507 0.482507 -0.133168
C57   C     C_R   0.260124 0.634766 0.850647 0.536376
C58   C     C_R   0.739874 0.634773 0.149350 0.537121
C59   C     C_R   0.760123 0.134761 0.850643 0.537092
C60   C     C_R   0.239873 0.134777 0.149346 0.536405
C61   C     C_R   0.270470 0.049849 0.649978 0.570581
C62   C     C_R   0.729463 0.049540 0.350070 0.564207
C63   C     C_R   0.770537 0.549541 0.649930 0.564211
C64   C     C_R   0.229530 0.549848 0.350022 0.570578
C65   C     C_R   0.473049 0.824076 0.649754 0.550851
C66   C     C_R   0.563442 0.819750 0.359629 0.550817
C67   C     C_R   0.936558 0.319750 0.640371 0.550821
C68   C     C_R   0.026952 0.324076 0.350246 0.550836
C69   C     C_R   0.275196 0.690579 0.638291 0.554784
C70   C     C_R   0.725229 0.689559 0.361850 0.526390
C71   C     C_R   0.774771 0.189561 0.638150 0.526389
C72   C     C_R   0.224805 0.190577 0.361709 0.554784
C73   C     C_R   0.499170 0.830470 0.074591 0.013711
C74   C     C_R   0.501025 0.830522 0.925309 0.015071
C75   C     C_R   0.998874 0.330566 0.074740 0.015019
C76   C     C_R   0.000728 0.330427 0.925458 0.013755
C77   C     C_R   0.495994 0.943489 0.037520 0.114447
C78   C     C_R   0.504096 0.943522 0.962402 0.115823
C79   C     C_R   0.995887 0.443552 0.037624 0.115841
C80   C     C_R   0.003989 0.443459 0.962506 0.114430
C81   C     C_R   0.501932 0.720641 0.963495 -0.144341
C82   C     C_R   0.498495 0.720608 0.036369 -0.144780
C83   C     C_R   0.001250 0.220583 0.963709 -0.144751
C84   C     C_R   0.997813 0.220669 0.036584 -0.144369
Cr1   Cr    Cr6+3 0.230530 0.836340 0.748870 1.046675
Cr2   Cr    Cr6+3 0.769470 0.836340 0.251130 1.031613
Cr3   Cr    Cr6+3 0.730530 0.336340 0.748870 1.031606
Cr4   Cr    Cr6+3 0.269470 0.336340 0.251130 1.046681
Cr5   Cr    Cr6+3 0.387420 0.989430 0.750820 1.024546
Cr6   Cr    Cr6+3 0.612580 0.989430 0.249180 1.024798
Cr7   Cr    Cr6+3 0.887420 0.489430 0.750820 1.024841
Cr8   Cr    Cr6+3 0.112580 0.489430 0.249180 1.024506
Cr9   Cr    Cr6+3 0.385640 0.677860 0.749230 1.032774
Cr10  Cr    Cr6+3 0.614360 0.677860 0.250770 1.031449
Cr11  Cr    Cr6+3 0.885640 0.177860 0.749230 1.031443
Cr12  Cr    Cr6+3 0.114360 0.177860 0.250770 1.032783
H1    H     H_    0.173115 0.733918 0.423104 0.118513
H2    H     H_    0.824715 0.737539 0.578234 0.118989
H3    H     H_    0.675285 0.237539 0.421764 0.118986
H4    H     H_    0.326884 0.233920 0.576895 0.118515
H5    H     H_    0.221301 0.826234 0.536153 0.159546
H6    H     H_    0.775259 0.827398 0.464562 0.162783
H7    H     H_    0.724739 0.327399 0.535435 0.162780
H8    H     H_    0.278693 0.326236 0.463845 0.159545
H9    H     H_    0.985121 0.752405 0.064130 0.093981
H10   H     H_    0.015529 0.752191 0.935841 0.094912
H11   H     H_    0.484703 0.252263 0.064127 0.094891
H12   H     H_    0.515111 0.252335 0.935838 0.094001
H13   H     H_    0.320879 0.447387 0.059860 0.103397
H14   H     H_    0.679162 0.447149 0.940176 0.102861
H15   H     H_    0.820881 0.947391 0.059861 0.102841
H16   H     H_    0.179163 0.947152 0.940176 0.103414
H17   H     H_    0.198289 0.619235 0.944260 0.192936
H18   H     H_    0.801598 0.619499 0.055649 0.193114
H19   H     H_    0.698286 0.119230 0.944251 0.193155
H20   H     H_    0.301599 0.119496 0.055643 0.192895
H21   H     H_    0.585597 0.654194 0.457755 0.182897
H22   H     H_    0.533296 0.645815 0.576600 0.205076
H23   H     H_    0.966713 0.145812 0.423406 0.205068
H24   H     H_    0.914403 0.154195 0.542247 0.182896
O1    O     O_R   0.215090 0.709860 0.828130 -0.530406
O2    O     O_R   0.784910 0.709860 0.171870 -0.529887
O3    O     O_R   0.715090 0.209860 0.828130 -0.529934
O4    O     O_R   0.284910 0.209860 0.171870 -0.530359
O5    O     O_R   0.445660 0.919250 0.676780 -0.499527
O6    O     O_R   0.554340 0.919250 0.323220 -0.490934
O7    O     O_R   0.945660 0.419250 0.676780 -0.490919
O8    O     O_R   0.054340 0.419250 0.323220 -0.499535
O9    O     O_R   0.456260 0.718170 0.670000 -0.511382
O10   O     O_R   0.543740 0.718170 0.330000 -0.480279
O11   O     O_R   0.956260 0.218170 0.670000 -0.480257
O12   O     O_R   0.043740 0.218170 0.330000 -0.511397
O13   O     O_R   0.320940 0.626760 0.674370 -0.489565
O14   O     O_R   0.679060 0.626760 0.325630 -0.510225
O15   O     O_R   0.820940 0.126760 0.674370 -0.510219
O16   O     O_R   0.179060 0.126760 0.325630 -0.489572
O17   O     O_3   0.334530 0.834540 0.749640 -0.301621
O18   O     O_3   0.665470 0.834540 0.250360 -0.321702
O19   O     O_3   0.834530 0.334540 0.749640 -0.321719
O20   O     O_3   0.165470 0.334540 0.250360 -0.301604
O21   O     O_R   0.236990 0.958390 0.823710 -0.539938
O22   O     O_R   0.763010 0.958390 0.176290 -0.540333
O23   O     O_R   0.736990 0.458390 0.823710 -0.540305
O24   O     O_R   0.263010 0.458390 0.176290 -0.539967
O25   O     O_R   0.332380 0.074750 0.830850 -0.483056
O26   O     O_R   0.667620 0.074750 0.169150 -0.483093
O27   O     O_R   0.832380 0.574750 0.830850 -0.482988
O28   O     O_R   0.167620 0.574750 0.169150 -0.483160
O29   O     O_R   0.445800 0.917770 0.825070 -0.514458
O30   O     O_R   0.554200 0.917770 0.174930 -0.508942
O31   O     O_R   0.945800 0.417770 0.825070 -0.508934
O32   O     O_R   0.054200 0.417770 0.174930 -0.514465
O33   O     O_R   0.456410 0.716580 0.829970 -0.519556
O34   O     O_R   0.543590 0.716580 0.170030 -0.513326
O35   O     O_R   0.956410 0.216580 0.829970 -0.513355
O36   O     O_R   0.043590 0.216580 0.170030 -0.519521
O37   O     O_R   0.321080 0.625290 0.822650 -0.488596
O38   O     O_R   0.678920 0.625290 0.177350 -0.487376
O39   O     O_R   0.821080 0.125290 0.822650 -0.487393
O40   O     O_R   0.178920 0.125290 0.177350 -0.488580
O41   O     O_R   0.214930 0.711450 0.668160 -0.492355
O42   O     O_R   0.785070 0.711450 0.331840 -0.485501
O43   O     O_R   0.714930 0.211450 0.668160 -0.485497
O44   O     O_R   0.285070 0.211450 0.331840 -0.492359
O45   O     O_R   0.236850 0.959870 0.675420 -0.470667
O46   O     O_R   0.763150 0.959870 0.324580 -0.472450
O47   O     O_R   0.736850 0.459870 0.675420 -0.472445
O48   O     O_R   0.263150 0.459870 0.324580 -0.470672
O49   O     O_R   0.332230 0.076350 0.670880 -0.551182
O50   O     O_R   0.667770 0.076350 0.329120 -0.559401
O51   O     O_R   0.832230 0.576350 0.670880 -0.559401
O52   O     O_R   0.167770 0.576350 0.329120 -0.551183
H25   H     H_    0.500954 0.632526 0.937012 0.140189
H26   H     H_    0.499611 0.632468 0.062820 0.140649
H27   H     H_    0.000033 0.132426 0.937284 0.140671
H28   H     H_    0.998693 0.132572 0.063093 0.140159
F1    F     F_    0.327651 0.586080 0.430824 -0.643446
F2    F     F_    0.674134 0.578645 0.566931 -0.684720
F3    F     F_    0.825866 0.078643 0.433069 -0.684717
F4    F     F_    0.172348 0.086082 0.569176 -0.643441
H29   H     H_    0.286146 0.568140 0.547827 0.173227
H30   H     H_    0.718556 0.563700 0.451098 0.170460
H31   H     H_    0.781445 0.063702 0.548903 0.170464
H32   H     H_    0.213860 0.068133 0.452173 0.173215
H33   H     H_    0.471652 0.060143 0.128842 0.118461
H34   H     H_    0.528326 0.060273 0.871092 0.114840
H35   H     H_    0.971751 0.560407 0.128912 0.114841
H36   H     H_    0.028424 0.560008 0.871162 0.118463
H37   H     H_    0.333129 0.465969 0.928095 0.136546
H38   H     H_    0.666977 0.465711 0.071975 0.136684
H39   H     H_    0.833135 0.965985 0.928098 0.136679
H40   H     H_    0.166980 0.965703 0.071975 0.136551
F5    F     F_    0.149971 0.503237 0.026743 -0.686325
F6    F     F_    0.850028 0.503447 0.973249 -0.687104
F7    F     F_    0.649977 0.003277 0.026747 -0.687174
F8    F     F_    0.350033 0.003402 0.973252 -0.686257
H41   H     H_    0.522888 0.914092 0.452794 0.114960
H42   H     H_    0.527379 0.927429 0.567254 0.101203
H43   H     H_    0.972615 0.427427 0.432742 0.101205
H44   H     H_    0.977109 0.414093 0.547204 0.114961

loop_
_geom_bond_atom_site_label_1
_geom_bond_atom_site_label_2
_ccdc_geom_bond_type
C46   O30   A    
C16   C28   D    
Cr3   O43   S    
C38   C70   S    
C33   H21   S    
C83   H27   S    
Cr8   O28   S    
Cr1   O41   S    
C61   O49   A    
C17   F5    S    
C35   C36   S    
Cr2   O46   S    
C5    H33   S    
Cr4   O4    S    
C44   F4    S    
Cr7   O27   S    
C81   C82   A    
C26   H38   S    
Cr12  O16   S    
Cr5   O5    S    
C77   C78   A    
C8    H36   S    
C19   F7    S    
C43   F3    S    
Cr10  O10   S    
C71   O43   A    
Cr11  O39   S    
C41   F1    S    
C61   O45   A    
C69   O41   A    
C47   C76   S    
C5    C11   A    
C32   H43   S    
C37   C69   S    
Cr9   O17   S    
C71   O15   A    
C70   O14   A    
C49   C53   S    
C75   C84   A    
C72   O16   A    
C13   C57   S    
C6    H34   S    
C9    H9    S    
C4    O28   A    
C16   H20   S    
C3    C18   S    
C68   O12   A    
C16   C60   S    
C60   O4    A    
C73   C77   A    
Cr4   O20   S    
C21   C25   S    
Cr9   O13   S    
C59   O39   A    
C39   C55   D    
C82   H26   S    
C53   H5    S    
C22   H14   S    
C24   H16   S    
Cr2   O2    S    
Cr1   O1    S    
Cr2   O42   S    
C23   C27   S    
C66   O10   A    
C9    C10   A    
C68   O8    A    
C51   C55   S    
Cr6   O30   S    
Cr12  O12   S    
C62   O50   A    
C37   C53   D    
C44   C52   D    
Cr5   O29   S    
C48   O36   A    
Cr10  O38   S    
C40   C56   D    
Cr11  O11   S    
C48   C75   S    
C13   C25   D    
C27   H39   S    
Cr9   O9    S    
C70   O42   A    
C76   C83   A    
C41   C49   D    
C31   H44   S    
Cr6   O18   S    
C59   O3    A    
C15   C27   D    
C14   C58   S    
Cr3   O47   S    
C50   H2    S    
C58   O2    A    
C32   C35   D    
C20   C24   D    
C3    O23   A    
C18   F6    S    
C56   H8    S    
C45   O29   A    
C58   O38   A    
Cr1   O21   S    
C12   H12   S    
Cr2   O18   S    
Cr4   O48   S    
Cr4   O44   S    
C49   H1    S    
C34   H22   S    
C52   H4    S    
C17   C21   D    
C66   O6    A    
C74   C78   A    
C45   C74   S    
C81   H25   S    
C64   O52   A    
C19   C23   D    
Cr12  O20   S    
C67   O7    A    
C51   H3    S    
Cr5   O25   S    
C63   O51   A    
C83   C84   A    
C38   C54   D    
Cr7   O31   S    
Cr10  O34   S    
C37   H29   S    
Cr6   O50   S    
Cr11  O15   S    
C33   C34   S    
Cr6   O6    S    
C50   C54   S    
C14   C26   D    
C55   H7    S    
Cr9   O37   S    
C30   C66   S    
Cr7   O7    S    
C42   C50   D    
Cr7   O19   S    
C4    C17   S    
C46   O34   A    
C62   O46   A    
C47   O31   A    
Cr5   O17   S    
C48   O32   A    
C11   H11   S    
C2    O22   A    
C15   H19   S    
C10   H10   S    
C76   C80   A    
C1    O25   A    
C74   C81   A    
C5    C77   A    
Cr8   O20   S    
C6    C12   A    
Cr1   O17   S    
C73   C82   A    
Cr6   O26   S    
Cr2   O22   S    
C7    C79   A    
C7    H35   S    
C7    C9    A    
C57   O37   A    
Cr8   O8    S    
C1    C20   S    
C69   O13   A    
C40   C72   S    
C30   C33   D    
Cr12  O40   S    
C2    C19   S    
C18   C22   D    
C15   C59   S    
C54   H6    S    
C67   O11   A    
C24   C28   S    
Cr3   O19   S    
Cr3   O23   S    
C4    O24   A    
C65   O9    A    
C11   C12   A    
C29   C65   S    
C72   O44   A    
C44   C61   S    
C2    O26   A    
C23   H15   S    
C6    C78   A    
Cr11  O19   S    
C38   H30   S    
Cr7   O51   S    
Cr1   O45   S    
Cr9   O33   S    
Cr5   O49   S    
C64   O48   A    
C14   H18   S    
C3    O27   A    
C32   C68   S    
Cr3   O3    S    
C43   C51   D    
C35   H23   S    
Cr12  O36   S    
C47   O35   A    
C42   F2    S    
Cr10  O18   S    
C29   C34   D    
C63   O47   A    
Cr10  O14   S    
Cr4   O24   S    
Cr11  O35   S    
C36   H24   S    
C13   H17   S    
C1    O21   A    
C31   C67   S    
C57   O1    A    
C79   C80   A    
Cr8   O32   S    
C30   H41   S    
C45   O33   A    
Cr8   O52   S    
C8    C10   A    
C29   H42   S    
C22   C26   S    
C8    C80   A    
C39   C71   S    
C31   C36   D    
C28   H40   S    
C25   H37   S    
C41   C64   S    
C60   O40   A    
C84   H28   S    
C75   C79   A    
C42   C63   S    
C20   F8    S    
C46   C73   S    
C39   H31   S    
C52   C56   S    
C43   C62   S    
C65   O5    A    
C21   H13   S    
C40   H32   S    
