data_mof_unit_1763.cif
_audit_creation_date              2012-12-10T17:16:36-0500
_audit_creation_method            fapswitch 2.2
_symmetry_space_group_name_H-M    P1
_symmetry_Int_Tables_number       1
_space_group_crystal_system       triclinic
_cell_length_a                    11.170244
_cell_length_b                    12.282033
_cell_length_c                    12.440948
_cell_angle_alpha                 91.098506
_cell_angle_beta                  91.010057
_cell_angle_gamma                 79.771869
_cell_volume                      1679.20681617

loop_
_atom_site_label
_atom_site_type_symbol
_atom_type_description
_atom_site_fract_x
_atom_site_fract_y
_atom_site_fract_z
_atom_type_partial_charge
C1    C     C_R   0.447112 0.507715 0.272942 0.904814
C2    C     C_R   0.552895 0.492279 0.727056 0.894262
C3    C     C_2   0.416843 0.512561 0.144281 -0.372182
C4    C     C_2   0.583163 0.487401 0.855716 -0.366961
C5    C     C_2   0.514718 0.497611 0.066594 0.171814
C6    C     C_2   0.485283 0.502302 0.933404 0.173200
C7    C     C_2   0.073288 0.497452 0.487257 0.150048
C8    C     C_2   0.924208 0.514470 0.504415 0.161848
C9    C     C_R   0.500487 0.263349 0.497512 0.862282
C10   C     C_R   0.499287 0.736708 0.500298 0.827295
C11   C     C_R   0.730675 0.094636 0.453499 -0.344336
C12   C     C_R   0.269292 0.912254 0.548444 -0.366847
C13   C     C_R   0.851342 0.007504 0.435786 0.242348
C14   C     C_R   0.158804 0.999275 0.565227 0.236473
C15   C     C_R   0.859239 0.877322 0.437522 0.445292
C16   C     C_R   0.148094 0.120885 0.560581 0.388955
C17   C     C_R   0.738664 0.836611 0.458818 0.002009
C18   C     C_R   0.261713 0.161197 0.535455 -0.020774
C19   C     C_R   0.617471 0.917489 0.479439 -0.057639
C20   C     C_R   0.381532 0.081962 0.517858 0.005594
C21   C     C_R   0.616295 0.047258 0.477396 0.007011
C22   C     C_R   0.382177 0.953906 0.519456 0.039042
C23   C     C_R   0.499753 0.870921 0.500007 -0.111333
C24   C     C_R   0.500038 0.129009 0.499354 -0.108680
H1    H     H_    0.743083 0.179828 0.494790 0.194517
H2    H     H_    0.258530 0.821251 0.556217 0.219756
H3    H     H_    0.685492 0.470895 0.885733 0.134614
H4    H     H_    0.314522 0.529031 0.114257 0.134842
H5    H     H_    0.889763 0.389223 0.386713 0.156154
H6    H     H_    0.121938 0.611710 0.611178 0.163610
N1    N     N_2   0.157300 0.551390 0.551120 -0.292302
N2    N     N_2   0.842700 0.448610 0.448880 -0.281234
O1    O     O_R   0.568940 0.489660 0.307530 -0.637208
O2    O     O_R   0.431060 0.510340 0.692470 -0.657162
O3    O     O_R   0.348880 0.522640 0.340350 -0.646644
O4    O     O_R   0.651120 0.477360 0.659650 -0.666854
O5    O     O_R   0.610030 0.300280 0.483580 -0.651890
O6    O     O_R   0.389970 0.699720 0.516420 -0.651249
O7    O     O_R   0.389970 0.333270 0.516400 -0.723423
O8    O     O_R   0.610030 0.666730 0.483600 -0.705867
Zn1   Zn    Zn3+2 0.646940 0.477980 0.478080 0.917727
Zn2   Zn    Zn3+2 0.353060 0.522020 0.521920 0.904793
O9    O     O_3   0.033126 0.208086 0.590298 -0.727902
C25   C     C_3   0.036201 0.312577 0.630132 0.072651
H7    H     H_    0.950568 0.366455 0.609728 0.182641
H8    H     H_    0.109878 0.354002 0.606606 0.128649
C26   C     C_3   0.047169 0.306245 0.764137 -0.280067
H9    H     H_    0.969145 0.268293 0.802086 0.190648
H10   H     H_    0.137591 0.246477 0.788817 0.179323
C27   C     C_3   0.044419 0.430069 0.819864 -0.826110
H11   H     H_    0.124796 0.471202 0.792455 0.223749
H12   H     H_    0.051628 0.422711 0.916064 0.224866
H13   H     H_    0.953656 0.490196 0.798407 0.244217
O10   O     O_3   0.975644 0.799933 0.422914 -0.621071
C28   C     C_3   0.088875 0.846028 0.406056 0.166950
H14   H     H_    0.163741 0.768342 0.426987 0.158116
H15   H     H_    0.091204 0.915519 0.462228 0.281627
C29   C     C_3   0.102273 0.890701 0.281112 -0.297343
H16   H     H_    0.097268 0.817365 0.223827 0.186201
H17   H     H_    0.015934 0.958299 0.261678 0.215129
C30   C     C_3   0.233858 0.935923 0.263664 -0.789500
H18   H     H_    0.240072 0.012734 0.316327 0.254264
H19   H     H_    0.240011 0.961392 0.172230 0.221060
H20   H     H_    0.316595 0.865487 0.283072 0.242289
O11   O     O_3   0.979824 0.053246 0.417708 -0.646433
C31   C     C_3   0.962411 0.172903 0.370950 0.080208
H21   H     H_    0.046526 0.207267 0.400749 0.181787
H22   H     H_    0.880656 0.236326 0.408537 0.108400
C32   C     C_3   0.954142 0.170176 0.235738 -0.289211
H23   H     H_    0.037984 0.108407 0.200265 0.195715
H24   H     H_    0.863547 0.138723 0.211349 0.195220
C33   C     C_3   0.952517 0.292534 0.178131 -0.877072
H25   H     H_    0.873323 0.359180 0.204211 0.229177
H26   H     H_    0.947855 0.288560 0.083627 0.231849
H27   H     H_    0.027092 0.328543 0.197214 0.239769
O12   O     O_3   0.013161 0.960512 0.580419 -0.604023
C34   C     C_3   0.928603 0.099930 0.602904 0.367913
H28   H     H_    0.788415 0.975692 0.573327 0.110825
H29   H     H_    0.899192 0.124471 0.538470 0.189708
C35   C     C_3   0.897689 0.073478 0.718148 -0.288962
H30   H     H_    0.909262 0.994299 0.774766 0.188657
H31   H     H_    0.975776 0.114627 0.742131 0.189595
C36   C     C_3   0.765359 0.156039 0.736226 -0.867534
H32   H     H_    0.754505 0.236466 0.682948 0.255175
H33   H     H_    0.758483 0.183397 0.827374 0.239879
H34   H     H_    0.683620 0.111746 0.717376 0.244488
N3    N     N_3   0.745892 0.724394 0.428689 -0.148985
H35   H     H_    0.751208 0.660422 0.264930 0.124128
H36   H     H_    0.719053 0.647046 0.543026 0.263758
N4    N     N_3   0.253938 0.272925 0.502335 -0.393988
H37   H     H_    0.217794 0.328954 0.486954 0.266133
H38   H     H_    0.305822 0.341848 0.601916 0.245583
N5    N     N_3   0.352401 0.520728 0.889725 -0.454240
H39   H     H_    0.274994 0.535065 0.941220 0.158069
H40   H     H_    0.314797 0.526192 0.808850 0.237718
N6    N     N_3   0.647606 0.478586 0.110271 -0.457604
H41   H     H_    0.725011 0.464735 0.058766 0.157383
H42   H     H_    0.685248 0.472953 0.191150 0.238737
N7    N     N_3   0.881186 0.589043 0.601713 -0.503968
H43   H     H_    0.929262 0.645128 0.642576 0.188370
H44   H     H_    0.796845 0.582787 0.624511 0.190562
N8    N     N_3   0.112012 0.417465 0.388409 -0.444623
H45   H     H_    0.112768 0.338051 0.304580 0.113620
H46   H     H_    0.206510 0.422739 0.357247 0.238118

loop_
_geom_bond_atom_site_label_1
_geom_bond_atom_site_label_2
_ccdc_geom_bond_type
C31   H22   S    
N3    H35   S    
N5    H39   S    
N1    Zn2   S    
C30   H20   S    
C2    C4    S    
O2    Zn2   S    
C28   H14   S    
C4    H3    S    
C1    O1    A    
C7    C8    S    
C26   H10   S    
C13   O11   S    
C34   H28   S    
C3    H4    S    
C19   C21   A    
C8    N7    S    
O6    Zn2   S    
H5    N2    S    
C32   H23   S    
C33   H27   S    
H6    N1    S    
C31   C32   S    
C11   H1    S    
C29   H17   S    
C12   C22   A    
C9    O7    A    
C10   O8    A    
C32   H24   S    
O3    Zn2   S    
C36   H32   S    
C7    N8    S    
N6    H42   S    
C26   H9    S    
C27   H12   S    
N2    Zn1   S    
O7    Zn2   S    
C25   C26   S    
C2    O2    A    
C29   C30   S    
C31   H21   S    
N5    H40   S    
O4    Zn1   S    
N8    H45   S    
C35   C36   S    
C25   H8    S    
C26   C27   S    
C34   H29   S    
C27   H13   S    
C7    N1    D    
C8    N2    D    
C15   O10   S    
C20   C24   A    
O12   C34   S    
C33   H26   S    
C35   H30   S    
C29   H16   S    
C11   C21   A    
C12   H2    S    
C1    C3    S    
C18   N4    S    
C32   C33   S    
C19   C23   A    
O9    C25   S    
N4    H38   S    
N7    H43   S    
C6    N5    S    
N6    H41   S    
C9    O5    A    
C27   H11   S    
N8    H46   S    
C16   O9    S    
C4    C6    D    
O8    Zn1   S    
C36   H33   S    
C20   C22   A    
C13   C15   A    
C14   C16   A    
C28   C29   S    
C5    N6    S    
C25   H7    S    
C1    O3    A    
C34   C35   S    
C2    O4    A    
C15   C17   A    
O10   C28   S    
N7    H44   S    
C17   N3    S    
C30   H19   S    
C12   C14   A    
C33   H25   S    
C3    C5    D    
C9    C24   S    
C10   C23   S    
C10   O6    A    
O1    Zn1   S    
C28   H15   S    
C11   C13   A    
N4    H37   S    
C5    C6    S    
C17   C19   A    
C35   H31   S    
C18   C20   A    
O5    Zn1   S    
C30   H18   S    
C36   H34   S    
C16   C18   A    
O11   C31   S    
C21   C24   A    
N3    H36   S    
C22   C23   A    
C14   O12   S    
