data_mof_unit_1539.cif
_audit_creation_date              2012-12-10T22:11:10-0500
_audit_creation_method            fapswitch 2.2
_symmetry_space_group_name_H-M    P1
_symmetry_Int_Tables_number       1
_space_group_crystal_system       triclinic
_cell_length_a                    12.138394
_cell_length_b                    12.293669
_cell_length_c                    23.019471
_cell_angle_alpha                 90.810861
_cell_angle_beta                  90.981625
_cell_angle_gamma                 91.044016
_cell_volume                      3433.65597753

loop_
_atom_site_label
_atom_site_type_symbol
_atom_type_description
_atom_site_fract_x
_atom_site_fract_y
_atom_site_fract_z
_atom_type_partial_charge
C1    C     C_R   0.656535 0.998374 0.579731 0.863239
C2    C     C_R   0.343465 0.001626 0.420269 0.863238
C3    C     C_R   0.899466 0.815151 0.123193 -0.218476
C4    C     C_R   0.100534 0.184850 0.876807 -0.218475
C5    C     C_R   0.092239 0.863342 0.187185 -0.212440
C6    C     C_R   0.907761 0.136657 0.812815 -0.212440
C7    C     C_R   0.091208 0.781049 0.145911 -0.194421
C8    C     C_R   0.908791 0.218950 0.854089 -0.194421
C9    C     C_R   0.890586 0.171143 0.197433 0.225305
C10   C     C_R   0.109414 0.828858 0.802568 0.225306
C11   C     C_R   0.899100 0.253898 0.156746 -0.195278
C12   C     C_R   0.100900 0.746102 0.843254 -0.195281
C13   C     C_R   0.121448 0.907413 0.316689 -0.158955
C14   C     C_R   0.878551 0.092588 0.683311 -0.158956
C15   C     C_R   0.203912 0.906013 0.358735 -0.203339
C16   C     C_R   0.796087 0.093988 0.641265 -0.203339
C17   C     C_R   0.888940 0.081455 0.330728 -0.181246
C18   C     C_R   0.111062 0.918543 0.669273 -0.181241
C19   C     C_R   0.808361 0.083209 0.371756 -0.273195
C20   C     C_R   0.191641 0.916790 0.628246 -0.273193
C21   C     C_3   0.992037 0.005716 0.247780 -0.091102
C22   C     C_3   0.007963 0.994284 0.752220 -0.091103
C23   C     C_R   0.650666 0.001538 0.419025 0.895574
C24   C     C_R   0.349334 0.998462 0.580975 0.895574
C25   C     C_R   0.094458 0.004496 0.288228 0.114953
C26   C     C_R   0.905542 0.995504 0.711772 0.114954
C27   C     C_R   0.259238 0.002444 0.374933 -0.023036
C28   C     C_R   0.740762 0.997556 0.625067 -0.023036
C29   C     C_R   0.898093 0.993536 0.291033 0.093548
C30   C     C_R   0.101907 0.006464 0.708967 0.093545
C31   C     C_R   0.729516 0.000330 0.372565 -0.072719
C32   C     C_R   0.270484 0.999669 0.627435 -0.072720
C33   C     C_R   0.987500 0.110281 0.211450 0.089619
C34   C     C_R   0.012500 0.889719 0.788550 0.089619
C35   C     C_R   0.996997 0.274453 0.127659 -0.072361
C36   C     C_R   0.003003 0.725547 0.872340 -0.072360
C37   C     C_R   0.994522 0.917880 0.200421 0.149158
C38   C     C_R   0.005479 0.082121 0.799579 0.149158
C39   C     C_R   0.993843 0.754056 0.115249 -0.017759
C40   C     C_R   0.006157 0.245944 0.884751 -0.017760
C41   C     C_R   0.993353 0.663547 0.074400 0.869816
C42   C     C_R   0.006647 0.336453 0.925599 0.869816
C43   C     C_R   0.998876 0.353866 0.081738 0.881072
C44   C     C_R   0.001124 0.646134 0.918261 0.881072
C45   C     C_R   0.150519 0.101482 0.305840 -0.198289
C46   C     C_R   0.849482 0.898518 0.694159 -0.198288
C47   C     C_R   0.232604 0.100074 0.348190 -0.192688
C48   C     C_R   0.767397 0.899925 0.651809 -0.192688
C49   C     C_R   0.824870 0.901314 0.296942 0.192816
C50   C     C_R   0.175129 0.098687 0.703058 0.192815
C51   C     C_R   0.731600 0.913284 0.331906 0.176395
C52   C     C_R   0.268399 0.086717 0.668094 0.176394
C53   C     C_R   0.085370 0.134615 0.180966 -0.207815
C54   C     C_R   0.914630 0.865385 0.819034 -0.207815
C55   C     C_R   0.090493 0.215889 0.140559 -0.206706
C56   C     C_R   0.909507 0.784110 0.859440 -0.206706
C57   C     C_R   0.900810 0.898451 0.164372 -0.126344
C58   C     C_R   0.099190 0.101550 0.835627 -0.126344
H1    H     H_    0.273684 0.176007 0.360697 0.157471
H2    H     H_    0.726317 0.823993 0.639302 0.157471
H3    H     H_    0.158942 0.087419 0.187320 0.153406
H4    H     H_    0.841058 0.912580 0.812679 0.153406
H5    H     H_    0.826481 0.943477 0.169980 0.139817
H6    H     H_    0.173519 0.056525 0.830019 0.139818
H7    H     H_    0.170279 0.883142 0.208366 0.145497
H8    H     H_    0.829721 0.116858 0.791635 0.145497
H9    H     H_    0.078402 0.832002 0.306891 0.138994
H10   H     H_    0.921597 0.167998 0.693110 0.138994
H11   H     H_    0.944077 0.151429 0.329374 0.157011
H12   H     H_    0.055925 0.848569 0.670627 0.157011
H13   H     H_    0.166779 0.229878 0.117840 0.163757
H14   H     H_    0.833221 0.770121 0.882160 0.163757
H15   H     H_    0.824733 0.798153 0.098046 0.154257
H16   H     H_    0.175267 0.201848 0.901954 0.154257
H17   H     H_    0.166784 0.737729 0.138657 0.160111
H18   H     H_    0.833216 0.262271 0.861343 0.160111
H19   H     H_    0.222403 0.829745 0.379450 0.157223
H20   H     H_    0.777596 0.170255 0.620550 0.157223
H21   H     H_    0.807128 0.150628 0.402579 0.173730
H22   H     H_    0.192874 0.849370 0.597423 0.173730
H23   H     H_    0.128339 0.180013 0.289200 0.142715
H24   H     H_    0.871663 0.819987 0.710799 0.142714
O1    O     O_R   0.621380 0.090460 0.561410 -0.633089
O2    O     O_R   0.378620 0.909540 0.438590 -0.633088
O3    O     O_R   0.617150 0.909540 0.438590 -0.615676
O4    O     O_R   0.382850 0.090460 0.561410 -0.615676
O5    O     O_R   0.619720 0.093230 0.440890 -0.630730
O6    O     O_R   0.380280 0.906770 0.559110 -0.630730
O7    O     O_R   0.618800 0.906770 0.559110 -0.627782
O8    O     O_R   0.381200 0.093230 0.440890 -0.627782
O9    O     O_R   0.087590 0.627480 0.058790 -0.629577
O10   O     O_R   0.912410 0.372520 0.941210 -0.629577
O11   O     O_R   0.905660 0.383870 0.059980 -0.628365
O12   O     O_R   0.094340 0.616130 0.940020 -0.628365
O13   O     O_R   0.092570 0.390420 0.063230 -0.628344
O14   O     O_R   0.907430 0.609580 0.936770 -0.628344
O15   O     O_R   0.900680 0.620930 0.055550 -0.628897
O16   O     O_R   0.099320 0.379070 0.944450 -0.628897
Zn1   Zn    Zn3+2 0.501730 0.123520 0.501540 0.937466
Zn2   Zn    Zn3+2 0.498270 0.876480 0.498460 0.937466
Zn3   Zn    Zn3+2 0.125690 0.504390 0.002180 0.938178
Zn4   Zn    Zn3+2 0.874310 0.495610 0.997820 0.938177
C59   C     C_3   0.845759 0.786905 0.274151 -0.920100
H25   H     H_    0.827126 0.726905 0.308411 0.243981
H26   H     H_    0.791694 0.767397 0.235956 0.245796
H27   H     H_    0.931673 0.770807 0.263335 0.241498
C60   C     C_3   0.154239 0.213095 0.725849 -0.920099
H28   H     H_    0.172872 0.273096 0.691588 0.243981
H29   H     H_    0.068325 0.229193 0.736665 0.241497
H30   H     H_    0.208305 0.232604 0.764043 0.245796
C61   C     C_3   0.775893 0.153276 0.221134 -0.939385
H31   H     H_    0.768349 0.196448 0.263386 0.255568
H32   H     H_    0.711903 0.187756 0.192003 0.229797
H33   H     H_    0.751707 0.066864 0.224500 0.240261
C62   C     C_3   0.224108 0.846726 0.778868 -0.939388
H34   H     H_    0.231657 0.803548 0.736618 0.255567
H35   H     H_    0.248292 0.933138 0.775498 0.240261
H36   H     H_    0.288097 0.812255 0.808002 0.229798
C63   C     C_3   0.634729 0.833812 0.325238 -0.882545
H37   H     H_    0.625726 0.803171 0.279819 0.232319
H38   H     H_    0.645869 0.763930 0.354652 0.254180
H39   H     H_    0.555804 0.874245 0.334662 0.235181
C64   C     C_3   0.365269 0.166189 0.674761 -0.882544
H40   H     H_    0.374272 0.196830 0.720180 0.232319
H41   H     H_    0.444195 0.125758 0.665336 0.235182
H42   H     H_    0.354129 0.236072 0.645348 0.254179
H43   H     H_    0.827317 0.301708 0.146491 0.160952
H44   H     H_    0.172684 0.698293 0.853509 0.160953

loop_
_geom_bond_atom_site_label_1
_geom_bond_atom_site_label_2
_ccdc_geom_bond_type
C9    C61   S    
C16   C28   A    
C5    C37   A    
C17   C29   A    
C2    O2    A    
C61   H31   S    
C19   C31   A    
C64   H40   S    
C39   C41   S    
C29   C49   A    
C17   H11   S    
C36   C56   A    
C7    C39   A    
O14   Zn4   S    
C42   O16   A    
C20   C32   A    
C52   C64   S    
C64   H41   S    
C21   C33   S    
C62   H34   S    
C22   C38   S    
C8    H18   S    
C18   C20   A    
C50   C52   A    
C2    O8    A    
C32   C52   A    
C17   C19   A    
C46   H24   S    
C15   C27   A    
C59   H26   S    
C61   H32   S    
C4    C40   A    
O12   Zn3   S    
C62   H35   S    
C1    C28   S    
C51   C63   S    
C60   H28   S    
C6    C38   A    
C48   H2    S    
C2    C27   S    
C18   C30   A    
C14   C16   A    
C12   C36   A    
C35   C43   S    
C16   H20   S    
O15   Zn4   S    
O10   Zn4   S    
C45   C47   A    
C30   C50   A    
C3    C39   A    
C23   O5    A    
C9    C33   A    
C60   H29   S    
C13   C25   A    
C61   H33   S    
C53   H3    S    
O9    Zn3   S    
C57   H5    S    
C46   C48   A    
C53   C55   A    
C33   C53   A    
C22   C34   S    
C54   C56   A    
C20   H22   S    
O7    Zn2   S    
C35   C55   A    
O2    Zn2   S    
C5    H7    S    
C5    C7    A    
C64   H42   S    
C7    H17   S    
C54   H4    S    
C58   H6    S    
C49   C51   A    
C21   C29   S    
C23   C31   S    
C11   H43   S    
C24   C32   S    
C44   O14   A    
C24   O6    A    
C43   O13   A    
C62   H36   S    
C10   C34   A    
C38   C58   A    
C14   C26   A    
C19   H21   S    
O4    Zn1   S    
C9    C11   A    
O6    Zn2   S    
C63   H38   S    
C10   C12   A    
C3    C57   A    
C41   O9    A    
C34   C54   A    
C13   C15   A    
C23   O3    A    
C50   C60   S    
C60   H30   S    
C41   O15   A    
C36   C44   S    
C25   C45   A    
O8    Zn1   S    
C13   H9    S    
C63   H39   S    
C27   C47   A    
C21   C25   S    
C28   C48   A    
C1    O7    A    
C22   C30   S    
C56   H14   S    
C4    H16   S    
C45   H23   S    
C31   C51   A    
O11   Zn4   S    
C49   C59   S    
C6    C8    A    
C63   H37   S    
C12   H44   S    
C1    O1    A    
O16   Zn3   S    
C18   H12   S    
C11   C35   A    
O3    Zn2   S    
C15   H19   S    
C40   C42   S    
C43   O11   A    
C59   H27   S    
C42   O10   A    
C3    H15   S    
C55   H13   S    
C44   O12   A    
C26   C46   A    
C47   H1    S    
O5    Zn1   S    
C6    H8    S    
C21   C37   S    
C22   C26   S    
C4    C58   A    
C59   H25   S    
C14   H10   S    
O1    Zn1   S    
C8    C40   A    
C24   O4    A    
C37   C57   A    
C10   C62   S    
O13   Zn3   S    
