data_mof_unit_3947.cif
_audit_creation_date              2013-03-05T15:47:15-0500
_audit_creation_method            fapswitch 2.2
_symmetry_space_group_name_H-M    P1
_symmetry_Int_Tables_number       1
_space_group_crystal_system       triclinic
_cell_length_a                    27.745289
_cell_length_b                    10.864966
_cell_length_c                    9.847307
_cell_angle_alpha                 110.147573
_cell_angle_beta                  99.20258
_cell_angle_gamma                 90.583474
_cell_volume                      2744.14035393

loop_
_atom_site_label
_atom_site_type_symbol
_atom_site_description
_atom_site_fract_x
_atom_site_fract_y
_atom_site_fract_z
_atom_type_partial_charge
O1    O     O_R   0.504520 0.332330 0.577400 -0.577017
O2    O     O_R   0.495480 0.667670 0.422600 -0.584987
O3    O     O_R   0.490210 0.295500 0.332650 -0.520143
O4    O     O_R   0.509790 0.704500 0.667350 -0.530108
C1    C     C_R   0.499282 0.253695 0.442554 0.908316
C2    C     C_R   0.505761 0.746478 0.557613 0.885611
O5    O     O_R   0.437420 0.518430 0.622370 -0.608555
O6    O     O_R   0.562580 0.481570 0.377630 -0.596849
O7    O     O_R   0.423110 0.481600 0.377610 -0.522232
O8    O     O_R   0.576890 0.518400 0.622390 -0.507238
C3    C     C_R   0.407522 0.496583 0.499435 0.828232
C4    C     C_R   0.592546 0.502584 0.500245 0.890718
Cu1   Cu    Cu3+1 0.508480 0.521810 0.644910 1.118616
Cu2   Cu    Cu3+1 0.491520 0.478190 0.355090 1.113798
C5    C     C_R   0.177256 0.391002 0.511903 0.568626
C6    C     C_R   0.823272 0.604065 0.492159 0.578205
O9    O     O_2   0.202695 0.296075 0.543234 -0.495399
O10   O     O_2   0.800546 0.716520 0.511086 -0.484177
N1    N     N_R   0.201385 0.492003 0.491549 -0.462560
N2    N     N_R   0.797426 0.491601 0.480153 -0.461811
C7    C     C_R   0.176777 0.590662 0.461539 0.587015
C8    C     C_R   0.819447 0.375779 0.458687 0.591805
C9    C     C_R   0.285309 0.579730 0.613094 -0.060585
C10   C     C_R   0.711705 0.420112 0.365529 -0.045266
C11   C     C_R   0.335656 0.578673 0.614943 -0.224014
C12   C     C_R   0.661930 0.424499 0.371170 -0.177645
C13   C     C_R   0.322169 0.397127 0.379951 0.301436
C14   C     C_R   0.680134 0.582766 0.621084 0.303795
C15   C     C_R   0.271673 0.400504 0.378937 -0.150010
C16   C     C_R   0.730206 0.574648 0.615136 -0.129098
C17   C     C_R   0.253227 0.491087 0.494778 0.274212
C18   C     C_R   0.746099 0.494586 0.487523 0.257094
C19   C     C_R   0.100003 0.485347 0.467378 -0.046908
C20   C     C_R   0.896413 0.484207 0.459507 -0.045401
C21   C     C_R   0.126123 0.385579 0.499974 -0.027869
C22   C     C_R   0.873256 0.602687 0.482994 -0.029298
C23   C     C_R   0.100761 0.283767 0.521487 -0.112554
C24   C     C_R   0.900583 0.717273 0.498904 -0.097822
C25   C     C_R   0.125608 0.589334 0.449195 -0.086381
C26   C     C_R   0.869258 0.369825 0.447318 -0.087024
C27   C     C_R   0.354515 0.489327 0.498134 -0.143551
C28   C     C_R   0.645537 0.504474 0.498492 -0.123514
H1    H     H_    0.246474 0.330732 0.289298 0.184104
H2    H     H_    0.756980 0.634026 0.708226 0.192421
H3    H     H_    0.120074 0.208437 0.551947 0.204929
H4    H     H_    0.884153 0.810731 0.522494 0.209700
C29   C     C_R   0.970669 0.363534 0.438449 -0.061410
C30   C     C_R   0.022800 0.587811 0.433411 -0.060228
C31   C     C_R   0.973143 0.594648 0.453333 0.067624
C32   C     C_R   0.022665 0.371500 0.462666 0.071298
C33   C     C_R   0.946794 0.480529 0.449620 0.049395
C34   C     C_R   0.048355 0.481359 0.453819 0.047870
C35   C     C_R   0.941489 0.245317 0.408555 0.277716
C36   C     C_R   0.048571 0.684357 0.398878 0.277479
C37   C     C_R   0.891790 0.251151 0.418927 -0.163150
C38   C     C_R   0.099589 0.686218 0.412417 -0.173868
O11   O     O_2   0.793293 0.266881 0.449428 -0.486842
O12   O     O_2   0.201703 0.688702 0.441781 -0.503570
C39   C     C_R   0.049971 0.277668 0.504829 -0.099428
C40   C     C_R   0.949815 0.713689 0.486380 -0.091010
H5    H     H_    0.636138 0.364216 0.275881 0.199831
H6    H     H_    0.359903 0.649533 0.706345 0.186768
H7    H     H_    0.723613 0.358797 0.265942 0.183006
H8    H     H_    0.271169 0.649743 0.703209 0.169999
H9    H     H_    0.870232 0.160864 0.398418 0.229441
H10   H     H_    0.118747 0.761177 0.387737 0.225957
H11   H     H_    0.032686 0.201051 0.530788 0.190567
H12   H     H_    0.969639 0.806504 0.508585 0.197553
C41   C     C_2   0.504385 0.113809 0.416824 -0.371938
C42   C     C_2   0.513175 0.886971 0.584335 -0.345473
C43   C     C_2   0.533430 0.072332 0.514346 0.249032
C44   C     C_2   0.532551 0.931369 0.490857 0.271972
H13   H     H_    0.500730 0.955821 0.679401 0.168030
H14   H     H_    0.482563 0.042846 0.318988 0.182758
H15   H     H_    0.467755 0.417865 0.845172 0.164584
H16   H     H_    0.532862 0.579952 0.153970 0.199905
N3    N     N_2   0.478780 0.445430 0.137360 -0.085628
N4    N     N_2   0.521220 0.554570 0.862640 -0.087365
C45   C     C_2   0.503953 0.509872 0.080270 0.044355
C46   C     C_2   0.496452 0.488732 0.919222 0.046760
N5    N     N_R   0.339877 0.296086 0.264719 0.158743
O13   O     O_R   0.314879 0.254923 0.131839 -0.277991
O14   O     O_R   0.376256 0.230425 0.296517 -0.331794
N6    N     N_R   0.665219 0.676719 0.747490 0.162047
O15   O     O_R   0.690511 0.698522 0.877750 -0.257092
O16   O     O_R   0.632339 0.757167 0.730363 -0.265326
N7    N     N_R   0.563018 0.631288 0.948818 0.262087
O17   O     O_R   0.571457 0.747010 0.942866 -0.199228
O18   O     O_R   0.598702 0.577317 0.005472 -0.282136
N8    N     N_R   0.437110 0.368310 0.050783 0.236027
O19   O     O_R   0.428846 0.252243 0.056062 -0.243175
O20   O     O_R   0.401408 0.421953 0.993746 -0.334702
N9    N     N_R   0.959648 0.117756 0.349068 0.130077
O21   O     O_R   0.943407 0.019174 0.379470 -0.318575
O22   O     O_R   0.986276 0.095243 0.246679 -0.278379
N10   N     N_R   0.023636 0.769895 0.331878 0.128015
O23   O     O_R   0.043038 0.887026 0.357571 -0.306458
O24   O     O_R   0.985814 0.723885 0.227771 -0.286473
N11   N     N_R   0.556116 0.847291 0.376009 0.140307
O25   O     O_R   0.586027 0.763873 0.403230 -0.314338
O26   O     O_R   0.556396 0.874031 0.257124 -0.300641
N12   N     N_R   0.568180 0.160154 0.634604 0.159931
O27   O     O_R   0.578875 0.136986 0.756696 -0.294387
O28   O     O_R   0.596364 0.244877 0.611772 -0.319148

loop_
_geom_bond_atom_site_label_1
_geom_bond_atom_site_label_2
_geom_bond_distance
_ccdc_geom_bond_type
N4    N7    1.392157 S    
N7    O17   1.299323 A    
N9    O21   1.301595 A    
C13   C15   1.400395 A    
H16   C45   1.081886 S    
N1    C17   1.433850 S    
C8    O11   1.349754 S    
N5    O13   1.301351 A    
C19   C34   1.416586 A    
C30   C36   1.426681 A    
C20   C33   1.416683 A    
C19   C25   1.406034 A    
C31   C40   1.411424 A    
O1    C1    1.291713 A    
C32   C39   1.411516 A    
N1    C7    1.367873 A    
C12   H5    1.083450 S    
N6    O16   1.301250 A    
N4    C46   1.296687 D    
C14   N6    1.435530 S    
C5    O9    1.349628 S    
Cu2   N3    2.019385 S    
C14   C28   1.416926 A    
O4    Cu1   1.919341 S    
C41   C43   1.353781 D    
C4    C28   1.473124 S    
C39   H11   1.079798 S    
C5    N1    1.368232 A    
C25   C38   1.398158 A    
C31   C33   1.419468 A    
N10   O24   1.301655 A    
C32   C34   1.419334 A    
H15   C46   1.083306 S    
C36   N10   1.437753 S    
C6    N2    1.369980 A    
C29   C35   1.426173 A    
C35   C37   1.399366 A    
N9    O22   1.301640 A    
Cu1   Cu2   2.687974 S    
C15   H1    1.083282 S    
C7    O12   1.349666 S    
C16   H2    1.083223 S    
O2    C2    1.292924 A    
C5    C21   1.403640 A    
N5    O14   1.301250 A    
C29   C32   1.420863 A    
N3    C45   1.296485 D    
C36   C38   1.399652 A    
N3    N8    1.392293 S    
C35   N9    1.437769 S    
C13   N5    1.437129 S    
N6    O15   1.301255 A    
O4    C2    1.300058 A    
C11   C27   1.404586 A    
C29   C33   1.418039 A    
C1    C41   1.464504 S    
C9    C17   1.398271 A    
O5    C3    1.298766 A    
O7    Cu2   1.945137 S    
C10   C18   1.398758 A    
C13   C27   1.416984 A    
N8    O20   1.302184 A    
N11   O25   1.301361 A    
C7    C25   1.404898 A    
C30   C34   1.418467 A    
O6    C4    1.298614 A    
C26   C37   1.398382 A    
C8    C26   1.404630 A    
N10   O23   1.301554 A    
C42   H13   1.086935 S    
C41   H14   1.086937 S    
N12   O28   1.301361 A    
O7    C3    1.298290 A    
C23   C39   1.390617 A    
O3    Cu2   1.919340 S    
O8    C4    1.300464 A    
C24   C40   1.390777 A    
C9    H8    1.082787 S    
N11   O26   1.300826 A    
C43   N12   1.442249 S    
N2    C8    1.369418 A    
C10   H7    1.082915 S    
N7    O18   1.302257 A    
C20   C26   1.405622 A    
O1    Cu1   1.929111 S    
C23   H3    1.083329 S    
C12   C28   1.404926 A    
N2    C18   1.437582 S    
C2    C42   1.463289 S    
Cu1   N4    2.019387 S    
C30   C31   1.421518 A    
O6    Cu2   1.946968 S    
C21   C23   1.398895 A    
C37   H9    1.083408 S    
C10   C12   1.391617 A    
O3    C1    1.301838 A    
O8    Cu1   1.945142 S    
C14   C16   1.402207 A    
C43   C44   1.467369 S    
C15   C17   1.398356 A    
C6    C22   1.403980 A    
C16   C18   1.400823 A    
N8    O19   1.299477 A    
C38   H10   1.083401 S    
C22   C24   1.399193 A    
C19   C21   1.408731 A    
C3    C27   1.469783 S    
C20   C22   1.408074 A    
C11   H6    1.083445 S    
C9    C11   1.394307 A    
N12   O27   1.301069 A    
O2    Cu2   1.929112 S    
C24   H4    1.083343 S    
C45   C46   1.501220 S    
O5    Cu1   1.946968 S    
C40   H12   1.079622 S    
C6    O10   1.349659 S    
C42   C44   1.351989 D    
C44   N11   1.441530 S    
