data_mof_unit_3845.cif
_audit_creation_date              2012-10-26T20:26:20-0400
_audit_creation_method            fapswitch 2.2
_symmetry_space_group_name_H-M    P1
_symmetry_Int_Tables_number       1
_space_group_crystal_system       triclinic
_cell_length_a                    19.285984
_cell_length_b                    15.867136
_cell_length_c                    14.625807
_cell_angle_alpha                 91.424159
_cell_angle_beta                  89.812353
_cell_angle_gamma                 89.382003
_cell_volume                      4474.02100241

loop_
_atom_site_label
_atom_site_type_symbol
_atom_type_description
_atom_site_fract_x
_atom_site_fract_y
_atom_site_fract_z
_atom_type_partial_charge
C1    C     C_R   0.500698 0.339420 0.498867 0.546012
C2    C     C_3   0.459304 0.968709 0.434280 -0.106023
C3    C     C_3   0.503320 0.082639 0.494897 0.027216
C4    C     C_3   0.500487 0.917092 0.504506 0.027312
C5    C     C_1   0.503561 0.174273 0.494232 -0.082950
C6    C     C_1   0.499224 0.825563 0.505417 -0.083245
C7    C     C_3   0.500791 0.580261 0.972327 0.023177
C8    C     C_3   0.498864 0.419556 0.027673 0.023113
C9    C     C_3   0.443045 0.541382 0.031928 0.020858
C10   C     C_3   0.556614 0.458426 0.968072 0.020819
C11   C     C_3   0.556939 0.537944 0.031897 0.019735
C12   C     C_R   0.499510 0.660544 0.501121 0.541404
C13   C     C_3   0.442723 0.461870 0.968075 0.020473
C14   C     C_3   0.499495 0.499205 0.091609 -0.009307
C15   C     C_3   0.500181 0.500622 0.908381 -0.008925
C16   C     C_R   0.367139 0.497685 0.500198 0.541056
C17   C     C_R   0.632630 0.503402 0.499905 0.537840
C18   C     C_1   0.499806 0.499564 0.194261 0.099838
C19   C     C_1   0.500041 0.500357 0.805736 0.097984
C20   C     C_R   0.253519 0.442022 0.559675 -0.005818
C21   C     C_R   0.742354 0.573112 0.447830 -0.002492
C22   C     C_R   0.179634 0.443103 0.556784 0.008855
C23   C     C_3   0.566048 0.968558 0.486602 0.029444
C24   C     C_R   0.816021 0.573572 0.445355 0.005877
C25   C     C_R   0.145417 0.497171 0.494737 0.045489
C26   C     C_R   0.853631 0.514899 0.498238 0.048576
C27   C     C_R   0.183773 0.546825 0.434484 -0.014881
C28   C     C_R   0.818624 0.456984 0.553036 -0.012782
C29   C     C_R   0.255870 0.544516 0.437724 -0.131580
C30   C     C_R   0.746412 0.455910 0.552917 -0.131836
C31   C     C_R   0.290893 0.494590 0.500268 -0.000449
C32   C     C_R   0.708273 0.511501 0.499757 0.005805
C33   C     C_R   0.929636 0.512847 0.496010 0.326811
C34   C     C_3   0.437836 0.031010 0.512767 0.029293
C35   C     C_R   0.069471 0.504134 0.494264 0.325294
C36   C     C_3   0.293735 0.384374 0.622519 -0.383191
C37   C     C_3   0.701050 0.640129 0.398561 -0.389331
C38   C     C_3   0.378779 0.419028 0.928411 -0.407381
C39   C     C_3   0.620902 0.580789 0.071467 -0.405905
C40   C     C_3   0.137063 0.386610 0.618089 -0.241533
C41   C     C_3   0.134123 0.421837 0.716779 -0.288903
C42   C     C_3   0.091230 0.365557 0.777744 -0.456749
C43   C     C_3   0.854696 0.638056 0.389376 -0.251352
C44   C     C_3   0.875798 0.714226 0.449350 -0.296215
C45   C     C_3   0.525188 0.020986 0.416898 0.027589
C46   C     C_3   0.912393 0.780253 0.393114 -0.459696
C47   C     C_3   0.148518 0.604477 0.367961 -0.395474
C48   C     C_3   0.857679 0.394453 0.610182 -0.396102
C49   C     C_3   0.546916 0.048135 0.321393 -0.250990
C50   C     C_3   0.566303 0.972053 0.259332 -0.299145
C51   C     C_3   0.576188 0.997774 0.160459 -0.465851
C52   C     C_3   0.457103 0.951552 0.678055 -0.250987
C53   C     C_3   0.437273 0.027601 0.739913 -0.299083
C54   C     C_3   0.427168 0.001949 0.838762 -0.465901
C55   C     C_3   0.637791 0.926727 0.478224 -0.253177
C56   C     C_3   0.478698 0.978691 0.582480 0.027918
C57   C     C_3   0.695246 0.991075 0.464514 -0.299418
C58   C     C_3   0.766053 0.947454 0.457191 -0.459860
C59   C     C_3   0.365578 0.071435 0.520846 -0.252423
C60   C     C_3   0.309150 0.005643 0.534208 -0.299543
C61   C     C_3   0.237514 0.047218 0.539839 -0.457298
C62   C     C_3   0.378709 0.582887 0.076698 -0.248227
C63   C     C_3   0.333722 0.632080 0.009710 -0.300254
C64   C     C_3   0.266110 0.661810 0.055062 -0.458699
C65   C     C_3   0.620932 0.416832 0.923343 -0.248391
C66   C     C_3   0.665827 0.367533 0.990348 -0.300251
C67   C     C_1   0.502415 0.249779 0.496015 -0.045893
C68   C     C_3   0.733321 0.337447 0.944955 -0.457608
C69   C     C_3   0.503542 0.668746 0.932835 -0.246446
C70   C     C_3   0.506717 0.738728 0.006969 -0.298642
C71   C     C_3   0.490849 0.824647 0.967136 -0.467860
C72   C     C_3   0.496064 0.331118 0.067277 -0.246486
C73   C     C_3   0.492992 0.261031 0.993248 -0.298613
C74   C     C_3   0.509133 0.175220 0.033194 -0.467870
C75   C     C_1   0.499139 0.750109 0.503866 -0.046402
C76   C     C_3   0.544615 0.030967 0.565105 -0.106279
Cu1   Cu    Cu3+1 0.500010 0.500000 0.590220 0.953969
Cu2   Cu    Cu3+1 0.499990 0.500000 0.409780 0.957125
H1    H     H_    0.285320 0.583629 0.392215 0.122623
H2    H     H_    0.702859 0.627069 0.323666 0.127287
H3    H     H_    0.346437 0.394486 0.984478 0.125328
H4    H     H_    0.348001 0.464215 0.888246 0.121061
H5    H     H_    0.394803 0.366594 0.881247 0.122680
H6    H     H_    0.653100 0.605531 0.015366 0.124589
H7    H     H_    0.604912 0.633071 0.118852 0.123144
H8    H     H_    0.651806 0.535535 0.111369 0.126421
H9    H     H_    0.037166 0.361429 0.752135 0.157041
H10   H     H_    0.114540 0.301278 0.779202 0.145503
H11   H     H_    0.090023 0.392523 0.848525 0.142088
H12   H     H_    0.719377 0.410100 0.593300 0.117820
H13   H     H_    0.187073 0.427146 0.745721 0.157299
H14   H     H_    0.110352 0.485962 0.717670 0.188875
H15   H     H_    0.083186 0.379535 0.592965 0.158775
H16   H     H_    0.157595 0.321041 0.615138 0.127786
H17   H     H_    0.960321 0.753014 0.361449 0.156431
H18   H     H_    0.877551 0.803341 0.338607 0.145047
H19   H     H_    0.926779 0.834562 0.438229 0.142514
H20   H     H_    0.829186 0.743686 0.482198 0.157036
H21   H     H_    0.911269 0.693667 0.504331 0.188975
H22   H     H_    0.901393 0.608892 0.356688 0.163095
H23   H     H_    0.424342 0.941783 0.381209 0.093476
H24   H     H_    0.823011 0.659738 0.331159 0.136389
H25   H     H_    0.186495 0.641248 0.328433 0.111377
H26   H     H_    0.117428 0.566786 0.318407 0.154589
H27   H     H_    0.113957 0.649868 0.405589 0.140552
H28   H     H_    0.822113 0.352211 0.646935 0.112118
H29   H     H_    0.892118 0.354566 0.565672 0.142711
H30   H     H_    0.889482 0.428444 0.662034 0.151130
H31   H     H_    0.526212 0.020427 0.132207 0.147873
H32   H     H_    0.615482 0.048212 0.156200 0.150705
H33   H     H_    0.594278 0.942450 0.118564 0.138958
H34   H     H_    0.579635 0.057872 0.618117 0.093444
H35   H     H_    0.615440 0.943204 0.283067 0.159703
H36   H     H_    0.525002 0.923809 0.261567 0.160796
H37   H     H_    0.502720 0.083169 0.291142 0.142117
H38   H     H_    0.591419 0.091718 0.327166 0.135636
H39   H     H_    0.388093 0.951246 0.842846 0.150569
H40   H     H_    0.477148 0.979701 0.867367 0.147795
H41   H     H_    0.408649 0.057196 0.880444 0.138998
H42   H     H_    0.478409 0.076061 0.737808 0.160913
H43   H     H_    0.388103 0.056147 0.715910 0.159649
H44   H     H_    0.412879 0.907549 0.672397 0.135599
H45   H     H_    0.319393 0.422632 0.676917 0.152800
H46   H     H_    0.501488 0.916968 0.708430 0.141837
H47   H     H_    0.777623 0.913128 0.520737 0.149740
H48   H     H_    0.767202 0.902164 0.398018 0.147691
H49   H     H_    0.806837 0.995230 0.447112 0.142399
H50   H     H_    0.685944 0.026154 0.400988 0.161669
H51   H     H_    0.695723 0.036969 0.523165 0.158208
H52   H     H_    0.647966 0.892039 0.541992 0.140184
H53   H     H_    0.637577 0.879869 0.420593 0.134294
H54   H     H_    0.234908 0.092947 0.598556 0.146457
H55   H     H_    0.225944 0.080577 0.475677 0.151852
H56   H     H_    0.262325 0.337204 0.657489 0.108160
H57   H     H_    0.197618 0.998300 0.549679 0.141788
H58   H     H_    0.310034 0.959218 0.476034 0.158372
H59   H     H_    0.318444 0.971377 0.598259 0.161424
H60   H     H_    0.364947 0.118267 0.578493 0.134631
H61   H     H_    0.355093 0.105879 0.457007 0.141139
H62   H     H_    0.235376 0.606913 0.076741 0.152178
H63   H     H_    0.277065 0.703042 0.115691 0.148770
H64   H     H_    0.234929 0.698261 0.005720 0.140752
H65   H     H_    0.361703 0.688340 0.986593 0.162290
H66   H     H_    0.321154 0.592379 0.948808 0.162316
H67   H     H_    0.333589 0.348137 0.582546 0.133488
H68   H     H_    0.347540 0.532344 0.107607 0.145533
H69   H     H_    0.395595 0.626190 0.132964 0.134986
H70   H     H_    0.722195 0.296144 0.884440 0.148766
H71   H     H_    0.764184 0.392174 0.923102 0.152996
H72   H     H_    0.764446 0.300963 0.994328 0.141624
H73   H     H_    0.678551 0.407258 0.051171 0.163940
H74   H     H_    0.637718 0.311424 0.013598 0.162443
H75   H     H_    0.604016 0.373572 0.867053 0.135628
H76   H     H_    0.652180 0.467326 0.892478 0.146096
H77   H     H_    0.528632 0.838482 0.912156 0.150193
H78   H     H_    0.646128 0.644381 0.420392 0.153181
H79   H     H_    0.437510 0.825940 0.938760 0.146845
H80   H     H_    0.494513 0.874313 0.021666 0.139496
H81   H     H_    0.469127 0.727181 0.062680 0.164624
H82   H     H_    0.559434 0.740760 0.036859 0.156501
H83   H     H_    0.550078 0.672594 0.888187 0.139592
H84   H     H_    0.457251 0.677447 0.888964 0.139813
H85   H     H_    0.562445 0.174222 0.061678 0.146995
H86   H     H_    0.471352 0.161201 0.088117 0.150232
H87   H     H_    0.505726 0.125498 0.978701 0.139350
H88   H     H_    0.440252 0.258787 0.963433 0.156519
H89   H     H_    0.722315 0.703583 0.413784 0.111091
H90   H     H_    0.530493 0.272645 0.937454 0.164661
H91   H     H_    0.542293 0.322494 0.111280 0.140339
H92   H     H_    0.449472 0.327313 0.111830 0.139446
N1    N     N_R   0.032649 0.472966 0.422472 -0.243681
N2    N     N_R   0.966430 0.543736 0.567939 -0.250724
N3    N     N_R   0.963730 0.477178 0.423383 -0.245426
N4    N     N_R   0.035337 0.539565 0.566997 -0.248365
N5    N     N_1   0.499980 0.500000 0.274190 -0.199061
N6    N     N_1   0.500020 0.500000 0.725810 -0.200958
O1    O     O_R   0.500010 0.379080 0.576170 -0.494691
O2    O     O_R   0.499990 0.620920 0.423830 -0.498510
O3    O     O_R   0.500000 0.379080 0.423800 -0.487788
O4    O     O_R   0.500000 0.620920 0.576200 -0.487969
O5    O     O_R   0.400150 0.499990 0.576210 -0.495755
O6    O     O_R   0.599850 0.500010 0.423790 -0.491358
O7    O     O_R   0.400140 0.499990 0.423840 -0.495547
O8    O     O_R   0.599860 0.500010 0.576160 -0.495182

loop_
_geom_bond_atom_site_label_1
_geom_bond_atom_site_label_2
_ccdc_geom_bond_type
C66   C68   S    
C34   C56   S    
C8    C13   S    
C56   C76   S    
C38   H5    S    
C27   C29   A    
C35   N1    A    
C41   C42   S    
C14   C18   S    
C12   O2    A    
C40   H15   S    
C30   H12   S    
C57   H50   S    
C16   O7    A    
C61   H55   S    
C6    C75   T    
C37   H89   S    
C53   C54   S    
C16   C31   S    
C15   C19   S    
C51   H32   S    
N1    N3    A    
C62   C63   S    
C23   C45   S    
C57   H51   S    
C69   H83   S    
C39   H6    S    
Cu2   O7    S    
C10   C15   S    
C74   H85   S    
C44   H21   S    
C48   H29   S    
C64   H63   S    
Cu1   O8    S    
C70   H81   S    
C73   C74   S    
C49   C50   S    
C9    C13   S    
C19   N6    T    
C65   H75   S    
C68   H71   S    
C61   H54   S    
C1    C67   S    
C44   H20   S    
C17   O6    A    
C48   H28   S    
C46   H17   S    
N2    N4    A    
C47   H27   S    
C22   C25   A    
Cu1   O5    S    
C63   H66   S    
C70   C71   S    
C59   H61   S    
C33   N3    A    
C23   C76   S    
C68   H70   S    
C5    C67   T    
C60   H59   S    
C18   N5    T    
C2    C34   S    
C7    C15   S    
C34   C59   S    
C71   H77   S    
C59   C60   S    
C51   H31   S    
C54   H41   S    
C4    C56   S    
C37   H78   S    
C1    O1    A    
C73   H90   S    
C21   C32   A    
C44   C46   S    
C7    C11   S    
C2    C45   S    
C71   H79   S    
C37   H2    S    
C8    C72   S    
Cu1   O4    S    
C47   H25   S    
Cu2   O3    S    
C36   H45   S    
C69   H84   S    
C4    C6    S    
C2    H23   S    
C4    C23   S    
C16   O5    A    
C72   C73   S    
C59   H60   S    
Cu1   Cu2   S    
C3    C45   S    
Cu1   O1    S    
C9    C62   S    
C60   C61   S    
C50   H36   S    
C72   H92   S    
C2    C4    S    
C9    C14   S    
C12   O4    A    
C66   H74   S    
C65   H76   S    
C1    O3    A    
C26   C33   S    
C29   H1    S    
C45   C49   S    
C76   H34   S    
C55   H52   S    
C22   C40   S    
C49   H38   S    
C50   C51   S    
C46   H18   S    
C55   C57   S    
C43   H22   S    
C11   C39   S    
C3    C76   S    
C13   C38   S    
C25   C35   S    
C40   C41   S    
C41   H13   S    
C46   H19   S    
C20   C22   A    
C58   H48   S    
Cu1   N6    S    
C55   H53   S    
C62   H69   S    
C13   C15   S    
C38   H3    S    
Cu2   N5    S    
C8    C14   S    
C21   C24   A    
C12   C75   S    
C42   H10   S    
C39   H7    S    
C52   C53   S    
C61   H57   S    
C64   H62   S    
C10   C65   S    
C27   C47   S    
C7    C9    S    
C71   H80   S    
C60   H58   S    
C28   C48   S    
C51   H33   S    
C47   H26   S    
C49   H37   S    
Cu2   O2    S    
C35   N4    A    
C24   C26   A    
C40   H16   S    
C73   H88   S    
C3    C5    S    
C36   H56   S    
C7    C69   S    
C52   H44   S    
C23   C55   S    
C25   C27   A    
C26   C28   A    
C3    C34   S    
C42   H11   S    
C72   H91   S    
C50   H35   S    
C54   H40   S    
C43   H24   S    
C66   H73   S    
C29   C31   A    
C53   H43   S    
C30   C32   A    
C52   H46   S    
C17   O8    A    
C57   C58   S    
C48   H30   S    
C64   H64   S    
C43   C44   S    
C28   C30   A    
C11   C14   S    
C70   H82   S    
C69   C70   S    
C24   C43   S    
C68   H72   S    
C10   C11   S    
C63   C64   S    
C20   C36   S    
C36   H67   S    
C58   H49   S    
C41   H14   S    
C21   C37   S    
C58   H47   S    
C8    C10   S    
C65   C66   S    
C62   H68   S    
C54   H39   S    
C53   H42   S    
C17   C32   S    
C63   H65   S    
C42   H9    S    
C39   H8    S    
Cu2   O6    S    
C33   N2    A    
C74   H87   S    
C38   H4    S    
C52   C56   S    
C74   H86   S    
C20   C31   A    
