data_mof_unit_590.cif
_audit_creation_date              2012-12-11T15:10:43-0500
_audit_creation_method            fapswitch 2.2
_symmetry_space_group_name_H-M    P1
_symmetry_Int_Tables_number       1
_space_group_crystal_system       triclinic
_cell_length_a                    21.132318
_cell_length_b                    7.238724
_cell_length_c                    18.269347
_cell_angle_alpha                 90.013955
_cell_angle_beta                  93.446765
_cell_angle_gamma                 90.002656
_cell_volume                      2789.62518393

loop_
_atom_site_label
_atom_site_type_symbol
_atom_type_description
_atom_site_fract_x
_atom_site_fract_y
_atom_site_fract_z
_atom_type_partial_charge
O1    O     O_R   0.448880 0.506250 0.415280 -0.529434
O2    O     O_R   0.551120 0.006250 0.584720 -0.529438
O3    O     O_R   0.434830 0.174000 0.557310 -0.520568
O4    O     O_R   0.565170 0.674000 0.442690 -0.520580
C1    C     C_R   0.416973 0.344583 0.579636 0.695887
C2    C     C_R   0.583028 0.844568 0.420364 0.695865
O5    O     O_R   0.441680 0.176440 0.414130 -0.530348
O6    O     O_R   0.558320 0.676440 0.585870 -0.530334
O7    O     O_R   0.558020 0.007570 0.440520 -0.519378
O8    O     O_R   0.441980 0.507570 0.559480 -0.519404
C3    C     C_R   0.428018 0.344805 0.388330 0.675897
C4    C     C_R   0.571977 0.844847 0.611671 0.675920
O9    O     O_3   0.538160 0.339670 0.508820 -0.364013
O10   O     O_3   0.461840 0.839670 0.491180 -0.364027
V1    V     V_3+5 0.492920 0.064260 0.498360 1.425533
V2    V     V_3+5 0.507080 0.564260 0.501640 1.425499
C5    C     C_R   0.876581 0.979662 0.687060 -0.165038
C6    C     C_R   0.123482 0.480716 0.312907 -0.165050
H1    H     H_    0.796470 0.976916 0.569940 0.137130
H2    H     H_    0.203614 0.478365 0.430010 0.137125
H3    H     H_    0.898236 0.007403 0.635890 0.157540
H4    H     H_    0.101855 0.508925 0.364061 0.157536
C7    C     C_R   0.888005 0.942610 0.819007 -0.097507
C8    C     C_R   0.112003 0.442797 0.180993 -0.097524
C9    C     C_R   0.582794 0.815324 0.745883 -0.159680
C10   C     C_R   0.417156 0.314538 0.254139 -0.159641
C11   C     C_R   0.617686 0.812799 0.812829 -0.122143
C12   C     C_R   0.382250 0.311755 0.187203 -0.122157
C13   C     C_R   0.682858 0.844156 0.816430 -0.156816
C14   C     C_R   0.317097 0.343411 0.183594 -0.156819
C15   C     C_R   0.715257 0.879645 0.752364 0.091495
C16   C     C_R   0.284732 0.379475 0.247642 0.091501
C17   C     C_R   0.678823 0.883825 0.683540 0.065082
C18   C     C_R   0.321184 0.383958 0.316454 0.065091
C19   C     C_R   0.782480 0.910679 0.754312 0.082314
C20   C     C_R   0.217525 0.410790 0.245687 0.082301
C21   C     C_R   0.811175 0.946538 0.687424 0.080028
C22   C     C_R   0.188867 0.447257 0.312553 0.080045
C23   C     C_R   0.774576 0.949870 0.621021 -0.167126
C24   C     C_R   0.225481 0.450868 0.378944 -0.167135
C25   C     C_R   0.709601 0.918760 0.618974 -0.186593
C26   C     C_R   0.290438 0.419465 0.381000 -0.186642
C27   C     C_R   0.822467 0.908181 0.820004 -0.267129
C28   C     C_R   0.177519 0.408003 0.180009 -0.267126
C29   C     C_R   0.914745 0.978939 0.752045 0.256298
C30   C     C_R   0.085304 0.479754 0.247934 0.256336
C31   C     C_R   0.612266 0.851026 0.680885 -0.080883
C32   C     C_R   0.387721 0.350839 0.319118 -0.080932
H5    H     H_    0.804240 0.882236 0.872864 0.104362
H6    H     H_    0.195719 0.381593 0.127165 0.104404
H7    H     H_    0.532261 0.788878 0.744720 0.106150
H8    H     H_    0.467672 0.287824 0.255309 0.106170
H9    H     H_    0.706461 0.839390 0.870292 0.107933
H10   H     H_    0.293480 0.338409 0.129742 0.107935
H11   H     H_    0.593978 0.785359 0.862607 0.119642
H12   H     H_    0.405932 0.283865 0.137439 0.119643
H13   H     H_    0.683556 0.922551 0.566110 0.110258
H14   H     H_    0.316495 0.423483 0.433855 0.110345
C33   C     C_1   0.864699 0.938937 0.132312 -0.157581
C34   C     C_1   0.135299 0.438896 0.867688 -0.157583
C35   C     C_1   0.821916 0.924841 0.176154 0.033105
C36   C     C_1   0.178083 0.424807 0.823846 0.033112
C37   C     C_1   0.771390 0.905687 0.228321 0.018246
C38   C     C_1   0.228610 0.405677 0.771679 0.018267
C39   C     C_1   0.728819 0.889049 0.272311 0.009215
C40   C     C_1   0.271181 0.389061 0.727689 0.009232
C41   C     C_1   0.678231 0.869936 0.324402 0.004867
C42   C     C_1   0.321771 0.369970 0.675598 0.004868
C43   C     C_1   0.635344 0.855899 0.368115 -0.202759
C44   C     C_1   0.364658 0.355940 0.631885 -0.202755
O11   O     O_R   0.058070 0.289240 0.940580 -0.512957
O12   O     O_R   0.941930 0.789240 0.059420 -0.512901
O13   O     O_R   0.058330 0.616740 0.085880 -0.526691
O14   O     O_R   0.941670 0.116740 0.914120 -0.526719
C45   C     C_R   0.071901 0.448812 0.111831 0.740607
C46   C     C_R   0.928101 0.948770 0.888170 0.740625
O15   O     O_R   0.065180 0.619040 0.942700 -0.522791
O16   O     O_R   0.934820 0.119040 0.057300 -0.522846
O17   O     O_R   0.948870 0.787780 0.915270 -0.528314
O18   O     O_R   0.051130 0.287780 0.084730 -0.528317
C47   C     C_R   0.083135 0.450319 0.920133 0.710062
C48   C     C_R   0.916864 0.950335 0.079867 0.710096
O19   O     O_3   0.961870 0.453310 0.991210 -0.368688
O20   O     O_3   0.038130 0.953310 0.008790 -0.368670
V3    V     V_3+5 0.007070 0.728770 0.001630 1.493436
V4    V     V_3+5 0.992930 0.228770 0.998370 1.493304
Br1   Br    Br    0.003674 0.028061 0.746955 -0.538624
Br2   Br    Br    0.996410 0.529396 0.253012 -0.538643

loop_
_geom_bond_atom_site_label_1
_geom_bond_atom_site_label_2
_ccdc_geom_bond_type
C2    C43   S    
C40   C42   S    
C37   C39   T    
C7    C29   A    
C11   C13   A    
O1    C3    A    
C33   C48   S    
C7    C46   S    
O2    C4    A    
C26   H14   S    
C2    O7    A    
O12   V3    S    
C12   H12   S    
C23   C25   A    
O5    C3    A    
C14   H10   S    
O14   C46   A    
C16   C20   A    
C29   Br1   S    
C5    C29   A    
H2    C24   S    
C11   H11   S    
C7    C27   A    
C34   C36   T    
C35   C37   S    
C36   C38   S    
C39   C41   S    
C18   C26   A    
O18   V4    S    
C15   C17   A    
C19   C27   A    
C45   O18   A    
C9    C31   A    
C10   C32   A    
O16   V4    S    
O5    V1    S    
O15   V3    S    
O6    V2    S    
C22   C24   A    
C13   C15   A    
O13   C45   A    
C3    C32   S    
C4    C31   S    
C6    C30   A    
C30   Br2   S    
C33   C35   T    
O20   V3    S    
O4    C2    A    
C27   H5    S    
C5    H3    S    
C41   C43   T    
C38   C40   T    
O4    V2    S    
C9    H7    S    
C1    C44   S    
C10   H8    S    
O11   V4    S    
C34   C47   S    
O16   C48   A    
O15   C47   A    
O6    C4    A    
O19   V4    S    
O1    V2    S    
C5    C21   A    
O14   V4    S    
O2    V1    S    
O13   V3    S    
H1    C23   S    
C8    C28   A    
C15   C19   A    
C20   C28   A    
C18   C32   A    
C20   C22   A    
O17   V3    S    
O3    V1    S    
C28   H6    S    
C19   C21   A    
C6    H4    S    
O3    C1    A    
C8    C45   S    
C9    C11   A    
C10   C12   A    
C8    C30   A    
C12   C14   A    
C6    C22   A    
C17   C25   A    
C1    O8    A    
C21   C23   A    
O8    V2    S    
C14   C16   A    
C13   H9    S    
C17   C31   A    
C24   C26   A    
O7    V1    S    
C25   H13   S    
C46   O17   A    
C42   C44   T    
O9    V2    S    
O10   V1    S    
O12   C48   A    
C16   C18   A    
O11   C47   A    
