data_mof_unit_3989.cif
_audit_creation_date              2012-12-10T20:26:27-0500
_audit_creation_method            fapswitch 2.2
_symmetry_space_group_name_H-M    P1
_symmetry_Int_Tables_number       1
_space_group_crystal_system       triclinic
_cell_length_a                    10.719574
_cell_length_b                    10.730331
_cell_length_c                    9.854074
_cell_angle_alpha                 91.053569
_cell_angle_beta                  89.376587
_cell_angle_gamma                 89.687051
_cell_volume                      1133.18381903

loop_
_atom_site_label
_atom_site_type_symbol
_atom_type_description
_atom_site_fract_x
_atom_site_fract_y
_atom_site_fract_z
_atom_type_partial_charge
C1    C     C_R   0.502646 0.259383 0.498117 0.877190
C2    C     C_R   0.521613 0.126922 0.493496 -0.139156
C3    C     C_R   0.535274 0.057437 0.369432 0.168712
C4    C     C_R   0.542886 0.928816 0.375826 -0.227142
C5    C     C_R   0.528441 0.869977 0.500358 -0.155591
C6    C     C_R   0.536314 0.938795 0.620436 0.126488
C7    C     C_3   0.458818 0.934590 0.747063 -0.467637
C8    C     C_3   0.455521 0.075754 0.743583 -0.475497
C9    C     C_R   0.390429 0.494633 0.072080 0.221799
C10   C     C_R   0.606033 0.522833 0.071296 -0.123802
C11   C     C_R   0.606310 0.522224 0.927278 -0.133964
C12   C     C_R   0.262553 0.500537 0.500788 0.942945
C13   C     C_R   0.390575 0.494133 0.929717 0.212641
C14   C     C_3   0.295389 0.393851 0.922302 -0.496107
C15   C     C_3   0.293993 0.395242 0.076506 -0.510385
C16   C     C_R   0.505581 0.739683 0.500850 0.897498
C17   C     C_R   0.737356 0.489907 0.499036 0.926325
C18   C     C_2   0.939970 0.434601 0.391181 0.041984
C19   C     C_2   0.868312 0.462542 0.500687 -0.407508
C20   C     C_2   0.073830 0.427564 0.408774 -0.207067
C21   C     C_2   0.130560 0.498432 0.501398 -0.357203
C22   C     C_R   0.533670 0.066006 0.616870 0.095298
H1    H     H_    0.506443 0.120733 0.828970 0.206085
H2    H     H_    0.691180 0.541067 0.124984 0.175880
H3    H     H_    0.692474 0.538574 0.872770 0.157889
H4    H     H_    0.206372 0.427042 0.878373 0.203025
H5    H     H_    0.333086 0.305856 0.876586 0.210854
H6    H     H_    0.204578 0.430556 0.120366 0.208063
H7    H     H_    0.328704 0.307642 0.120453 0.207324
H8    H     H_    0.908423 0.463701 0.601479 0.147457
H9    H     H_    0.127913 0.370107 0.337286 0.163108
H10   H     H_    0.081930 0.559043 0.573931 0.139020
H11   H     H_    0.547149 0.874596 0.281949 0.178816
H12   H     H_    0.366075 0.891190 0.730633 0.202765
H13   H     H_    0.512029 0.897996 0.834118 0.200766
H14   H     H_    0.360744 0.114137 0.725124 0.199281
N1    N     N_R   0.499170 0.499140 0.142800 -0.113161
N2    N     N_R   0.499170 0.499180 0.857150 -0.110075
O1    O     O_R   0.500020 0.316790 0.614690 -0.616069
O2    O     O_R   0.500000 0.316760 0.385350 -0.617620
O3    O     O_R   0.319080 0.500020 0.614640 -0.621539
O4    O     O_R   0.319070 0.499980 0.385300 -0.611546
O5    O     O_R   0.500000 0.683240 0.614650 -0.615982
O6    O     O_R   0.499980 0.683210 0.385310 -0.626639
O7    O     O_R   0.680930 0.500020 0.614700 -0.633010
O8    O     O_R   0.680920 0.499980 0.385360 -0.614350
Zn1   Zn    Zn3+2 0.500010 0.500020 0.653130 0.935048
Zn2   Zn    Zn3+2 0.499990 0.499980 0.346870 0.938726
C23   C     C_R   0.895727 0.408353 0.251740 0.179432
C24   C     C_R   0.940043 0.481218 0.144406 -0.202368
C25   C     C_R   0.920452 0.443909 0.009690 -0.187467
C26   C     C_R   0.857465 0.333112 0.980960 -0.101330
C27   C     C_R   0.813653 0.259844 0.086901 -0.154292
C28   C     C_R   0.832486 0.297187 0.222079 -0.132897
H15   H     H_    0.992706 0.565157 0.165261 0.139810
H16   H     H_    0.955318 0.500137 0.927617 0.130270
H17   H     H_    0.843060 0.303800 0.876630 0.131373
H18   H     H_    0.767488 0.172715 0.063841 0.129942
H19   H     H_    0.802837 0.237127 0.303339 0.122982
C29   C     C_3   0.526219 0.111987 0.229654 -0.873484
H20   H     H_    0.595957 0.186020 0.215836 0.257694
H21   H     H_    0.543355 0.041546 0.147394 0.213032
H22   H     H_    0.430886 0.149323 0.215967 0.243365

loop_
_geom_bond_atom_site_label_1
_geom_bond_atom_site_label_2
_ccdc_geom_bond_type
C2    C22   A    
C11   N2    A    
C8    C22   S    
C27   H18   S    
C8    H14   S    
C6    C7    S    
C2    C3    A    
C14   H5    S    
C16   O6    A    
C24   H15   S    
C3    C29   S    
C9    N1    A    
C24   C25   A    
C9    C15   S    
C7    C8    S    
O4    Zn2   S    
C13   C14   S    
C20   C21   D    
N1    Zn2   S    
C16   O5    A    
N2    Zn1   S    
C12   O3    A    
C7    H13   S    
C10   N1    A    
C12   C21   S    
C29   H21   S    
C17   C19   S    
C13   N2    A    
C15   H7    S    
C18   C20   S    
C28   H19   S    
O7    Zn1   S    
O3    Zn1   S    
C5    C6    A    
C21   H10   S    
O8    Zn2   S    
C29   H22   S    
C26   H17   S    
C1    O1    A    
C17   O7    A    
C15   H6    S    
C25   C26   A    
C6    C22   A    
O6    Zn2   S    
C4    C5    A    
C8    H1    S    
C9    C13   A    
C17   O8    A    
C18   C23   S    
O1    Zn1   S    
C1    C2    S    
C10   C11   A    
C7    H12   S    
C23   C24   A    
C11   H3    S    
C4    H11   S    
C18   C19   D    
C5    C16   S    
C12   O4    A    
C1    O2    A    
C10   H2    S    
C14   C15   S    
C19   H8    S    
O5    Zn1   S    
O2    Zn2   S    
C14   H4    S    
C3    C4    A    
C23   C28   A    
C27   C28   A    
C26   C27   A    
C29   H20   S    
C20   H9    S    
C25   H16   S    
