data_mof_unit_1527.cif
_audit_creation_date              2012-12-10T17:41:49-0500
_audit_creation_method            fapswitch 2.2
_symmetry_space_group_name_H-M    P1
_symmetry_Int_Tables_number       1
_space_group_crystal_system       triclinic
_cell_length_a                    13.711366
_cell_length_b                    13.900439
_cell_length_c                    15.029348
_cell_angle_alpha                 89.72631
_cell_angle_beta                  89.983271
_cell_angle_gamma                 84.734026
_cell_volume                      2852.38109345

loop_
_atom_site_label
_atom_site_type_symbol
_atom_type_description
_atom_site_fract_x
_atom_site_fract_y
_atom_site_fract_z
_atom_type_partial_charge
C1    C     C_R   0.499974 0.502113 0.328708 0.889435
C2    C     C_R   0.500016 0.497823 0.671293 0.891215
C3    C     C_R   0.500264 0.498399 0.953318 -0.001317
C4    C     C_R   0.499305 0.500911 0.046694 -0.001680
C5    C     C_R   0.573344 0.438714 0.907606 -0.113634
C6    C     C_R   0.426301 0.560691 0.092399 -0.115209
C7    C     C_R   0.350927 0.607468 0.950530 -0.186445
C8    C     C_R   0.648562 0.391727 0.049491 -0.180642
C9    C     C_R   0.346141 0.605937 0.043348 0.435127
C10   C     C_R   0.653438 0.393372 0.956679 0.434532
C11   C     C_R   0.788594 0.547017 0.433626 0.117598
C12   C     C_R   0.211445 0.452846 0.566291 0.120796
C13   C     C_R   0.797906 0.453447 0.565994 0.101583
C14   C     C_R   0.202091 0.546754 0.434136 0.093509
C15   C     C_R   0.900709 0.452717 0.567567 -0.056885
C16   C     C_R   0.099301 0.547529 0.432608 -0.056483
C17   C     C_R   0.948196 0.500395 0.499638 0.038765
C18   C     C_R   0.051808 0.499870 0.500543 0.040483
C19   C     C_R   0.891974 0.548377 0.430930 -0.106200
C20   C     C_R   0.108044 0.451844 0.569213 -0.106065
C21   C     C_R   0.956315 0.405444 0.635844 -0.188634
C22   C     C_R   0.043722 0.594891 0.364397 -0.196943
C23   C     C_R   0.515887 0.317024 0.498894 0.868861
C24   C     C_R   0.484101 0.682983 0.501103 0.873002
C25   C     C_R   0.059109 0.404763 0.637906 0.402678
C26   C     C_R   0.940934 0.595678 0.362373 0.406796
C27   C     C_1   0.474270 0.785814 0.503872 -0.070767
C28   C     C_1   0.525640 0.214205 0.496113 -0.065494
C29   C     C_2   0.460341 0.976071 0.509664 0.210193
C30   C     C_2   0.539219 0.023992 0.490154 0.296030
C31   C     C_1   0.532778 0.127600 0.493447 0.077238
C32   C     C_1   0.466964 0.872429 0.506499 0.042283
C33   C     C_R   0.561730 0.426141 0.815133 0.391344
C34   C     C_R   0.438089 0.573493 0.184823 0.400443
C35   C     C_R   0.499543 0.494764 0.768047 -0.156700
C36   C     C_R   0.500357 0.504977 0.231952 -0.155202
C37   C     C_R   0.431549 0.557529 0.813218 -0.227563
C38   C     C_R   0.568129 0.441952 0.186814 -0.219304
C39   C     C_R   0.427766 0.555501 0.905611 0.060742
C40   C     C_R   0.571788 0.443796 0.094406 0.069983
Cu1   Cu    Cu3+1 0.597420 0.500010 0.499990 1.035447
Cu2   Cu    Cu3+1 0.402580 0.499990 0.500010 1.030796
H1    H     H_    0.379379 0.605524 0.776065 0.178431
H2    H     H_    0.620273 0.393946 0.223988 0.172503
H3    H     H_    0.291393 0.644863 0.912916 0.205868
H4    H     H_    0.708055 0.354271 0.087110 0.201843
H5    H     H_    0.742754 0.583510 0.383291 0.207020
H6    H     H_    0.257358 0.415835 0.616289 0.205821
H7    H     H_    0.760872 0.417058 0.617804 0.193999
H8    H     H_    0.239126 0.583223 0.382380 0.193803
H9    H     H_    0.919102 0.369005 0.687898 0.229867
H10   H     H_    0.080970 0.631315 0.312356 0.229304
N1    N     N_R   0.743820 0.499960 0.499930 -0.223347
N2    N     N_R   0.256180 0.500040 0.500070 -0.222313
O1    O     O_R   0.582280 0.500030 0.370250 -0.583467
O2    O     O_R   0.417720 0.499970 0.629750 -0.583061
O3    O     O_R   0.417740 0.500020 0.370270 -0.578326
O4    O     O_R   0.582260 0.499980 0.629730 -0.577812
O5    O     O_R   0.593900 0.362160 0.500010 -0.566566
O6    O     O_R   0.406100 0.637840 0.499990 -0.573714
O7    O     O_R   0.429360 0.362150 0.500030 -0.555508
O8    O     O_R   0.570640 0.637850 0.499970 -0.551184
S1    S     S_3+6 0.653145 0.963683 0.458279 0.051377
O9    O     O_2   0.689222 0.893809 0.530231 -0.242343
O10   O     O_2   0.639914 0.909204 0.373658 -0.272971
O11   O     O_3   0.735573 0.044422 0.441707 -0.486901
H11   H     H_    0.795760 0.005616 0.421792 0.402663
S2    S     S_3+6 0.346097 0.036453 0.540799 0.066376
O12   O     O_2   0.358421 0.090941 0.625554 -0.202019
O13   O     O_2   0.310385 0.106892 0.469157 -0.261990
O14   O     O_3   0.262923 0.956414 0.557237 -0.448782
H12   H     H_    0.250501 0.930539 0.497404 0.361818
S3    S     S_3+6 0.583459 0.308611 0.768251 0.062189
O15   O     O_2   0.674620 0.300965 0.712465 -0.248354
O16   O     O_2   0.592808 0.233342 0.840663 -0.220608
O17   O     O_3   0.487688 0.287185 0.703754 -0.547802
H13   H     H_    0.496115 0.216892 0.691914 0.394590
S4    S     S_3+6 0.416416 0.691132 0.231508 0.057771
O18   O     O_2   0.407065 0.766253 0.158966 -0.222292
O19   O     O_2   0.325269 0.698922 0.287314 -0.260881
O20   O     O_3   0.512206 0.712667 0.295940 -0.553205
H14   H     H_    0.503693 0.782955 0.307799 0.390486
S5    S     S_3+6 0.229890 0.639133 0.091771 0.085967
O21   O     O_2   0.218567 0.584365 0.177065 -0.290534
O22   O     O_2   0.217714 0.745882 0.109266 -0.167884
O23   O     O_3   0.141936 0.612218 0.020475 -0.494110
H15   H     H_    0.079480 0.631064 0.051657 0.412389
S6    S     S_3+6 0.769765 0.360296 0.908349 0.090185
O24   O     O_2   0.782019 0.253580 0.890709 -0.166396
O25   O     O_2   0.781163 0.415206 0.823148 -0.287931
O26   O     O_3   0.857601 0.387146 0.979800 -0.491427
H16   H     H_    0.920095 0.369144 0.948385 0.411244
S7    S     S_3+6 0.123572 0.345469 0.727866 0.056354
O27   O     O_2   0.053908 0.307334 0.793723 -0.222276
O28   O     O_2   0.190589 0.262836 0.692359 -0.211833
O29   O     O_3   0.190564 0.424205 0.779287 -0.531479
H17   H     H_    0.236007 0.384084 0.818581 0.394835
S8    S     S_3+6 0.876557 0.655599 0.272713 0.042556
O30   O     O_2   0.945832 0.699537 0.210125 -0.225797
O31   O     O_2   0.821664 0.584070 0.222871 -0.279430
O32   O     O_3   0.796477 0.743390 0.313326 -0.480583
H18   H     H_    0.753380 0.763880 0.262493 0.410153

loop_
_geom_bond_atom_site_label_1
_geom_bond_atom_site_label_2
_ccdc_geom_bond_type
C2    C35   S    
S1    O10   D    
C25   S7    S    
O32   H18   S    
Cu1   Cu2   S    
C11   H5    S    
C24   C27   S    
C12   H6    S    
C6    C9    A    
O20   H14   S    
C23   O5    A    
C10   S6    S    
S7    O27   D    
C7    H3    S    
C35   C37   A    
Cu1   O4    S    
Cu2   N2    S    
C29   C32   S    
C30   C31   S    
C33   C35   A    
S4    O19   D    
C20   C25   A    
C7    C9    A    
S3    O15   D    
C19   C26   A    
Cu1   O1    S    
Cu2   O2    S    
C4    C40   A    
S2    O12   D    
C5    C33   A    
C16   C22   A    
C18   C20   A    
C11   N1    A    
O11   H11   S    
S1    O11   S    
C3    C39   A    
S7    O28   D    
C30   S1    S    
S3    O16   D    
Cu1   O8    S    
Cu2   O3    S    
C13   N1    A    
O17   H13   S    
Cu1   O5    S    
C4    C6    A    
Cu2   O6    S    
O26   H16   S    
O23   H15   S    
C6    C34   A    
C37   H1    S    
C38   H2    S    
C29   C30   D    
C1    O3    A    
C29   S2    S    
S5    O21   D    
S6    O26   S    
C15   C21   A    
C24   O6    A    
C11   C19   A    
O29   H17   S    
C12   C20   A    
C17   C18   A    
C16   C18   A    
C23   C28   S    
Cu2   O7    S    
Cu1   N1    S    
C9    S5    S    
C13   H7    S    
C33   S3    S    
S5    O22   D    
C26   S8    S    
S7    O29   S    
S8    O31   D    
C13   C15   A    
S3    O17   S    
C14   C16   A    
C3    C4    A    
C21   H9    S    
C22   H10   S    
C15   C17   A    
C21   C25   A    
C24   O8    A    
C14   N2    A    
C27   C32   T    
S4    O18   D    
C28   C31   T    
S6    O25   D    
C3    C5    A    
C2    O4    A    
S8    O32   S    
C36   C38   A    
C1    O1    A    
C5    C10   A    
C37   C39   A    
C2    O2    A    
C34   S4    S    
C38   C40   A    
S4    O20   S    
C14   H8    S    
S2    O14   S    
C17   C19   A    
C34   C36   A    
C8    H4    S    
S1    O9    D    
C23   O7    A    
S5    O23   S    
O14   H12   S    
S6    O24   D    
C8    C10   A    
S8    O30   D    
C22   C26   A    
S2    O13   D    
C7    C39   A    
C8    C40   A    
C12   N2    A    
C1    C36   S    
