data_mof_unit_185.cif
_audit_creation_date              2012-12-11T14:46:15-0500
_audit_creation_method            fapswitch 2.2
_symmetry_space_group_name_H-M    P1
_symmetry_Int_Tables_number       1
_space_group_crystal_system       triclinic
_cell_length_a                    10.894362
_cell_length_b                    10.959238
_cell_length_c                    18.877306
_cell_angle_alpha                 90.417114
_cell_angle_beta                  89.565451
_cell_angle_gamma                 119.964278
_cell_volume                      1952.50882101

loop_
_atom_site_label
_atom_site_type_symbol
_atom_type_description
_atom_site_fract_x
_atom_site_fract_y
_atom_site_fract_z
_atom_type_partial_charge
C1    C     C_R   0.867403 0.636355 0.604811 0.600377
C2    C     C_R   0.921472 0.118274 0.703204 -0.006909
C3    C     C_R   0.934969 0.117728 0.778029 0.000900
C4    C     C_R   0.265459 0.629332 0.605330 0.568801
C5    C     C_R   0.738327 0.182879 0.719071 0.014542
C6    C     C_R   0.774586 0.213751 0.790429 0.007874
C7    C     C_R   0.612579 0.178756 0.695817 -0.076022
C8    C     C_R   0.543016 0.229823 0.738472 -0.138127
C9    C     C_R   0.597547 0.286457 0.804597 -0.120531
C10   C     C_R   0.714445 0.281282 0.830102 -0.063074
C11   C     C_R   0.829844 0.159897 0.673674 -0.027365
C12   C     C_R   0.256091 0.546761 0.796610 -0.006711
C13   C     C_R   0.704241 0.603940 0.706683 -0.001122
C14   C     C_R   0.689395 0.608654 0.779949 -0.158375
C15   C     C_R   0.806769 0.652596 0.824828 0.021893
C16   C     C_R   0.858353 0.223518 0.602214 0.528025
C17   C     C_R   0.938586 0.686705 0.797160 -0.130331
C18   C     C_R   0.954847 0.682781 0.724843 -0.142321
C19   C     C_R   0.839998 0.645490 0.679145 0.058925
C20   C     C_R   0.388426 0.602003 0.293927 -0.111476
C21   C     C_R   0.404265 0.608716 0.221659 -0.101503
C22   C     C_R   0.376185 0.699940 0.181887 0.012221
C23   C     C_R   0.242426 0.533208 0.723781 -0.172898
C24   C     C_R   0.339762 0.790771 0.216218 -0.132967
C25   C     C_R   0.318929 0.780529 0.289315 -0.119366
C26   C     C_R   0.337488 0.681136 0.327743 0.005699
C27   C     C_R   0.716451 0.119162 0.292617 -0.123720
C28   C     C_R   0.862527 0.639424 0.398771 0.547336
C29   C     C_R   0.706781 0.107322 0.220194 -0.108894
C30   C     C_R   0.826209 0.137660 0.178861 -0.004161
C31   C     C_R   0.954605 0.174712 0.211292 -0.115176
C32   C     C_R   0.965127 0.182109 0.285189 -0.006568
C33   C     C_R   0.846369 0.164250 0.325826 -0.024985
C34   C     C_R   0.295962 0.652438 0.680462 0.020462
C35   C     C_R   0.908922 0.785897 0.296796 -0.118606
C36   C     C_R   0.917441 0.796211 0.224180 0.000308
C37   C     C_R   0.811031 0.683654 0.182830 -0.022158
C38   C     C_R   0.706522 0.562330 0.216572 -0.125764
C39   C     C_R   0.706988 0.548186 0.290108 -0.014032
C40   C     C_R   0.273855 0.635841 0.397288 0.557729
C41   C     C_R   0.815403 0.659930 0.329904 -0.039660
C42   C     C_R   0.810233 0.104017 0.894955 0.571279
C43   C     C_R   0.393590 0.700751 0.897046 0.579903
C44   C     C_R   0.796318 0.690749 0.897159 0.551080
C45   C     C_R   0.855432 0.161146 0.822313 0.002889
C46   C     C_R   0.804161 0.102040 0.104116 0.552021
C47   C     C_R   0.404808 0.708071 0.106388 0.553216
C48   C     C_R   0.795556 0.702017 0.107486 0.540316
C49   C     C_R   0.862304 0.226270 0.396374 0.535244
C50   C     C_R   0.356148 0.786544 0.710781 -0.156326
C51   C     C_R   0.374571 0.801656 0.783827 -0.169199
C52   C     C_R   0.330639 0.682180 0.826896 0.028161
C53   C     C_2   0.577373 0.559934 0.662012 0.219229
C54   C     C_2   0.098172 0.203161 0.317689 0.271815
C55   C     C_2   0.043670 0.925676 0.196443 0.239701
C56   C     C_R   0.031152 0.077764 0.805136 -0.085375
C57   C     C_2   0.592035 0.418526 0.323439 0.255442
C58   C     C_2   0.200245 0.417224 0.838713 0.233628
C59   C     C_R   0.106523 0.036642 0.760440 -0.143826
C60   C     C_R   0.087474 0.031852 0.687764 -0.118679
C61   C     C_R   0.995394 0.071419 0.659202 -0.081662
Cr1   Cr    Cr6+3 0.791660 0.390250 0.499930 1.049742
Cr2   Cr    Cr6+3 0.098520 0.708290 0.500540 1.016114
Cr3   Cr    Cr6+3 0.109770 0.401430 0.499480 1.029045
Cr4   Cr    Cr6+3 0.874790 0.925890 0.000070 1.020941
Cr5   Cr    Cr6+3 0.574120 0.948670 0.999300 1.030508
Cr6   Cr    Cr6+3 0.551420 0.625320 0.000920 1.039938
H1    H     H_    0.391645 0.878800 0.677938 0.117701
H2    H     H_    0.604018 0.072587 0.196758 0.167057
H3    H     H_    0.044972 0.193949 0.178939 0.161800
H4    H     H_    0.187012 0.428184 0.700929 0.135248
H5    H     H_    0.144543 0.997612 0.653392 0.128259
H6    H     H_    0.060837 0.088980 0.860024 0.163884
H7    H     H_    0.979796 0.061529 0.602457 0.130351
H8    H     H_    0.752361 0.322277 0.882730 0.142272
H9    H     H_    0.448216 0.227524 0.719705 0.102736
H10   H     H_    0.564133 0.132133 0.645626 0.135827
H11   H     H_    0.472867 0.502721 0.685840 0.099230
H12   H     H_    0.546277 0.329738 0.837215 0.115132
H13   H     H_    0.437994 0.540876 0.197009 0.165872
H14   H     H_    0.280464 0.843890 0.314852 0.182734
H15   H     H_    0.098393 0.168792 0.371355 0.119215
H16   H     H_    0.987024 0.874364 0.327657 0.169896
H17   H     H_    0.037345 0.986153 0.153335 0.159809
H18   H     H_    0.623866 0.478612 0.185351 0.174668
H19   H     H_    0.563993 0.418662 0.378647 0.130775
H20   H     H_    0.219603 0.334674 0.820597 0.084275
H21   H     H_    0.181039 0.009170 0.782423 0.110761
H22   H     H_    0.587480 0.585019 0.801755 0.115452
H23   H     H_    0.029918 0.721789 0.831204 0.134664
H24   H     H_    0.058488 0.710017 0.704333 0.138972
H25   H     H_    0.405881 0.526931 0.322615 0.167936
H26   H     H_    0.323752 0.865661 0.186452 0.179770
H27   H     H_    0.431426 0.907117 0.805833 0.150832
H28   H     H_    0.623086 0.100432 0.322295 0.171328
O1    O     O_R   0.766500 0.250040 0.579790 -0.527535
O2    O     O_R   0.413330 0.603360 0.920440 -0.487515
O3    O     O_R   0.676110 0.626250 0.926750 -0.512620
O4    O     O_R   0.798570 0.516780 0.574780 -0.465883
O5    O     O_R   0.895350 0.809870 0.080950 -0.542227
O6    O     O_R   0.872490 0.049760 0.073800 -0.518829
O7    O     O_R   0.691680 0.088070 0.079070 -0.514485
O8    O     O_R   0.451720 0.825250 0.074050 -0.506650
O9    O     O_R   0.413580 0.606370 0.080960 -0.509095
O10   O     O_R   0.676340 0.629040 0.075550 -0.506685
O11   O     O_3   0.666780 0.833290 0.000090 -0.260934
O12   O     O_R   0.218690 0.701900 0.425960 -0.503127
O13   O     O_R   0.984000 0.732950 0.581090 -0.544688
O14   O     O_R   0.218600 0.700890 0.574760 -0.518644
O15   O     O_R   0.249390 0.515350 0.579940 -0.498156
O16   O     O_R   0.982790 0.280900 0.573700 -0.513895
O17   O     O_R   0.766600 0.251130 0.419260 -0.507421
O18   O     O_R   0.798660 0.517790 0.425980 -0.505102
O19   O     O_R   0.984100 0.734040 0.420570 -0.518698
O20   O     O_2   0.587218 0.589137 0.599186 -0.501097
O21   O     O_2   0.208794 0.255163 0.283925 -0.471353
O22   O     O_2   0.159120 0.970345 0.224411 -0.504243
O23   O     O_R   0.249490 0.516440 0.419420 -0.505815
O24   O     O_2   0.524705 0.310397 0.289030 -0.476446
O25   O     O_2   0.135053 0.403416 0.893775 -0.502510
O26   O     O_R   0.982880 0.281910 0.424890 -0.521797
O27   O     O_3   0.999980 0.499990 0.499980 -0.253388
O28   O     O_R   0.895110 0.806860 0.920430 -0.518881
O29   O     O_R   0.872260 0.046970 0.925000 -0.500509
O30   O     O_R   0.691430 0.085060 0.918550 -0.522973
O31   O     O_R   0.451490 0.822460 0.925250 -0.512671

loop_
_geom_bond_atom_site_label_1
_geom_bond_atom_site_label_2
_ccdc_geom_bond_type
C40   O23   A    
C4    O14   A    
C6    C45   A    
Cr1   O1    S    
C27   C29   A    
Cr5   O7    S    
C27   H28   S    
C35   C36   A    
Cr4   O6    S    
C58   H20   S    
C1    O4    A    
C42   O29   A    
C7    C8    A    
C39   C41   A    
C27   C33   A    
C20   H25   S    
C12   C23   A    
C29   C30   A    
C18   H24   S    
C36   C37   A    
C15   C44   S    
C5    C11   A    
C30   C31   A    
C43   C52   S    
C60   H5    S    
C33   C49   S    
Cr3   O26   S    
C39   C57   S    
C28   C41   S    
C8    H9    S    
Cr3   O23   S    
C57   H19   S    
C18   C19   A    
C9    H12   S    
Cr4   O29   S    
C59   H21   S    
Cr6   O3    S    
Cr2   O19   S    
C44   O3    A    
C31   H3    S    
C31   C32   A    
C8    C9    A    
C54   O21   D    
C47   O9    A    
Cr1   O27   S    
C9    C10   A    
C13   C53   S    
C42   O30   A    
C2    C61   A    
C7    H10   S    
C12   C58   S    
C22   C47   S    
C59   C60   A    
C21   C22   A    
C25   H14   S    
Cr5   O11   S    
C2    C11   A    
C43   O31   A    
C32   C54   S    
C12   C52   A    
Cr6   O9    S    
C50   C51   A    
C29   H2    S    
C38   C39   A    
C48   O5    A    
C46   O6    A    
C4    C34   S    
C1    C19   S    
C47   O8    A    
C13   C19   A    
C38   H18   S    
C51   C52   A    
C23   H4    S    
C24   C25   A    
Cr1   O18   S    
C5    C7    A    
C35   H16   S    
Cr6   O10   S    
Cr3   O16   S    
C1    O13   A    
C25   C26   A    
C3    C45   A    
Cr5   O31   S    
C60   C61   A    
C42   C45   S    
Cr2   O14   S    
C14   H22   S    
C37   C38   A    
C46   O7    A    
C3    C56   A    
Cr3   O15   S    
C48   O10   A    
C23   C34   A    
C49   O26   A    
C58   O25   D    
C17   C18   A    
C16   O1    A    
C37   C48   S    
C28   O19   A    
C49   O17   A    
C40   O12   A    
C22   C24   A    
Cr2   O12   S    
Cr4   O11   S    
C54   H15   S    
Cr2   O27   S    
C55   O22   D    
C15   C17   A    
C4    O15   A    
C56   H6    S    
Cr5   O8    S    
C30   C46   S    
C17   H23   S    
C43   O2    A    
Cr4   O5    S    
C6    C10   A    
C34   C50   A    
Cr5   O30   S    
Cr6   O11   S    
C61   H7    S    
C44   O28   A    
C56   C59   A    
C57   O24   D    
C32   C33   A    
C2    C3    A    
C55   H17   S    
C36   C55   S    
C24   H26   S    
C26   C40   S    
C5    C6    A    
C20   C26   A    
Cr3   O27   S    
C21   H13   S    
C53   H11   S    
Cr4   O28   S    
C35   C41   A    
C11   C16   S    
C28   O18   A    
Cr6   O2    S    
C51   H27   S    
Cr1   O4    S    
Cr1   O17   S    
C20   C21   A    
C14   C15   A    
Cr2   O13   S    
C13   C14   A    
C50   H1    S    
C53   O20   D    
C16   O16   A    
C10   H8    S    
