data_mof_unit_59.cif
_audit_creation_date              2012-10-26T20:21:31-0400
_audit_creation_method            fapswitch 2.2
_symmetry_space_group_name_H-M    P1
_symmetry_Int_Tables_number       1
_space_group_crystal_system       triclinic
_cell_length_a                    10.842264
_cell_length_b                    9.57653
_cell_length_c                    11.704931
_cell_angle_alpha                 90.079067
_cell_angle_beta                  91.395376
_cell_angle_gamma                 91.153397
_cell_volume                      1214.72911444

loop_
_atom_site_label
_atom_site_type_symbol
_atom_type_description
_atom_site_fract_x
_atom_site_fract_y
_atom_site_fract_z
_atom_type_partial_charge
C1    C     C_R   0.262598 0.499096 0.500699 0.597777
C2    C     C_R   0.941094 0.612491 0.550220 0.230947
C3    C     C_R   0.932602 0.403640 0.429454 0.207692
C4    C     C_R   0.069109 0.601231 0.562332 0.219166
C5    C     C_R   0.872232 0.506488 0.491949 -0.058012
C6    C     C_R   0.128946 0.499444 0.498831 -0.056957
C7    C     C_R   0.430971 0.072919 0.420814 0.180637
C8    C     C_R   0.564930 0.927265 0.582234 0.161518
C9    C     C_R   0.567194 0.076691 0.580538 0.173986
C10   C     C_R   0.431799 0.923415 0.420148 0.174426
C11   C     C_3   0.136630 0.388743 0.247986 -0.092136
C12   C     C_R   0.737844 0.501771 0.497334 0.603494
C13   C     C_3   0.882684 0.836677 0.520018 -0.118851
C14   C     C_3   0.873164 0.175548 0.404936 -0.070441
C15   C     C_3   0.160193 0.812336 0.616113 -0.048195
C16   C     C_R   0.499540 0.499905 0.284070 0.544888
C17   C     C_R   0.500099 0.500083 0.715929 0.560720
C18   C     C_1   0.499239 0.499762 0.162378 -0.019621
C19   C     C_1   0.499768 0.500197 0.837623 -0.004151
C20   C     C_1   0.499203 0.499854 0.059898 -0.043030
C21   C     C_1   0.499449 0.500080 0.940100 -0.036693
C22   C     C_R   0.061615 0.407661 0.426067 0.201753
Cu1   Cu    Cu3+1 0.500000 0.640660 0.500000 1.014818
Cu2   Cu    Cu3+1 0.500000 0.359340 0.500000 1.040939
H1    H     H_    0.185088 0.318443 0.189382 0.139823
H2    H     H_    0.163668 0.828203 0.522046 0.093732
H3    H     H_    0.252467 0.842744 0.652177 0.143785
H4    H     H_    0.092723 0.883344 0.653928 0.138500
H5    H     H_    0.265112 0.111872 0.346889 0.236122
H6    H     H_    0.385496 0.121584 0.257290 0.200595
H7    H     H_    0.716904 0.890573 0.682223 0.232841
H8    H     H_    0.581604 0.877994 0.749231 0.206642
H9    H     H_    0.731662 0.127281 0.657468 0.190100
H10   H     H_    0.609341 0.127014 0.745267 0.210772
H11   H     H_    0.387958 0.874697 0.255530 0.209708
H12   H     H_    0.194435 0.485542 0.258416 0.107250
H13   H     H_    0.266711 0.871292 0.344616 0.186914
H14   H     H_    0.045926 0.413339 0.207034 0.146118
H15   H     H_    0.793412 0.838720 0.472048 0.156012
H16   H     H_    0.957985 0.835824 0.456820 0.064854
H17   H     H_    0.892477 0.936092 0.568209 0.090668
H18   H     H_    0.798550 0.109477 0.365254 0.125661
H19   H     H_    0.860423 0.173195 0.498963 0.098185
H20   H     H_    0.962452 0.128344 0.383668 0.146765
N1    N     N_R   0.500000 0.852070 0.500000 -0.199921
N2    N     N_R   0.500000 0.147930 0.500000 -0.189583
N3    N     N_3   0.356533 0.146251 0.339259 -0.537515
N4    N     N_3   0.625894 0.854522 0.673444 -0.534532
N5    N     N_3   0.639222 0.154109 0.663878 -0.561146
N6    N     N_3   0.359409 0.846064 0.337000 -0.569664
O1    O     O_R   0.319640 0.618740 0.499990 -0.481964
O2    O     O_3   0.883996 0.724551 0.599287 -0.519127
O3    O     O_3   0.864605 0.311759 0.360034 -0.536514
O4    O     O_3   0.133475 0.673275 0.648751 -0.533095
O5    O     O_R   0.680360 0.381260 0.500010 -0.457937
O6    O     O_R   0.680360 0.618740 0.500010 -0.469164
O7    O     O_R   0.319640 0.381260 0.499990 -0.452339
O8    O     O_R   0.500010 0.618790 0.337200 -0.482632
O9    O     O_R   0.499990 0.381210 0.662800 -0.480468
O10   O     O_R   0.499990 0.618790 0.662800 -0.462488
O11   O     O_R   0.500010 0.381210 0.337200 -0.463955
O12   O     O_3   0.121580 0.319639 0.353198 -0.557674

loop_
_geom_bond_atom_site_label_1
_geom_bond_atom_site_label_2
_ccdc_geom_bond_type
H8    N4    S    
Cu1   O8    S    
C2    C4    A    
Cu1   Cu2   S    
C8    N4    S    
Cu2   O11   S    
Cu1   N1    S    
C1    O7    A    
C7    C10   A    
C13   O2    S    
C1    O1    A    
Cu1   O1    S    
C14   H18   S    
C11   O12   S    
Cu2   N2    S    
C14   H19   S    
C10   N1    A    
C13   H17   S    
Cu1   O6    S    
C16   C18   S    
C16   O8    A    
Cu2   O5    S    
H13   N6    S    
C3    O3    S    
C15   H4    S    
C12   O6    A    
C2    O2    S    
C10   N6    S    
H5    N3    S    
Cu2   O9    S    
C4    C6    A    
C11   H12   S    
C19   C21   T    
C17   O9    A    
H11   N6    S    
C18   C20   T    
H7    N4    S    
C15   H2    S    
Cu1   O10   S    
C13   H15   S    
C12   O5    A    
C22   O12   S    
C16   O11   A    
C11   H1    S    
C17   O10   A    
H9    N5    S    
C1    C6    S    
C2    C5    A    
C7    N2    A    
C3    C5    A    
H6    N3    S    
C9    N2    A    
C14   O3    S    
C9    N5    S    
C20   C21   S    
H10   N5    S    
C14   H20   S    
C15   O4    S    
C5    C12   S    
C8    N1    A    
C8    C9    A    
C3    C22   A    
C17   C19   S    
C4    O4    S    
C15   H3    S    
C7    N3    S    
Cu2   O7    S    
C13   H16   S    
C11   H14   S    
C6    C22   A    
