data_mof_unit_4588.cif
_audit_creation_date              2012-10-26T20:00:51-0400
_audit_creation_method            fapswitch 2.2
_symmetry_space_group_name_H-M    P1
_symmetry_Int_Tables_number       1
_space_group_crystal_system       triclinic
_cell_length_a                    11.706103
_cell_length_b                    12.986441
_cell_length_c                    13.448002
_cell_angle_alpha                 92.595607
_cell_angle_beta                  76.758569
_cell_angle_gamma                 100.192812
_cell_volume                      1958.5898895

loop_
_atom_site_label
_atom_site_type_symbol
_atom_type_description
_atom_site_fract_x
_atom_site_fract_y
_atom_site_fract_z
_atom_type_partial_charge
C1    C     C_R   0.521443 0.700747 0.500663 0.553434
C2    C     C_R   0.397609 0.487947 0.807932 -0.001079
C3    C     C_R   0.469099 0.185710 0.489826 0.015207
C4    C     C_R   0.436143 0.491459 0.695773 0.537201
C5    C     C_R   0.536116 0.813926 0.494523 0.002789
C6    C     C_R   0.660226 0.979877 0.440254 -0.130380
C7    C     C_R   0.648436 0.873012 0.455219 -0.147533
C8    C     C_R   0.436175 0.862583 0.523083 -0.128076
C9    C     C_R   0.447336 0.969906 0.510439 0.024399
C10   C     C_R   0.559698 0.029436 0.465719 0.075549
C11   C     C_R   0.568853 0.136961 0.448141 0.102030
C12   C     C_R   0.445366 0.485239 0.975814 0.034032
C13   C     C_R   0.358664 0.125451 0.533412 -0.162192
C14   C     C_R   0.347297 0.018008 0.541697 -0.149701
C15   C     C_R   0.942525 0.590176 0.603687 -0.174303
C16   C     C_R   0.480203 0.299344 0.494728 0.535524
C17   C     C_R   0.824279 0.581820 0.592573 0.046200
C18   C     C_R   0.858958 0.463590 0.454586 0.055443
C19   C     C_R   0.977997 0.469828 0.463162 -0.002480
C20   C     C_R   0.021125 0.533387 0.538426 0.000412
C21   C     C_R   0.141446 0.538164 0.545788 0.034809
C22   C     C_R   0.171680 0.417735 0.407403 0.156985
C23   C     C_R   0.470681 0.460546 0.870016 0.023840
C24   C     C_R   0.053956 0.413163 0.397892 -0.153045
C25   C     C_R   0.563083 0.502026 0.304331 0.536913
C26   C     C_R   0.714851 0.415960 0.044966 -0.134050
C27   C     C_R   0.596608 0.488728 0.193623 -0.002582
C28   C     C_R   0.290982 0.522915 0.853823 -0.132711
C29   C     C_R   0.259512 0.536117 0.958838 -0.142418
C30   C     C_R   0.336201 0.519612 0.019318 -0.122337
C31   C     C_3   0.242066 0.350406 0.331305 -0.331196
C32   C     C_R   0.529667 0.473524 0.033958 0.028474
C33   C     C_R   0.631172 0.428131 0.988371 0.049764
C34   C     C_R   0.646785 0.393247 0.887543 -0.143095
C35   C     C_R   0.567145 0.407955 0.829570 -0.125069
C36   C     C_R   0.516806 0.506395 0.136045 -0.137329
C37   C     C_R   0.697247 0.445503 0.147456 -0.142413
Cu1   Cu    Cu3+1 0.386470 0.492430 0.492410 0.921536
Cu2   Cu    Cu3+1 0.613530 0.507570 0.507590 0.932307
H1    H     H_    0.759372 0.430618 0.191453 0.115469
H2    H     H_    0.764425 0.625766 0.643343 0.132720
H3    H     H_    0.721176 0.354496 0.853102 0.111162
H4    H     H_    0.825750 0.414246 0.396732 0.122042
H5    H     H_    0.792222 0.380994 0.010626 0.104886
H6    H     H_    0.444428 0.545199 0.173638 0.120541
H7    H     H_    0.232892 0.542758 0.808149 0.123234
H8    H     H_    0.305835 0.532209 0.100061 0.100075
H9    H     H_    0.176568 0.562470 0.993429 0.115182
H10   H     H_    0.580956 0.374891 0.753488 0.154217
H11   H     H_    0.326836 0.338901 0.345533 0.193854
H12   H     H_    0.281386 0.161945 0.563673 0.136389
H13   H     H_    0.189180 0.270478 0.330600 0.088663
H14   H     H_    0.259184 0.384066 0.253749 0.102093
H15   H     H_    0.703141 0.149991 0.321289 0.204868
H16   H     H_    0.659613 0.260454 0.355478 0.228159
H17   H     H_    0.748422 0.023010 0.409533 0.132936
H18   H     H_    0.261071 0.972994 0.575919 0.111111
H19   H     H_    0.726629 0.836083 0.433247 0.131497
H20   H     H_    0.349571 0.816773 0.555227 0.113662
H21   H     H_    0.175484 0.587658 0.603135 0.109623
H22   H     H_    0.971856 0.640355 0.662784 0.086196
H23   H     H_    0.021299 0.364080 0.339338 0.091008
N1    N     N_R   0.215880 0.481050 0.481000 -0.215978
N2    N     N_R   0.784100 0.518950 0.519000 -0.232001
N3    N     N_3   0.677295 0.194444 0.386727 -0.629919
O1    O     O_R   0.419710 0.645650 0.494620 -0.503035
O2    O     O_R   0.611450 0.658430 0.507430 -0.501971
O3    O     O_R   0.357340 0.490460 0.641450 -0.505492
O4    O     O_R   0.549080 0.503250 0.654260 -0.510811
O5    O     O_R   0.388550 0.341570 0.492570 -0.523829
O6    O     O_R   0.580290 0.354350 0.505380 -0.485868
O7    O     O_R   0.450920 0.496750 0.345740 -0.516288
O8    O     O_R   0.642660 0.509540 0.358550 -0.509259

loop_
_geom_bond_atom_site_label_1
_geom_bond_atom_site_label_2
_ccdc_geom_bond_type
Cu1   O5    S    
C19   C20   A    
C34   H3    S    
C31   H13   S    
C26   H5    S    
H15   N3    S    
Cu2   N2    S    
C12   C23   A    
C28   H7    S    
C1    C5    S    
C32   C36   A    
C28   C29   A    
C34   C35   A    
C37   H1    S    
C17   N2    A    
Cu1   Cu2   S    
C18   C19   A    
C22   N1    A    
C13   H12   S    
Cu1   O1    S    
C8    C9    A    
C35   H10   S    
C9    C10   A    
C7    H19   S    
C3    C13   A    
C13   C14   A    
C12   C32   A    
C16   O6    A    
C4    O4    A    
H16   N3    S    
C1    O1    A    
C15   H22   S    
C15   C20   A    
Cu1   O7    S    
C22   C31   S    
C29   H9    S    
C30   H8    S    
C16   O5    A    
C21   H21   S    
C4    O3    A    
C2    C4    S    
C9    C14   A    
C29   C30   A    
C26   C33   A    
C33   C34   A    
Cu2   O4    S    
C36   H6    S    
C25   O7    A    
C31   H14   S    
Cu1   O3    S    
C23   C35   A    
C22   C24   A    
C31   H11   S    
C5    C7    A    
Cu1   N1    S    
C15   C17   A    
C14   H18   S    
C24   H23   S    
C12   C30   A    
Cu2   O2    S    
C6    H17   S    
C6    C10   A    
C5    C8    A    
C26   C37   A    
C6    C7    A    
C27   C36   A    
C25   C27   S    
C32   C33   A    
C19   C24   A    
C8    H20   S    
C18   H4    S    
C18   N2    A    
C27   C37   A    
C1    O2    A    
C25   O8    A    
Cu2   O8    S    
C17   H2    S    
C21   N1    A    
C3    C11   A    
C10   C11   A    
C20   C21   A    
C2    C23   A    
Cu2   O6    S    
C2    C28   A    
C3    C16   S    
C11   N3    S    
