data_mof_unit_1203.cif
_audit_creation_date              2012-12-11T17:47:22-0500
_audit_creation_method            fapswitch 2.2
_symmetry_space_group_name_H-M    P1
_symmetry_Int_Tables_number       1
_space_group_crystal_system       triclinic
_cell_length_a                    14.887625
_cell_length_b                    14.937829
_cell_length_c                    15.192937
_cell_angle_alpha                 110.678008
_cell_angle_beta                  108.957388
_cell_angle_gamma                 108.861896
_cell_volume                      2597.64365546

loop_
_atom_site_label
_atom_site_type_symbol
_atom_type_description
_atom_site_fract_x
_atom_site_fract_y
_atom_site_fract_z
_atom_type_partial_charge
C1    C     C_R   0.905569 0.193939 0.990877 -0.134695
C2    C     C_R   0.027981 0.754019 0.941132 -0.128719
C3    C     C_R   0.296564 0.871152 0.298066 0.067905
C4    C     C_R   0.675765 0.212352 0.672354 0.050503
C5    C     C_R   0.325760 0.500659 0.048492 0.027879
C6    C     C_R   0.692250 0.498388 0.055242 0.032676
C7    C     C_R   0.034658 0.497484 0.321074 0.044944
C8    C     C_R   0.049793 0.499219 0.693508 0.060551
C9    C     C_R   0.938830 0.863083 0.843870 -0.249287
C10   C     C_R   0.829403 0.959605 0.918013 -0.222605
C11   C     C_R   0.044084 0.034504 0.666689 -0.290670
C12   C     C_R   0.851351 0.975010 0.212111 -0.339742
C13   C     C_R   0.977827 0.976934 0.697341 0.545837
C14   C     C_R   0.886497 0.965392 0.135486 0.555870
C15   C     C_R   0.668415 0.331419 0.199229 -0.124501
C16   C     C_R   0.385863 0.688590 0.884705 -0.129454
C17   C     C_R   0.774032 0.397275 0.288496 -0.121780
C18   C     C_R   0.298129 0.611320 0.780230 -0.131348
C19   C     C_R   0.839191 0.350255 0.313216 0.127518
C20   C     C_R   0.254280 0.645908 0.710387 0.116822
C21   C     C_R   0.797288 0.236741 0.247604 -0.191445
C22   C     C_R   0.304629 0.758513 0.744312 -0.169403
C23   C     C_R   0.295292 0.805874 0.205732 -0.133417
C24   C     C_R   0.684467 0.241031 0.774499 -0.126495
C25   C     C_R   0.692015 0.171449 0.157734 -0.102372
C26   C     C_R   0.394515 0.835470 0.848179 -0.106395
C27   C     C_R   0.627471 0.218794 0.133606 -0.108708
C28   C     C_R   0.433999 0.800735 0.918945 -0.101966
C29   C     C_R   0.958454 0.422226 0.503235 -0.261548
C30   C     C_R   0.142366 0.563622 0.511979 -0.255498
C31   C     C_R   0.056294 0.494734 0.600461 0.068002
C32   C     C_R   0.043158 0.491428 0.414887 0.070525
C33   C     C_R   0.150318 0.566220 0.606606 0.021282
C34   C     C_R   0.949970 0.419483 0.409889 0.007073
C35   C     C_R   0.021874 0.001727 0.804952 -0.054430
C36   C     C_R   0.813942 0.879147 0.026963 -0.031494
C37   C     C_R   0.201423 0.123342 0.843837 -0.142323
C38   C     C_R   0.675110 0.816004 0.073853 -0.130436
C39   C     C_R   0.080482 0.962156 0.373866 -0.116503
C40   C     C_R   0.775861 0.995096 0.472089 -0.112097
C41   C     C_R   0.185537 0.015648 0.390260 -0.134836
C42   C     C_R   0.687682 0.005573 0.477079 -0.122394
C43   C     C_R   0.274523 0.028116 0.473480 0.101526
C44   C     C_R   0.666086 0.084220 0.459290 0.092041
C45   C     C_R   0.224383 0.407995 0.974155 -0.149720
C46   C     C_R   0.785761 0.590904 0.090416 -0.154275
C47   C     C_R   0.258313 0.995297 0.545716 -0.182442
C48   C     C_R   0.729639 0.147412 0.430151 -0.178130
C49   C     C_R   0.152643 0.941219 0.528228 -0.120270
C50   C     C_R   0.821762 0.140723 0.431904 -0.126076
C51   C     C_R   0.063655 0.923374 0.441396 -0.144806
C52   C     C_R   0.845774 0.065994 0.454717 -0.143684
C53   C     C_R   0.476529 0.134946 0.564253 -0.243737
C54   C     C_R   0.475291 0.026069 0.372880 -0.230158
C55   C     C_R   0.575478 0.149521 0.566638 0.070515
C56   C     C_R   0.379112 0.988300 0.377381 0.053138
C57   C     C_R   0.574073 0.096042 0.467534 0.022127
C58   C     C_R   0.377268 0.052523 0.470381 0.032286
C59   C     C_R   0.155729 0.107430 0.739741 -0.153253
C60   C     C_R   0.746132 0.900327 0.181180 -0.134170
C61   C     C_R   0.842147 0.882510 0.943727 0.088010
C62   C     C_R   0.949138 0.957989 0.842976 0.123360
C63   C     C_R   0.134569 0.071565 0.877103 -0.231808
C64   C     C_R   0.707891 0.805366 0.996288 -0.234227
C65   C     C_R   0.903922 0.837188 0.911086 0.069783
C66   C     C_R   0.899060 0.012159 0.887675 0.083512
C67   C     C_R   0.055017 0.591495 0.314105 -0.141859
C68   C     C_R   0.998238 0.408048 0.698203 -0.176593
C69   C     C_3   0.491208 0.393444 0.017671 -0.182510
C70   C     C_3   0.536341 0.603706 0.116787 -0.162221
C71   C     C_3   0.433414 0.443896 0.964575 -0.147922
C72   C     C_3   0.595099 0.553275 0.170212 -0.156659
C73   C     C_3   0.427047 0.500508 0.066764 0.197053
C74   C     C_3   0.599968 0.496875 0.067366 0.193696
C75   C     C_3   0.483309 0.449735 0.120098 -0.163075
C76   C     C_3   0.542621 0.546820 0.014240 -0.151172
C77   C     C_R   0.315392 0.592777 0.065316 -0.131755
C78   C     C_R   0.695624 0.407296 0.997211 -0.127138
C79   C     C_R   0.971472 0.406759 0.218562 -0.106142
C80   C     C_R   0.084836 0.591665 0.787784 -0.129042
C81   C     C_R   0.207947 0.803754 0.299500 -0.140374
C82   C     C_R   0.780410 0.249887 0.687785 -0.114592
C83   C     C_R   0.995536 0.195367 0.899647 -0.129184
C84   C     C_R   0.933063 0.750448 0.029513 -0.110030
C85   C     C_R   0.933596 0.129302 0.925354 0.052801
C86   C     C_R   0.950415 0.780641 0.957360 0.081597
H1    H     H_    0.846282 0.166809 0.015109 0.088710
H2    H     H_    0.064185 0.768116 0.893177 0.093091
H3    H     H_    0.008941 0.022752 0.586612 0.139466
H4    H     H_    0.906190 0.039525 0.295623 0.124273
H5    H     H_    0.287797 0.178644 0.899962 0.122504
H6    H     H_    0.593672 0.760620 0.050862 0.113609
H7    H     H_    0.545767 0.168297 0.064234 0.094425
H8    H     H_    0.501209 0.860964 0.000442 0.106983
H9    H     H_    0.618186 0.367659 0.181368 0.119270
H10   H     H_    0.414274 0.660796 0.939216 0.108561
H11   H     H_    0.804750 0.484466 0.338651 0.101467
H12   H     H_    0.261170 0.524941 0.755577 0.111079
H13   H     H_    0.847127 0.199510 0.264157 0.096078
H14   H     H_    0.271885 0.787135 0.692066 0.107235
H15   H     H_    0.660638 0.084298 0.106812 0.110137
H16   H     H_    0.431839 0.922290 0.874767 0.100966
H17   H     H_    0.885507 0.372754 0.501536 0.136795
H18   H     H_    0.212626 0.618471 0.513825 0.134436
H19   H     H_    0.456110 0.410358 0.163293 0.115318
H20   H     H_    0.567359 0.582629 0.967718 0.118384
H21   H     H_    0.341757 0.832371 0.169425 0.088050
H22   H     H_    0.618930 0.224708 0.793115 0.090878
H23   H     H_    0.169494 0.088829 0.959736 0.146270
H24   H     H_    0.650092 0.741798 0.912288 0.145853
H25   H     H_    0.981415 0.878303 0.425312 0.097616
H26   H     H_    0.916857 0.060794 0.455924 0.107518
H27   H     H_    0.011604 0.945128 0.305164 0.140545
H28   H     H_    0.789798 0.931780 0.480858 0.170799
H29   H     H_    0.196255 0.038961 0.332930 0.140692
H30   H     H_    0.636055 0.952438 0.494362 0.126315
H31   H     H_    0.325571 0.002627 0.609269 0.113096
H32   H     H_    0.711414 0.205634 0.412486 0.127410
H33   H     H_    0.139384 0.909877 0.579785 0.118810
H34   H     H_    0.875781 0.193950 0.417100 0.116428
H35   H     H_    0.475865 0.180910 0.637154 0.124103
H36   H     H_    0.477772 0.985062 0.299962 0.124258
H37   H     H_    0.974747 0.821534 0.805947 0.114111
H38   H     H_    0.781462 0.992742 0.942920 0.114623
H39   H     H_    0.365795 0.399103 0.879760 0.111099
H40   H     H_    0.664801 0.597584 0.253632 0.112268
H41   H     H_    0.475628 0.307720 0.977426 0.097611
H42   H     H_    0.554477 0.690118 0.159753 0.100025
H43   H     H_    0.205182 0.323085 0.939484 0.124113
H44   H     H_    0.812605 0.674977 0.147591 0.107372
H45   H     H_    0.098053 0.675911 0.379674 0.103604
H46   H     H_    0.974143 0.324177 0.643659 0.119087
H47   H     H_    0.379205 0.678037 0.114374 0.093254
H48   H     H_    0.640842 0.322608 0.968651 0.090465
H49   H     H_    0.941399 0.321450 0.195117 0.099053
H50   H     H_    0.137547 0.676284 0.814548 0.107562
H51   H     H_    0.177718 0.824488 0.354203 0.134228
H52   H     H_    0.807313 0.251819 0.631388 0.125870
H53   H     H_    0.013599 0.170679 0.835157 0.125402
H54   H     H_    0.878273 0.756102 0.059899 0.110559
H55   H     H_    0.206895 0.150940 0.715420 0.142717
H56   H     H_    0.718882 0.907446 0.239868 0.148157
N1    N     N_R   0.947560 0.293820 0.002910 -0.041382
N2    N     N_R   0.052440 0.706180 0.997090 -0.043466
N3    N     N_R   0.208960 0.706170 0.152110 -0.039335
N4    N     N_R   0.791040 0.293830 0.847890 -0.041093
N5    N     N_R   0.154330 0.443160 0.946140 -0.039732
N6    N     N_R   0.845670 0.556840 0.053860 -0.040788
N7    N     N_R   0.002190 0.556820 0.208880 -0.040529
N8    N     N_R   0.997810 0.443180 0.791120 -0.039476
N9    N     N_R   0.210550 0.556810 0.002910 -0.037911
N10   N     N_R   0.789450 0.443190 0.997090 -0.037933
N11   N     N_R   0.945970 0.443180 0.152110 -0.039304
N12   N     N_R   0.054030 0.556820 0.847890 -0.039887
N13   N     N_R   0.151530 0.706170 0.208880 -0.042264
N14   N     N_R   0.848470 0.293830 0.791120 -0.043351
N15   N     N_R   0.004980 0.293810 0.946140 -0.043434
N16   N     N_R   0.995020 0.706190 0.053860 -0.045260
Ni1   Ni    Ni4+2 0.869690 0.369690 0.000000 0.217244
Ni2   Ni    Ni4+2 0.130310 0.630310 0.000000 0.214234
Ni3   Ni    Ni4+2 0.001390 0.369680 0.869810 0.218782
Ni4   Ni    Ni4+2 0.998610 0.630320 0.130190 0.215179
O1    O     O_3   0.868078 0.903075 0.625543 -0.649909
C87   C     C_3   0.856396 0.800292 0.561560 0.236238
H57   H     H_    0.900687 0.773700 0.612414 0.091461
H58   H     H_    0.887374 0.804226 0.504778 0.078285
C88   C     C_3   0.735988 0.713466 0.495451 -0.898967
H59   H     H_    0.689288 0.734915 0.440702 0.244814
H60   H     H_    0.726039 0.631938 0.445937 0.204123
H61   H     H_    0.702820 0.708205 0.550375 0.266856
O2    O     O_3   0.992929 0.034447 0.165146 -0.645204
C89   C     C_3   0.018775 0.145714 0.216377 0.255299
H62   H     H_    0.038124 0.176544 0.302018 0.093908
H63   H     H_    0.950766 0.156845 0.173097 0.073836
C90   C     C_3   0.119254 0.215023 0.216223 -0.869460
H64   H     H_    0.103977 0.184855 0.131898 0.258157
H65   H     H_    0.138648 0.302331 0.253614 0.212101
H66   H     H_    0.190264 0.209934 0.263264 0.248307

loop_
_geom_bond_atom_site_label_1
_geom_bond_atom_site_label_2
_ccdc_geom_bond_type
C16   C28   A    
C39   C51   A    
O2    C89   S    
C1    H1    S    
C67   N7    A    
C2    N2    A    
C3    C23   A    
O1    C87   S    
C77   N9    A    
C66   C85   S    
C83   H53   S    
C78   N10   A    
C65   C86   S    
C90   H65   S    
C81   H51   S    
C23   N3    A    
C42   C44   A    
C50   H34   S    
C15   H9    S    
C12   H4    S    
C87   H57   S    
C19   C21   A    
C84   C86   A    
C13   C35   A    
C10   H38   S    
C14   C36   A    
C71   C76   S    
C21   H13   S    
C6    C78   A    
C52   H26   S    
C38   H6    S    
C29   H17   S    
C7    C67   A    
C28   H8    S    
C2    C86   A    
C69   C71   S    
N7    N11   A    
C13   O1    S    
C40   H28   S    
C43   C58   S    
C60   H56   S    
C76   H20   S    
C15   C27   A    
C46   N6    A    
N3    N13   A    
C49   C51   A    
C3    C81   A    
C50   C52   A    
C31   C33   A    
C84   N16   A    
C2    H2    S    
C24   H22   S    
N2    Ni2   S    
C43   C47   A    
C89   C90   S    
C82   N14   A    
C53   C55   A    
C54   H36   S    
N10   Ni1   S    
C41   C43   A    
C77   H47   S    
C41   H29   S    
C72   C75   S    
C11   C59   A    
C47   C49   A    
C37   C63   A    
C89   H63   S    
C6    C74   S    
C88   H61   S    
C38   C64   A    
C10   C66   A    
N13   Ni4   S    
C1    C85   A    
C54   C56   A    
C16   H10   S    
C22   H14   S    
C62   C66   A    
C9    C62   A    
N1    N15   A    
C39   C41   A    
N5    Ni3   S    
C88   H59   S    
C71   C73   S    
N3    Ni2   S    
C37   H5    S    
C90   H66   S    
C48   H32   S    
N4    Ni1   S    
C39   H27   S    
C40   C52   A    
C5    C45   A    
C29   C34   A    
C88   H60   S    
C72   H40   S    
C68   H46   S    
N11   Ni1   S    
N5    N9    A    
N12   Ni2   S    
C1    N1    A    
C79   N11   A    
C3    C56   S    
C11   H3    S    
C64   H24   S    
C90   H64   S    
C83   N15   A    
C44   C57   S    
C69   H41   S    
C23   H21   S    
C70   C73   S    
N4    N14   A    
C69   C74   S    
C16   C18   A    
N1    Ni1   S    
C48   C50   A    
C78   H48   S    
C59   H55   S    
C37   C59   A    
C22   C26   A    
C74   C76   S    
C38   C60   A    
C20   C33   S    
C9    H37   S    
C72   C74   S    
C83   C85   A    
C12   C14   A    
N14   Ni3   S    
C75   H19   S    
C55   C57   A    
C4    C55   S    
C70   C76   S    
C27   H7    S    
C10   C61   A    
C73   C75   S    
C5    C77   A    
C36   C61   S    
N15   Ni3   S    
C89   H62   S    
C7    C79   A    
C70   H42   S    
C15   C17   A    
N8    Ni3   S    
C21   C25   A    
C51   H25   S    
C7    C32   S    
C6    C46   A    
C30   C33   A    
C45   N5    A    
C8    C31   S    
C87   C88   S    
C67   H45   S    
N6    N10   A    
C20   C22   A    
C14   O2    S    
C19   C34   S    
C81   N13   A    
C46   H44   S    
C70   C72   S    
C53   C58   A    
C80   N12   A    
C25   C27   A    
C79   H49   S    
C26   C28   A    
C80   H50   S    
N6    Ni4   S    
N9    Ni2   S    
C8    C68   A    
C87   H58   S    
C29   C31   A    
C24   N4    A    
C26   H16   S    
C30   C32   A    
C11   C13   A    
C25   H15   S    
C49   H33   S    
C17   H11   S    
C4    C24   A    
C45   H43   S    
C42   H30   S    
C40   C42   A    
C17   C19   A    
C56   C58   A    
C69   C75   S    
C35   C62   S    
C18   C20   A    
C5    C73   S    
C9    C65   A    
C68   N8    A    
N16   Ni4   S    
C53   H35   S    
C12   C60   A    
C61   C65   A    
C47   H31   S    
C4    C82   A    
C84   H54   S    
C82   H52   S    
N8    N12   A    
C30   H18   S    
C8    C80   A    
C71   H39   S    
C35   C63   A    
N7    Ni4   S    
C18   H12   S    
C36   C64   A    
N2    N16   A    
C44   C48   A    
C32   C34   A    
C63   H23   S    
C54   C57   A    
