data_mof_unit_4468.cif
_audit_creation_date              2012-12-11T15:41:13-0500
_audit_creation_method            fapswitch 2.2
_symmetry_space_group_name_H-M    P1
_symmetry_Int_Tables_number       1
_space_group_crystal_system       triclinic
_cell_length_a                    15.021894
_cell_length_b                    14.838825
_cell_length_c                    15.133551
_cell_angle_alpha                 108.959007
_cell_angle_beta                  110.534865
_cell_angle_gamma                 108.445445
_cell_volume                      2611.20763754

loop_
_atom_site_label
_atom_site_type_symbol
_atom_type_description
_atom_site_fract_x
_atom_site_fract_y
_atom_site_fract_z
_atom_type_partial_charge
C1    C     C_R   0.244455 0.060389 0.968554 0.452369
C2    C     C_R   0.903010 0.738943 0.139177 0.323707
C3    C     C_R   0.267518 0.211613 0.624436 0.449555
C4    C     C_R   0.791357 0.671814 0.094390 0.454538
C5    C     C_R   0.287872 0.276179 0.728350 -0.221266
C6    C     C_R   0.715401 0.647355 0.991041 -0.235451
C7    C     C_R   0.200885 0.257944 0.748539 0.441645
C8    C     C_R   0.752319 0.688746 0.932036 0.379464
C9    C     C_R   0.096706 0.169444 0.669669 0.438565
C10   C     C_R   0.863979 0.749799 0.973124 0.375169
C11   C     C_R   0.077553 0.099750 0.567397 0.231239
C12   C     C_R   0.807162 0.010140 0.100160 0.445005
C13   C     C_R   0.940170 0.778998 0.078629 0.219523
C14   C     C_R   0.408694 0.474323 0.824512 0.418008
C15   C     C_R   0.590893 0.452212 0.901697 0.409152
C16   C     C_R   0.760187 0.224221 0.314286 0.514603
C17   C     C_R   0.193265 0.796072 0.706294 0.560303
C18   C     C_R   0.507498 0.569223 0.907506 -0.058360
C19   C     C_R   0.491060 0.364864 0.865229 -0.008492
C20   C     C_R   0.602753 0.557449 0.935295 0.064629
C21   C     C_R   0.396657 0.372096 0.810878 0.043011
C22   C     C_R   0.852730 0.484374 0.492497 0.419861
C23   C     C_R   0.790821 0.326065 0.324237 -0.009941
C24   C     C_R   0.068072 0.546563 0.537507 0.415064
C25   C     C_R   0.937595 0.578373 0.587693 0.435300
C26   C     C_R   0.983951 0.451793 0.444265 0.444696
C27   C     C_R   0.044040 0.608429 0.608681 -0.339840
C28   C     C_R   0.877061 0.422756 0.421843 -0.254526
C29   C     C_R   0.524843 0.047419 0.567808 0.342587
C30   C     C_R   0.476943 0.847041 0.406855 0.348133
C31   C     C_R   0.521598 0.039585 0.472734 0.421457
C32   C     C_R   0.477939 0.854264 0.501759 0.452686
C33   C     C_R   0.498925 0.939929 0.394805 -0.180066
C34   C     C_R   0.132830 0.704165 0.705338 -0.072480
C35   C     C_R   0.502869 0.954641 0.580509 -0.236420
C36   C     C_R   0.024612 0.002312 0.954960 0.639181
C37   C     C_R   0.062169 0.122725 0.164519 0.672431
C38   C     C_R   0.944282 0.018059 0.967645 -0.215398
C39   C     C_R   0.145577 0.109295 0.152259 -0.282256
C40   C     C_R   0.409080 0.907343 0.208868 0.459568
C41   C     C_R   0.591871 0.031097 0.778546 0.529027
C42   C     C_R   0.961895 0.075441 0.070930 -0.112136
C43   C     C_R   0.126461 0.050012 0.048401 -0.081635
C44   C     C_R   0.584894 0.293605 0.984194 -0.069540
C45   C     C_R   0.498597 0.936961 0.300089 0.070794
C46   C     C_R   0.412730 0.685517 0.940384 -0.069680
C47   C     C_R   0.589286 0.994139 0.299028 0.463915
C48   C     C_R   0.410097 0.944771 0.685443 0.509672
C49   C     C_R   0.407383 0.196081 0.885716 0.590276
C50   C     C_R   0.593275 0.776041 0.038978 0.488361
C51   C     C_R   0.760218 0.315520 0.222811 0.443453
C52   C     C_R   0.196986 0.701979 0.793423 0.468391
C53   C     C_R   0.244394 0.967065 0.058278 -0.186860
C54   C     C_R   0.804469 0.101593 0.010812 -0.101226
C55   C     C_R   0.212732 0.038188 0.037345 -0.017018
C56   C     C_R   0.501651 0.962665 0.676397 -0.055059
C57   C     C_R   0.868807 0.075763 0.074705 0.058190
C58   C     C_R   0.493071 0.288436 0.910244 0.022556
C59   C     C_R   0.505853 0.673426 0.958545 0.071654
C60   C     C_R   0.163342 0.123197 0.544392 0.293484
Cl1   Cl    Cl    0.204274 0.132856 0.906696 -0.546102
Cl2   Cl    Cl    0.696295 0.428232 0.891418 -0.468303
Cl3   Cl    Cl    0.716640 0.443485 0.461763 -0.404794
Cl4   Cl    Cl    0.203436 0.587639 0.564262 -0.414924
Cl5   Cl    Cl    0.911105 0.658602 0.679646 -0.408988
Cl6   Cl    Cl    0.012940 0.368931 0.356606 -0.428925
Cl7   Cl    Cl    0.555884 0.172035 0.671101 -0.467355
Cl8   Cl    Cl    0.450980 0.725223 0.304124 -0.448265
Cl9   Cl    Cl    0.710183 0.993029 0.367052 -0.532811
Cl10  Cl    Cl    0.282980 0.900938 0.577306 -0.442504
Cl11  Cl    Cl    0.819380 0.420686 0.198629 -0.490380
Cl12  Cl    Cl    0.867515 0.999672 0.215998 -0.567790
Cl13  Cl    Cl    0.145512 0.627184 0.849612 -0.519080
Cl14  Cl    Cl    0.141156 0.046416 0.414319 -0.455591
Cl15  Cl    Cl    0.994930 0.764850 0.267666 -0.366905
Cl16  Cl    Cl    0.370470 0.247551 0.591368 -0.407461
Cl17  Cl    Cl    0.745236 0.618502 0.168459 -0.416048
Cl18  Cl    Cl    0.220742 0.348150 0.872613 -0.393066
Cl19  Cl    Cl    0.659708 0.654593 0.800270 -0.399942
Cl20  Cl    Cl    0.307826 0.479784 0.724080 -0.516658
H1    H     H_    0.865111 0.979794 0.896115 0.209835
H2    H     H_    0.436092 0.700870 0.458452 0.398991
H3    H     H_    0.046244 0.903351 0.853514 0.336832
H4    H     H_    0.152380 0.209626 0.321284 0.370732
H5    H     H_    0.838339 0.157036 0.365286 0.392268
H6    H     H_    0.070194 0.798052 0.609198 0.369216
H7    H     H_    0.268145 0.794974 0.088168 0.351484
H8    H     H_    0.702600 0.051013 0.738947 0.346961
H9    H     H_    0.278952 0.058516 0.774922 0.373143
H10   H     H_    0.697876 0.845452 0.188492 0.400676
H11   H     H_    0.973782 0.965039 0.428435 0.424485
H12   H     H_    0.224775 0.144824 0.222555 0.193733
H13   H     H_    0.093090 0.865036 0.194405 0.412081
H14   H     H_    0.666519 0.343619 0.006626 0.240365
H15   H     H_    0.329731 0.622017 0.891944 0.229769
H16   H     H_    0.226447 0.929919 0.104629 0.214181
H17   H     H_    0.832629 0.162911 0.988943 0.229998
H18   H     H_    0.946011 0.090037 0.633413 0.401458
H19   H     H_    0.974082 0.796246 0.934319 0.371327
H20   H     H_    0.548558 0.189439 0.509464 0.416270
N1    N     N_R   0.293810 0.002730 0.945950 -0.116352
N2    N     N_R   0.443210 0.997250 0.791090 -0.151176
N3    N     N_R   0.443180 0.152110 0.945950 -0.128062
N4    N     N_R   0.556820 0.847890 0.054050 -0.118580
N5    N     N_R   0.706170 0.208950 0.152090 -0.128092
N6    N     N_R   0.293830 0.791050 0.847910 -0.133382
N7    N     N_R   0.293800 0.945910 0.002760 -0.086637
N8    N     N_R   0.706200 0.054090 0.997240 -0.082238
N9    N     N_R   0.706190 0.997270 0.054050 -0.114803
N10   N     N_R   0.706160 0.152130 0.208910 -0.142506
N11   N     N_R   0.293840 0.847870 0.791090 -0.120609
N12   N     N_R   0.443140 0.945920 0.152090 -0.145390
N13   N     N_R   0.556860 0.054080 0.847910 -0.109864
N14   N     N_R   0.556830 0.208940 0.002760 -0.092020
N15   N     N_R   0.443170 0.791060 0.997240 -0.088361
N16   N     N_R   0.556790 0.002750 0.208910 -0.135709
Ni1   Ni    Ni4+2 0.369690 0.999990 0.869700 0.281012
Ni2   Ni    Ni4+2 0.630310 0.000010 0.130300 0.275172
Ni3   Ni    Ni4+2 0.369670 0.869670 0.000000 0.254100
Ni4   Ni    Ni4+2 0.630330 0.130330 0.000000 0.292436
O1    O     O_3   0.015431 0.154062 0.695548 -0.588768
O2    O     O_3   0.698100 0.084662 0.804387 -0.710967
O3    O     O_3   0.315948 0.132173 0.784710 -0.746069
O4    O     O_3   0.683955 0.790978 0.119529 -0.712460
O5    O     O_3   0.974204 0.012378 0.492116 -0.619197
O6    O     O_3   0.049038 0.845252 0.118260 -0.721438
O7    O     O_3   0.896135 0.775095 0.905575 -0.618222
O8    O     O_3   0.539502 0.125932 0.451525 -0.687147
O9    O     O_3   0.456177 0.767329 0.521692 -0.638192
O10   O     O_3   0.998678 0.936892 0.850855 -0.629865
O11   O     O_3   0.076711 0.181755 0.264933 -0.614704
O12   O     O_3   0.813268 0.206947 0.395888 -0.645090
O13   O     O_3   0.149001 0.848892 0.660692 -0.680682
O14   O     O_3   0.307942 0.822673 0.167233 -0.657623

loop_
_geom_bond_atom_site_label_1
_geom_bond_atom_site_label_2
_ccdc_geom_bond_type
N1    N7    A    
H18   O1    S    
N5    N10   A    
C50   N4    A    
C46   C59   A    
C33   C45   S    
C14   C18   A    
C24   C27   A    
N10   Ni2   S    
C16   N10   A    
C40   N12   A    
C15   C19   A    
C46   N15   A    
C50   C59   A    
C14   C21   A    
C19   C21   A    
C24   C26   A    
C38   C42   A    
H5    O12   S    
N6    Ni3   S    
C49   O3    S    
N8    N9    A    
C48   C56   A    
C37   C42   A    
C2    C13   A    
N8    Ni4   S    
H13   O6    S    
C12   N9    A    
C34   C52   A    
C22   Cl3   S    
C29   Cl7   S    
C47   Cl9   S    
C46   H15   S    
C44   C58   A    
C22   C25   A    
C8    Cl19  S    
C9    O1    S    
C31   C33   A    
N5    Ni4   S    
C14   Cl20  S    
C3    C60   A    
C45   C47   A    
C12   Cl12  S    
C44   N14   A    
C27   C34   S    
C22   C28   A    
C53   H16   S    
H7    O14   S    
N3    Ni1   S    
C51   Cl11  S    
C31   O8    S    
C17   N11   A    
C42   C57   S    
N7    Ni3   S    
C32   O9    S    
N9    Ni2   S    
N4    Ni2   S    
N6    N11   A    
C53   C55   A    
C19   C58   S    
C39   C43   A    
C15   C20   A    
C26   Cl6   S    
C32   C35   A    
N3    N14   A    
C50   O4    S    
H3    O10   S    
C4    C6    A    
C52   Cl13  S    
C48   Cl10  S    
C5    C7    A    
H19   O7    S    
H9    O3    S    
C40   O14   S    
C49   C58   A    
C37   O11   S    
C41   O2    S    
C2    C4    A    
C41   C56   A    
C36   O10   S    
N4    N15   A    
C53   N7    A    
H6    O13   S    
C23   C51   A    
C51   N5    A    
C48   N2    A    
C25   Cl5   S    
C54   H17   S    
C23   C28   S    
H2    O9    S    
C3    Cl16  S    
C9    C11   A    
N2    Ni1   S    
C7    Cl18  S    
C13   O6    S    
H8    O2    S    
C16   C23   A    
N15   Ni3   S    
C38   H1    S    
C17   O13   S    
C17   C34   A    
C12   C57   A    
C11   C60   A    
C1    N1    A    
C39   H12   S    
N12   N16   A    
C43   C55   S    
C7    C9    A    
H11   O5    S    
C30   C33   A    
C11   O5    S    
C35   C56   S    
H20   O8    S    
H10   O4    S    
C8    C10   A    
C41   N13   A    
C3    C5    A    
C10   C13   A    
C1    Cl1   S    
C49   N3    A    
N12   Ni3   S    
C6    C8    A    
C25   C27   A    
C6    C20   S    
C29   C35   A    
H4    O11   S    
C26   C28   A    
C54   N8    A    
N11   Ni1   S    
N1    Ni1   S    
C36   C38   A    
C1    C55   A    
C4    Cl17  S    
C29   C31   A    
N2    N13   A    
C30   C32   A    
N13   Ni4   S    
C60   Cl14  S    
C47   N16   A    
C15   Cl2   S    
N16   Ni2   S    
C24   Cl4   S    
C18   C20   A    
C16   O12   S    
C30   Cl8   S    
C44   H14   S    
C52   N6    A    
C18   C59   S    
C5    C21   S    
C40   C45   A    
C37   C39   A    
C36   C43   A    
N14   Ni4   S    
C2    Cl15  S    
C10   O7    S    
C54   C57   A    
