data_mof_unit_1076.cif
_audit_creation_date              2013-03-05T15:42:50-0500
_audit_creation_method            fapswitch 2.2
_symmetry_space_group_name_H-M    P1
_symmetry_Int_Tables_number       1
_space_group_crystal_system       triclinic
_cell_length_a                    27.940172
_cell_length_b                    17.282585
_cell_length_c                    18.00927
_cell_angle_alpha                 90.127467
_cell_angle_beta                  138.056841
_cell_angle_gamma                 89.927698
_cell_volume                      5812.52253095

loop_
_atom_site_label
_atom_site_type_symbol
_atom_site_description
_atom_site_fract_x
_atom_site_fract_y
_atom_site_fract_z
_atom_type_partial_charge
C1    C     C_R   0.687868 0.898829 0.802809 -0.136491
C2    C     C_R   0.312146 0.101161 0.197138 -0.136666
C3    C     C_R   0.333196 0.923374 0.182822 -0.108090
C4    C     C_R   0.666801 0.076621 0.817178 -0.108123
C5    C     C_R   0.168010 0.422764 0.817568 -0.103706
C6    C     C_R   0.831952 0.577260 0.182426 -0.103447
C7    C     C_R   0.812258 0.398998 0.196598 -0.139974
C8    C     C_R   0.187742 0.601001 0.803402 -0.139998
H1    H     H_    0.739353 0.926620 0.855654 0.104494
H2    H     H_    0.260651 0.073387 0.144270 0.104619
H3    H     H_    0.284855 0.956021 0.117428 0.102140
H4    H     H_    0.715138 0.043966 0.882569 0.102174
H5    H     H_    0.216602 0.455245 0.882696 0.101160
H6    H     H_    0.783368 0.544764 0.117322 0.100978
H7    H     H_    0.760741 0.426646 0.143839 0.102240
H8    H     H_    0.239258 0.573350 0.856163 0.102256
N1    N     N_R   0.625380 0.928280 0.709340 -0.037448
N2    N     N_R   0.374620 0.071720 0.290660 -0.037434
N3    N     N_R   0.374620 0.928280 0.290660 -0.042264
N4    N     N_R   0.625380 0.071720 0.709340 -0.042269
N5    N     N_R   0.125380 0.428280 0.709340 -0.041440
N6    N     N_R   0.874620 0.571720 0.290660 -0.041438
N7    N     N_R   0.874620 0.428280 0.290660 -0.037310
N8    N     N_R   0.125380 0.571720 0.709340 -0.037295
C9    C     C_R   0.325179 0.104493 0.404667 -0.138561
C10   C     C_R   0.674821 0.895507 0.595331 -0.138550
C11   C     C_R   0.639656 0.070727 0.507450 -0.111174
C12   C     C_R   0.360348 0.929275 0.492556 -0.111161
C13   C     C_R   0.860550 0.570708 0.492870 -0.103000
C14   C     C_R   0.139450 0.429292 0.507130 -0.103028
C15   C     C_R   0.174877 0.604546 0.595642 -0.138477
C16   C     C_R   0.825122 0.395454 0.404355 -0.138475
H9    H     H_    0.273520 0.076706 0.340721 0.110183
H10   H     H_    0.726480 0.923294 0.659277 0.110166
H11   H     H_    0.678791 0.030554 0.531416 0.114352
H12   H     H_    0.321212 0.969448 0.468589 0.114352
H13   H     H_    0.821311 0.530675 0.468765 0.125189
H14   H     H_    0.178690 0.469324 0.531236 0.125201
H15   H     H_    0.226510 0.576742 0.659288 0.118629
H16   H     H_    0.773489 0.423258 0.340709 0.118626
N9    N     N_R   0.386100 0.070250 0.452470 -0.043733
N10   N     N_R   0.613900 0.929750 0.547530 -0.043725
N11   N     N_R   0.613900 0.070250 0.547530 -0.045408
N12   N     N_R   0.386100 0.929750 0.452470 -0.045407
N13   N     N_R   0.886100 0.570250 0.452470 -0.046002
N14   N     N_R   0.113900 0.429750 0.547530 -0.046009
N15   N     N_R   0.113900 0.570250 0.547530 -0.046823
N16   N     N_R   0.886100 0.429750 0.452470 -0.046823
C17   C     C_R   0.442457 0.834547 0.578914 -0.099932
C18   C     C_R   0.557551 0.165459 0.421097 -0.099896
C19   C     C_R   0.591536 0.803258 0.504275 -0.123489
C20   C     C_R   0.408463 0.196742 0.495723 -0.123499
C21   C     C_R   0.908393 0.303252 0.495313 -0.130150
C22   C     C_R   0.091606 0.696747 0.504681 -0.130099
C23   C     C_R   0.057311 0.334585 0.420633 -0.099414
C24   C     C_R   0.942690 0.665415 0.579367 -0.099402
H17   H     H_    0.478677 0.787853 0.632857 0.103199
H18   H     H_    0.521341 0.212161 0.367166 0.103169
H19   H     H_    0.565892 0.748059 0.483441 0.095985
H20   H     H_    0.434108 0.251941 0.516558 0.096000
H21   H     H_    0.934080 0.248068 0.516177 0.098562
H22   H     H_    0.065918 0.751931 0.483814 0.098552
H23   H     H_    0.021045 0.287865 0.366480 0.105832
H24   H     H_    0.978956 0.712135 0.633521 0.105828
N17   N     N_R   0.437800 0.869550 0.507970 -0.047647
N18   N     N_R   0.562200 0.130450 0.492030 -0.047651
N19   N     N_R   0.562200 0.869550 0.492030 -0.043171
N20   N     N_R   0.437800 0.130450 0.507970 -0.043182
N21   N     N_R   0.937800 0.369550 0.507970 -0.043604
N22   N     N_R   0.062200 0.630450 0.492030 -0.043607
N23   N     N_R   0.062200 0.369550 0.492030 -0.047432
N24   N     N_R   0.937800 0.630450 0.507970 -0.047426
C25   C     C_R   0.582172 0.168355 0.726598 -0.128225
C26   C     C_R   0.417827 0.831643 0.273403 -0.128226
C27   C     C_R   0.394945 0.193605 0.286380 -0.161968
C28   C     C_R   0.605073 0.806383 0.713586 -0.162101
C29   C     C_R   0.105040 0.693544 0.714196 -0.162403
C30   C     C_R   0.894961 0.306456 0.285804 -0.162399
C31   C     C_R   0.916851 0.668564 0.272708 -0.129871
C32   C     C_R   0.083116 0.331465 0.727278 -0.129702
H25   H     H_    0.552567 0.219544 0.708260 0.114938
H26   H     H_    0.447433 0.780455 0.291742 0.114937
H27   H     H_    0.419343 0.250385 0.314010 0.110158
H28   H     H_    0.580673 0.749604 0.685962 0.110262
H29   H     H_    0.081040 0.750497 0.686280 0.111606
H30   H     H_    0.918961 0.249503 0.313721 0.111607
H31   H     H_    0.946946 0.719185 0.291026 0.115734
H32   H     H_    0.053023 0.280841 0.708955 0.115687
N25   N     N_R   0.573690 0.128980 0.653840 -0.043969
N26   N     N_R   0.426310 0.871020 0.346160 -0.043969
N27   N     N_R   0.426310 0.128980 0.346160 -0.039274
N28   N     N_R   0.573690 0.871020 0.653840 -0.039284
N29   N     N_R   0.073690 0.628980 0.653840 -0.039563
N30   N     N_R   0.926310 0.371020 0.346160 -0.039565
N31   N     N_R   0.926310 0.628980 0.346160 -0.043091
N32   N     N_R   0.073690 0.371020 0.653840 -0.043106
C33   C     C_R   0.675778 0.823201 0.806721 0.053923
C34   C     C_R   0.324253 0.176778 0.193191 0.053999
C35   C     C_R   0.360055 0.864147 0.170540 0.034516
C36   C     C_R   0.639943 0.135850 0.829461 0.034520
C37   C     C_R   0.141556 0.363496 0.830176 0.031651
C38   C     C_R   0.858368 0.636566 0.169806 0.031720
C39   C     C_R   0.824377 0.323433 0.192257 0.051831
C40   C     C_R   0.175623 0.676566 0.807742 0.051831
C41   C     C_R   0.337131 0.183620 0.427878 0.109912
C42   C     C_R   0.662869 0.816381 0.572119 0.109850
C43   C     C_R   0.603274 0.127846 0.425202 0.082375
C44   C     C_R   0.396734 0.872159 0.574810 0.082367
C45   C     C_R   0.897236 0.627665 0.575596 0.081670
C46   C     C_R   0.102764 0.372334 0.424405 0.081680
C47   C     C_R   0.162995 0.683673 0.572906 0.109121
C48   C     C_R   0.837003 0.316326 0.427086 0.109134
Ni1   Ni    Ni4+2 0.616560 0.000000 0.627280 0.230969
Ni2   Ni    Ni4+2 0.383440 0.000000 0.372720 0.230984
Ni3   Ni    Ni4+2 0.116560 0.500000 0.627280 0.231585
Ni4   Ni    Ni4+2 0.883440 0.500000 0.372720 0.231608
Ni5   Ni    Ni4+2 0.497990 0.870580 0.500000 0.221910
Ni6   Ni    Ni4+2 0.502010 0.129420 0.500000 0.221920
Ni7   Ni    Ni4+2 0.997990 0.370580 0.500000 0.220863
Ni8   Ni    Ni4+2 0.002010 0.629420 0.500000 0.220868
C49   C     C_3   0.664005 0.225829 0.977378 -0.132308
C50   C     C_3   0.335996 0.774166 0.022625 -0.132297
C51   C     C_3   0.292123 0.274106 0.055517 -0.134303
C52   C     C_3   0.708085 0.726582 0.945050 -0.133817
C53   C     C_3   0.208439 0.776207 0.944542 -0.136492
C54   C     C_3   0.791560 0.223791 0.055457 -0.136493
C55   C     C_3   0.834819 0.723320 0.020674 -0.124864
C56   C     C_3   0.164958 0.275985 0.978619 -0.125212
C57   C     C_3   0.279154 0.750001 0.061079 -0.133465
C58   C     C_3   0.720844 0.249996 0.938920 -0.133446
C59   C     C_3   0.761926 0.698309 0.902139 -0.131957
C60   C     C_3   0.237509 0.301188 0.097404 -0.131379
C61   C     C_3   0.735982 0.200326 0.096392 -0.136363
C62   C     C_3   0.264020 0.799670 0.903612 -0.136359
C63   C     C_3   0.220820 0.248204 0.939182 -0.131769
C64   C     C_3   0.779720 0.752302 0.061126 -0.132338
H33   H     H_    0.285850 0.730230 0.127049 0.136308
H34   H     H_    0.714147 0.269767 0.872949 0.136313
H35   H     H_    0.753066 0.678277 0.834010 0.137680
H36   H     H_    0.245920 0.320808 0.165219 0.137666
H37   H     H_    0.743823 0.182041 0.163938 0.134599
H38   H     H_    0.256181 0.817955 0.836067 0.134596
H39   H     H_    0.213492 0.227127 0.872888 0.138380
H40   H     H_    0.787493 0.773806 0.127723 0.138271
H41   H     H_    0.610680 0.224934 0.943036 0.139730
H42   H     H_    0.389322 0.775061 0.056970 0.139729
H43   H     H_    0.344982 0.272163 0.088273 0.138494
H44   H     H_    0.655407 0.729091 0.912816 0.138527
H45   H     H_    0.155423 0.775859 0.911309 0.138467
H46   H     H_    0.844576 0.224140 0.088687 0.138467
H47   H     H_    0.887813 0.720257 0.054060 0.142992
H48   H     H_    0.111783 0.278480 0.944713 0.143040
C65   C     C_3   0.315740 0.820700 0.068519 0.155926
C66   C     C_3   0.684260 0.179296 0.931483 0.155921
C67   C     C_3   0.727899 0.770598 0.897244 0.151823
C68   C     C_3   0.272131 0.229391 0.102665 0.151852
C69   C     C_3   0.771913 0.270606 0.101981 0.154439
C70   C     C_3   0.228088 0.729392 0.898020 0.154443
C71   C     C_3   0.185578 0.320385 0.932136 0.150392
C72   C     C_3   0.814368 0.679629 0.067811 0.150500
C73   C     C_3   0.701261 0.297069 0.985787 -0.159181
C74   C     C_3   0.298739 0.702927 0.014214 -0.159198
C75   C     C_3   0.256759 0.346711 0.048260 -0.154641
C76   C     C_3   0.742848 0.653495 0.951932 -0.154532
C77   C     C_3   0.245132 0.847332 0.952165 -0.150012
C78   C     C_3   0.754869 0.152666 0.047837 -0.150017
C79   C     C_3   0.799465 0.796579 0.012957 -0.156368
C80   C     C_3   0.200901 0.203228 0.986691 -0.156461
H49   H     H_    0.680039 0.357050 0.961282 0.128057
H50   H     H_    0.319959 0.642946 0.038719 0.128062
H51   H     H_    0.278496 0.406489 0.071732 0.127402
H52   H     H_    0.720765 0.593891 0.928617 0.127309
H53   H     H_    0.224353 0.907492 0.928523 0.127054
H54   H     H_    0.775649 0.092506 0.071479 0.127080
H55   H     H_    0.821948 0.856020 0.037004 0.130850
H56   H     H_    0.178743 0.143620 0.962426 0.130641
C81   C     C_R   0.716670 0.755530 0.621536 0.035431
C82   C     C_R   0.283330 0.244470 0.378464 0.035232
C83   C     C_R   0.387497 0.852138 0.642965 0.047567
C84   C     C_R   0.612511 0.147867 0.357047 0.047572
C85   C     C_R   0.111696 0.352510 0.355779 0.061512
C86   C     C_R   0.888305 0.647489 0.644222 0.061519
C87   C     C_R   0.783186 0.255468 0.377470 0.048715
C88   C     C_R   0.216812 0.744531 0.622518 0.048717
C89   C     C_R   0.261418 0.375255 0.396847 0.367061
C90   C     C_R   0.738584 0.624745 0.603159 0.367103
C91   C     C_R   0.603333 0.250422 0.255363 0.365917
C92   C     C_R   0.396669 0.749579 0.744637 0.365930
C93   C     C_R   0.898310 0.748387 0.749259 0.351900
C94   C     C_R   0.101692 0.251612 0.250744 0.351926
C95   C     C_R   0.240183 0.875925 0.608066 0.350617
C96   C     C_R   0.759817 0.124075 0.391928 0.350618
C97   C     C_R   0.304325 0.322333 0.408791 -0.281320
C98   C     C_R   0.695675 0.677667 0.591210 -0.281455
C99   C     C_R   0.575205 0.210747 0.283414 -0.244872
C100  C     C_R   0.424800 0.789256 0.716594 -0.244906
C101  C     C_R   0.925143 0.710761 0.717517 -0.267441
C102  C     C_R   0.074859 0.289237 0.282486 -0.267449
C103  C     C_R   0.195876 0.822333 0.592037 -0.300731
C104  C     C_R   0.804122 0.177666 0.407952 -0.300748
C105  C     C_R   0.212545 0.224255 0.312538 -0.164675
C106  C     C_R   0.787455 0.775746 0.687462 -0.164469
C107  C     C_R   0.666654 0.112645 0.378121 -0.157479
C108  C     C_R   0.333353 0.887360 0.621889 -0.157474
C109  C     C_R   0.835274 0.610950 0.624809 -0.184622
C110  C     C_R   0.164725 0.389051 0.375191 -0.184632
C111  C     C_R   0.287880 0.724454 0.690079 -0.190835
C112  C     C_R   0.712118 0.275545 0.309911 -0.190838
C113  C     C_R   0.168313 0.276164 0.299291 -0.011148
C114  C     C_R   0.831689 0.723836 0.700711 -0.011194
C115  C     C_R   0.696105 0.151191 0.351301 -0.009172
C116  C     C_R   0.303897 0.848810 0.648699 -0.009174
C117  C     C_R   0.803498 0.650686 0.647032 -0.037357
C118  C     C_R   0.196504 0.349314 0.352972 -0.037356
C119  C     C_R   0.331164 0.774826 0.699460 -0.037861
C120  C     C_R   0.668836 0.225174 0.300536 -0.037858
H57   H     H_    0.804830 0.834813 0.714967 0.165368
H58   H     H_    0.195170 0.165188 0.285032 0.165422
H59   H     H_    0.307230 0.938418 0.570521 0.162448
H60   H     H_    0.692779 0.061588 0.429492 0.162447
H61   H     H_    0.187594 0.442612 0.421174 0.170651
H62   H     H_    0.812401 0.557391 0.578820 0.170635
H63   H     H_    0.693908 0.333415 0.277319 0.172539
H64   H     H_    0.306089 0.666583 0.722670 0.172538
H65   H     H_    0.643235 0.658575 0.548017 0.155808
H66   H     H_    0.356766 0.341424 0.451984 0.155852
H67   H     H_    0.471399 0.765195 0.743311 0.148071
H68   H     H_    0.528606 0.234808 0.256697 0.148066
H69   H     H_    0.027750 0.265991 0.254766 0.160442
H70   H     H_    0.972252 0.734006 0.745237 0.160441
H71   H     H_    0.856134 0.158677 0.449326 0.167878
H72   H     H_    0.143863 0.841322 0.550659 0.167875
N33   N     N_R   0.935617 0.814352 0.822357 0.236796
O1    O     O_R   0.977679 0.855485 0.828971 -0.373220
O2    O     O_R   0.935039 0.827490 0.892882 -0.390113
N34   N     N_R   0.064385 0.185648 0.177646 0.236796
O3    O     O_R   0.022328 0.144510 0.171038 -0.373223
O4    O     O_R   0.064959 0.172513 0.107116 -0.390111
N35   N     N_R   0.217383 0.955170 0.574738 0.232587
O5    O     O_R   0.149572 0.972515 0.497007 -0.379317
O6    O     O_R   0.264180 0.010943 0.631436 -0.390172
N36   N     N_R   0.782617 0.044829 0.425258 0.232587
O7    O     O_R   0.850428 0.027484 0.502982 -0.379324
O8    O     O_R   0.735819 0.989057 0.368567 -0.390168
N37   N     N_R   0.288851 0.451466 0.442085 0.229699
O9    O     O_R   0.305667 0.495125 0.405391 -0.387296
O10   O     O_R   0.313199 0.469290 0.535722 -0.365170
N38   N     N_R   0.711154 0.548533 0.557923 0.229692
O11   O     O_R   0.694386 0.504854 0.594672 -0.387322
O12   O     O_R   0.686774 0.530720 0.464260 -0.365154
N39   N     N_R   0.569547 0.320857 0.193395 0.228889
O13   O     O_R   0.503095 0.319127 0.095140 -0.375589
O14   O     O_R   0.598035 0.387011 0.244271 -0.354119
N40   N     N_R   0.430452 0.679141 0.806599 0.228892
O15   O     O_R   0.496903 0.680869 0.904857 -0.375581
O16   O     O_R   0.401964 0.612989 0.755717 -0.354103

loop_
_geom_bond_atom_site_label_1
_geom_bond_atom_site_label_2
_geom_bond_distance
_ccdc_geom_bond_type
C45   C86   1.470986 S    
C25   C36   1.380895 A    
C40   C70   1.441180 S    
C43   C84   1.471823 S    
C2    N2    1.330633 A    
N6    N31   1.384169 A    
N32   Ni7   1.852610 S    
C64   C79   1.535704 S    
N35   O5    1.301569 A    
C41   C82   1.472312 S    
N5    Ni3   1.801870 S    
C84   C107  1.395576 A    
C21   N21   1.327598 A    
C10   C42   1.395449 A    
C90   N38   1.433485 S    
C102  H69   1.079836 S    
N1    Ni1   1.801870 S    
N39   O13   1.300683 A    
N15   N22   1.421648 A    
C9    N9    1.344797 A    
C101  H70   1.079837 S    
N34   O3    1.301606 A    
C112  H63   1.077388 S    
N15   Ni3   1.841491 S    
C52   H44   1.110884 S    
C10   N10   1.344802 A    
C88   C111  1.396307 A    
C17   N17   1.330876 A    
C107  H60   1.079237 S    
C14   C46   1.401255 A    
N2    N27   1.384169 A    
C72   C76   1.531885 S    
C106  H57   1.079084 S    
C13   C45   1.401256 A    
C37   C71   1.443498 S    
C94   C113  1.410189 A    
C95   C103  1.394203 A    
C105  H58   1.079083 S    
C93   C114  1.410190 A    
C19   C42   1.376173 A    
C94   N34   1.440213 S    
N4    Ni1   1.797769 S    
N2    Ni2   1.801866 S    
N39   O14   1.301135 A    
C6    H6    1.078948 S    
C51   C75   1.540585 S    
C54   C58   1.531968 S    
C110  H61   1.077898 S    
C36   C66   1.443832 S    
C6    N6    1.331733 A    
C90   C117  1.408354 A    
C109  H62   1.077903 S    
C32   H32   1.081270 S    
C17   H17   1.076133 S    
C89   C118  1.408362 A    
C14   H14   1.077824 S    
C105  C113  1.395951 A    
C74   H50   1.110015 S    
C104  H71   1.078798 S    
C50   C62   1.556369 S    
N40   O16   1.301136 A    
C59   H35   1.110428 S    
C20   H20   1.079093 S    
N20   Ni6   1.903280 S    
N7    Ni4   1.797768 S    
C91   C120  1.409402 A    
C21   H21   1.079144 S    
C6    C38   1.378199 A    
C56   H48   1.110168 S    
C46   C85   1.470985 S    
C67   C79   1.530323 S    
N6    Ni4   1.801866 S    
C24   N24   1.331381 A    
C23   H23   1.076247 S    
C57   C74   1.535087 S    
N36   O8    1.301541 A    
C63   C80   1.535709 S    
C24   H24   1.076247 S    
C31   C38   1.379552 A    
C3    N3    1.331983 A    
C58   H34   1.110979 S    
N29   Ni8   1.852751 S    
C32   N32   1.330883 A    
C75   H51   1.110236 S    
N33   O1    1.301608 A    
N9    Ni2   1.837397 S    
C42   C81   1.472314 S    
C5    H5    1.078973 S    
C20   N20   1.327758 A    
C27   N27   1.331855 A    
C95   C116  1.409136 A    
N16   Ni4   1.841492 S    
C55   H47   1.110071 S    
C30   H30   1.081800 S    
C50   H42   1.109877 S    
C115  C120  1.420457 A    
C100  H67   1.080373 S    
C109  C117  1.394952 A    
C111  H64   1.077388 S    
C112  C120  1.395360 A    
C15   N15   1.344976 A    
C31   H31   1.081272 S    
C10   H10   1.080150 S    
N13   N24   1.421063 A    
C87   C112  1.396304 A    
C16   N16   1.344976 A    
C107  C115  1.395809 A    
N12   N17   1.421649 A    
C86   C101  1.404570 A    
N1    N28   1.384166 A    
C106  C114  1.395956 A    
C85   C102  1.404567 A    
C56   C60   1.556369 S    
C25   H25   1.081212 S    
C92   C119  1.409404 A    
N38   O12   1.301172 A    
N9    N20   1.421063 A    
N22   Ni8   1.791165 S    
C51   C68   1.529644 S    
N16   N21   1.421649 A    
C95   N35   1.440295 S    
C82   C97   1.405469 A    
C34   C68   1.441122 S    
C28   H28   1.081751 S    
C78   H54   1.109995 S    
C96   N36   1.440296 S    
C49   C66   1.530346 S    
C52   C64   1.532139 S    
C108  H59   1.079238 S    
C9    C41   1.395448 A    
C18   H18   1.076123 S    
N26   Ni5   1.852752 S    
C12   H12   1.077642 S    
C1    H1    1.081126 S    
N35   O6    1.301541 A    
C81   C98   1.405474 A    
C1    C33   1.365420 A    
C98   H65   1.079511 S    
C49   H41   1.109878 S    
C53   C70   1.529069 S    
C39   C69   1.441189 S    
C96   C104  1.394203 A    
C7    H7    1.081071 S    
C22   H22   1.079145 S    
N3    Ni2   1.797768 S    
C11   H11   1.077641 S    
C28   C33   1.367646 A    
N21   Ni7   1.791166 S    
C27   C34   1.367644 A    
C44   C83   1.471826 S    
C13   N13   1.345970 A    
C4    N4    1.331982 A    
C4    H4    1.079050 S    
C68   C80   1.530368 S    
C53   C77   1.540760 S    
C103  H72   1.078800 S    
C25   N25   1.330655 A    
C96   C115  1.409132 A    
C31   N31   1.330876 A    
N40   O15   1.300684 A    
C11   N11   1.345997 A    
C63   H39   1.111144 S    
C62   H38   1.110287 S    
C63   C71   1.534128 S    
C8    C40   1.365318 A    
N30   Ni7   1.852752 S    
N10   Ni1   1.837398 S    
C22   N22   1.327596 A    
C116  C119  1.420458 A    
C11   C43   1.402120 A    
C17   C44   1.384786 A    
C88   C103  1.405407 A    
C49   C73   1.546032 S    
C108  C116  1.395808 A    
C111  C119  1.395360 A    
N36   O7    1.301570 A    
N27   Ni6   1.852611 S    
C5    N5    1.331816 A    
C4    C36   1.379794 A    
C58   C66   1.534436 S    
C19   N19   1.327758 A    
N25   Ni6   1.852751 S    
C61   C78   1.550403 S    
N33   O2    1.301603 A    
C92   C100  1.391584 A    
N14   N23   1.421061 A    
C84   C99   1.404727 A    
C53   H45   1.110680 S    
C28   N28   1.331862 A    
N28   Ni5   1.852610 S    
N14   Ni3   1.837398 S    
C58   C73   1.535087 S    
C55   C79   1.546423 S    
C62   C70   1.531477 S    
C51   H43   1.110964 S    
C20   C41   1.376169 A    
N24   Ni8   1.903280 S    
N37   O10   1.301167 A    
C23   C46   1.384436 A    
N10   N19   1.421061 A    
C13   H13   1.077825 S    
C50   C65   1.530345 S    
C71   C75   1.531884 S    
C76   H52   1.110146 S    
C19   H19   1.079093 S    
C62   C77   1.550401 S    
C38   C72   1.443516 S    
N19   Ni5   1.903279 S    
C65   C77   1.531996 S    
C69   C73   1.530277 S    
C24   C45   1.384443 A    
C27   H27   1.081752 S    
C16   H16   1.080151 S    
C93   N33   1.440214 S    
N38   O11   1.300658 A    
C94   C102  1.395124 A    
C89   N37   1.433491 S    
C26   H26   1.081213 S    
C54   C69   1.529070 S    
C93   C101  1.395129 A    
C80   H56   1.110249 S    
C48   C87   1.471989 S    
C15   C47   1.395396 A    
C16   C48   1.395392 A    
C91   C99   1.391584 A    
C30   C39   1.368129 A    
C61   H37   1.110287 S    
C90   C98   1.390861 A    
N23   Ni7   1.903279 S    
C87   C104  1.405408 A    
C89   C97   1.390862 A    
C54   C78   1.540760 S    
C97   H66   1.079508 S    
C18   N18   1.330878 A    
C26   C35   1.380887 A    
C30   N30   1.332115 A    
N5    N32   1.384166 A    
C21   C48   1.376057 A    
N31   Ni8   1.852611 S    
C60   H36   1.110494 S    
C114  C117  1.420399 A    
C99   H68   1.080371 S    
N4    N25   1.384740 A    
C1    N1    1.330573 A    
C113  C118  1.420406 A    
C50   C74   1.546033 S    
C5    C37   1.378283 A    
C14   N14   1.345971 A    
C32   C37   1.379525 A    
C86   C109  1.395408 A    
C15   H15   1.080151 S    
C26   N26   1.330649 A    
C92   N40   1.433293 S    
C85   C110  1.395407 A    
C82   C105  1.396394 A    
C60   C75   1.550421 S    
C73   H49   1.110016 S    
C64   H40   1.111071 S    
N3    N26   1.384743 A    
N8    N29   1.384740 A    
N11   Ni1   1.841491 S    
C57   C65   1.534434 S    
C54   H46   1.110681 S    
N13   Ni4   1.837397 S    
C110  C118  1.394947 A    
C18   C43   1.384782 A    
C59   C76   1.550252 S    
C12   C44   1.402125 A    
N11   N18   1.421648 A    
C7    N7    1.330121 A    
C35   C65   1.443822 S    
C29   N29   1.332114 A    
C47   C88   1.471990 S    
C8    N8    1.330116 A    
C12   N12   1.345998 A    
C22   C47   1.376062 A    
C79   H55   1.110152 S    
C61   C69   1.531479 S    
C33   C67   1.440982 S    
N34   O4    1.301600 A    
C91   N39   1.433296 S    
C60   C68   1.531523 S    
N12   Ni2   1.841492 S    
C55   C59   1.556360 S    
C83   C100  1.404726 A    
C3    H3    1.079042 S    
C70   C74   1.530277 S    
C29   H29   1.081800 S    
C64   C72   1.534066 S    
N7    N30   1.384743 A    
C3    C35   1.379792 A    
C59   C67   1.531438 S    
C57   H33   1.110977 S    
C83   C108  1.395578 A    
C2    C34   1.365521 A    
N8    Ni3   1.797769 S    
C8    H8    1.081074 S    
C53   C57   1.531968 S    
N18   Ni6   1.791165 S    
C52   C67   1.529525 S    
C51   C63   1.532229 S    
C56   C80   1.546357 S    
N17   Ni5   1.791166 S    
C81   C106  1.396400 A    
C66   C78   1.531996 S    
C29   C40   1.368131 A    
C7    C39   1.365321 A    
C49   C61   1.556371 S    
N37   O9    1.300684 A    
C77   H53   1.109995 S    
C55   C72   1.530634 S    
C23   N23   1.331380 A    
C56   C71   1.530673 S    
C9    H9    1.080149 S    
C52   C76   1.540400 S    
C2    H2    1.081136 S    
