data_mof_unit_3925.cif
_audit_creation_date              2012-12-10T18:11:45-0500
_audit_creation_method            fapswitch 2.2
_symmetry_space_group_name_H-M    P1
_symmetry_Int_Tables_number       1
_space_group_crystal_system       triclinic
_cell_length_a                    10.576324
_cell_length_b                    12.70706
_cell_length_c                    13.276158
_cell_angle_alpha                 82.947568
_cell_angle_beta                  92.579633
_cell_angle_gamma                 99.610281
_cell_volume                      1745.33844531

loop_
_atom_site_label
_atom_site_type_symbol
_atom_type_description
_atom_site_fract_x
_atom_site_fract_y
_atom_site_fract_z
_atom_type_partial_charge
C1    C     C_R   0.477406 0.440317 0.690138 0.941950
C2    C     C_R   0.493883 0.454229 0.969523 -0.122772
C3    C     C_R   0.452437 0.478957 0.867987 -0.158041
C4    C     C_R   0.740712 0.497389 0.502627 0.953112
C5    C     C_R   0.505864 0.535847 0.033797 0.092909
C6    C     C_R   0.506457 0.643436 0.993225 0.078545
C7    C     C_R   0.455622 0.665066 0.896427 -0.407186
C8    C     C_R   0.411232 0.579839 0.838113 0.627205
C9    C     C_R   0.505632 0.512266 0.137977 -0.229431
C10   C     C_R   0.566549 0.700988 0.158396 0.100228
C11   C     C_R   0.457449 0.403334 0.798763 -0.199127
C12   C     C_3   0.051487 0.605856 0.491907 0.023898
C13   C     C_R   0.384250 0.115304 0.310770 0.045270
C14   C     C_R   0.656578 0.793733 0.630237 0.628702
C15   C     C_R   0.704608 0.899410 0.650088 -0.049695
C16   C     C_R   0.518984 0.559555 0.309849 0.892992
C17   C     C_R   0.648796 0.985116 0.601294 0.018327
C18   C     C_R   0.550894 0.966194 0.524783 -0.110729
C19   C     C_R   0.517385 0.860050 0.497665 -0.028564
C20   C     C_R   0.490351 0.048254 0.469058 -0.019410
C21   C     C_R   0.434220 0.032630 0.371873 0.114097
C22   C     C_R   0.419257 0.932552 0.340100 -0.380127
C23   C     C_3   0.970938 0.541775 0.578673 -0.081739
C24   C     C_R   0.438713 0.843693 0.408680 0.574239
C25   C     C_R   0.479641 0.144541 0.505932 -0.070396
C26   C     C_R   0.385762 0.210945 0.349838 -0.010676
C27   C     C_R   0.258925 0.503416 0.494714 0.986679
C28   C     C_3   0.945622 0.397587 0.497989 0.446828
C29   C     C_3   0.040777 0.444976 0.578193 0.428238
C30   C     C_3   0.124160 0.508969 0.490942 -0.262693
C31   C     C_3   0.026027 0.462002 0.411532 -0.114079
C32   C     C_3   0.954993 0.557995 0.412435 0.507193
C33   C     C_3   0.003038 0.344050 0.734541 -0.348735
C34   C     C_3   0.874579 0.494090 0.499968 -0.260251
C35   C     C_3   0.328317 0.168102 0.765606 -0.305985
C36   C     C_3   0.722469 0.359838 0.081856 -0.292933
C37   C     C_3   0.275485 0.684646 0.741412 -0.304156
C38   C     C_3   0.731553 0.702041 0.778782 -0.288504
C39   C     C_3   0.973788 0.220670 0.504352 -0.272703
C40   C     C_3   0.296776 0.731443 0.307694 -0.340731
C41   C     C_3   0.967271 0.677830 0.265236 -0.320187
C42   C     C_R   0.546239 0.726247 0.053926 -0.268932
C43   C     C_R   0.532479 0.593218 0.201307 -0.070432
C44   C     C_R   0.466687 0.295532 0.836345 0.448282
C45   C     C_R   0.503252 0.271079 0.937015 -0.334108
C46   C     C_R   0.528055 0.350926 0.001282 0.459482
H1    H     H_    0.474264 0.430290 0.169706 0.216523
H2    H     H_    0.035379 0.273978 0.780394 0.176279
H3    H     H_    0.267418 0.227323 0.731223 0.205522
H4    H     H_    0.291498 0.130166 0.841036 0.147952
H5    H     H_    0.320614 0.103753 0.715171 0.171558
H6    H     H_    0.746353 0.448219 0.060419 0.163432
H7    H     H_    0.760413 0.316196 0.025140 0.147821
H8    H     H_    0.771592 0.340577 0.155777 0.201118
H9    H     H_    0.348994 0.753931 0.713269 0.150840
H10   H     H_    0.230338 0.698164 0.811834 0.142066
H11   H     H_    0.198612 0.677476 0.683217 0.189775
H12   H     H_    0.522504 0.191029 0.963393 0.181699
H13   H     H_    0.236422 0.115301 0.208777 0.170342
H14   H     H_    0.382572 0.161552 0.159522 0.218890
H15   H     H_    0.702830 0.617670 0.812733 0.170380
H16   H     H_    0.835019 0.725350 0.797385 0.183596
H17   H     H_    0.675485 0.752938 0.815228 0.147667
H18   H     H_    0.010428 0.206674 0.583639 0.187177
H19   H     H_    0.055202 0.249215 0.452467 0.192638
H20   H     H_    0.926029 0.141909 0.482524 0.176359
H21   H     H_    0.714040 0.143730 0.553974 0.261137
H22   H     H_    0.662222 0.116301 0.677932 0.208300
H23   H     H_    0.351716 0.277546 0.304185 0.135857
H24   H     H_    0.793499 0.960883 0.773571 0.188003
H25   H     H_    0.888750 0.970352 0.672193 0.202568
H26   H     H_    0.352529 0.750651 0.237368 0.159255
H27   H     H_    0.220287 0.781478 0.306051 0.166154
H28   H     H_    0.250956 0.646461 0.309759 0.163092
H29   H     H_    0.976471 0.408798 0.274759 0.211385
H30   H     H_    0.126815 0.476407 0.281808 0.158475
H31   H     H_    0.045809 0.640400 0.239658 0.138087
H32   H     H_    0.003339 0.751836 0.300959 0.186481
H33   H     H_    0.910931 0.702089 0.196313 0.182846
H34   H     H_    0.377389 0.922866 0.265526 0.175186
H35   H     H_    0.042588 0.758282 0.520778 0.206524
H36   H     H_    0.192676 0.730232 0.522870 0.224191
H37   H     H_    0.006998 0.586015 0.721111 0.187196
H38   H     H_    0.856121 0.528591 0.699949 0.181106
H39   H     H_    0.563479 0.846332 0.204457 0.172887
H40   H     H_    0.710602 0.815204 0.196076 0.181387
H41   H     H_    0.507348 0.160528 0.581940 0.173529
H42   H     H_    0.444752 0.747184 0.870108 0.144507
H43   H     H_    0.557636 0.809655 0.021239 0.139822
H44   H     H_    0.907251 0.314949 0.700595 0.177247
H45   H     H_    0.994558 0.403651 0.787213 0.170351
N1    N     N_R   0.432930 0.222190 0.444670 -0.122556
N2    N     N_R   0.566370 0.776980 0.554790 -0.167902
N3    N     N_3   0.331568 0.102215 0.210728 -0.489709
N4    N     N_3   0.709584 0.090617 0.620405 -0.467496
N5    N     N_3   0.816397 0.920432 0.714587 -0.464870
N6    N     N_3   0.058972 0.418779 0.321209 -0.448338
N7    N     N_3   0.104475 0.719957 0.484394 -0.452519
N8    N     N_3   0.931876 0.584068 0.667537 -0.396774
N9    N     N_3   0.617419 0.784188 0.219679 -0.408533
O1    O     O_R   0.467970 0.366730 0.627150 -0.588315
O2    O     O_3   0.458096 0.215973 0.773052 -0.606135
O3    O     O_3   0.589353 0.326567 0.093311 -0.620251
O4    O     O_3   0.327407 0.588533 0.754065 -0.573669
O5    O     O_3   0.713294 0.706801 0.672258 -0.558939
O6    O     O_3   0.882601 0.290920 0.497293 -0.606425
O7    O     O_3   0.376648 0.741754 0.395349 -0.551267
O8    O     O_3   0.885169 0.605447 0.330746 -0.599537
O9    O     O_R   0.510820 0.544830 0.662520 -0.563978
O10   O     O_R   0.664630 0.410960 0.482340 -0.593938
O11   O     O_R   0.707470 0.589060 0.517710 -0.550419
O12   O     O_R   0.489180 0.455170 0.337480 -0.652418
O13   O     O_R   0.532030 0.633270 0.372850 -0.534294
O14   O     O_R   0.292530 0.410940 0.482290 -0.626072
O15   O     O_R   0.335370 0.589040 0.517660 -0.548268
O16   O     O_3   0.096484 0.387593 0.661777 -0.595141
Zn1   Zn    Zn3+2 0.471390 0.381080 0.476380 0.976599
Zn2   Zn    Zn3+2 0.528610 0.618920 0.523620 1.058102

loop_
_geom_bond_atom_site_label_1
_geom_bond_atom_site_label_2
_ccdc_geom_bond_type
C39   O6    S    
C23   N8    S    
C41   O8    S    
C10   C42   A    
H36   N7    S    
C1    C11   S    
C33   H2    S    
H29   N6    S    
C35   O2    S    
C16   O13   A    
C7    C8    A    
C45   C46   A    
C2    C46   A    
C39   H18   S    
C12   C23   S    
C36   O3    S    
C5    C6    A    
C23   C29   S    
C28   C29   S    
C33   H45   S    
C41   H31   S    
C30   C31   S    
C20   C25   A    
C26   N1    A    
C25   H41   S    
C40   H27   S    
C18   C19   A    
C36   H7    S    
C1    O9    A    
C37   H10   S    
C14   O5    S    
C7    H42   S    
C28   O6    S    
C25   N1    A    
C35   H3    S    
C17   N4    S    
H13   N3    S    
H40   N9    S    
C14   N2    A    
C12   N7    S    
C19   N2    A    
C38   H15   S    
O15   Zn2   S    
C28   C34   S    
H37   N8    S    
C21   C22   A    
C12   C32   S    
C27   C30   S    
H21   N4    S    
C39   H19   S    
O10   Zn1   S    
O9    Zn2   S    
C4    C34   S    
C45   H12   S    
C9    C43   A    
H22   N4    S    
C3    C11   A    
C3    C8    A    
C41   H32   S    
C44   O2    S    
H25   N5    S    
H30   N6    S    
C32   C34   S    
H24   N5    S    
N1    Zn1   S    
C5    C9    A    
C29   C30   S    
C37   O4    S    
C31   C32   S    
C23   C34   S    
C35   H4    S    
C17   C18   A    
C13   C21   A    
C11   C44   A    
C24   O7    S    
C10   N9    S    
C8    O4    S    
C16   C43   S    
C40   O7    S    
C29   O16   S    
C9    H1    S    
O11   Zn2   S    
C35   H5    S    
C39   H20   S    
C22   C24   A    
C13   C26   A    
C2    C5    A    
N2    Zn2   S    
C1    O1    A    
C15   N5    S    
C44   C45   A    
C16   O12   A    
C38   H17   S    
C15   C17   A    
C4    O10   A    
C33   O16   S    
H35   N7    S    
C40   H26   S    
C12   C30   S    
C10   C43   A    
H38   N8    S    
C32   O8    S    
C28   C31   S    
C36   H6    S    
C41   H33   S    
C4    O11   A    
C6    C7    A    
C46   O3    S    
C13   N3    S    
C42   H43   S    
O1    Zn1   S    
C38   O5    S    
C2    C3    A    
C22   H34   S    
H39   N9    S    
C33   H44   S    
O12   Zn1   S    
C40   H28   S    
C19   C24   A    
C18   C20   A    
C31   N6    S    
O14   Zn1   S    
C36   H8    S    
O13   Zn2   S    
C37   H9    S    
C27   O14   A    
C20   C21   A    
C6    C42   A    
C26   H23   S    
C14   C15   A    
C37   H11   S    
H14   N3    S    
C38   H16   S    
C27   O15   A    
