data_mof_unit_3795.cif
_audit_creation_date              2012-12-10T21:00:45-0500
_audit_creation_method            fapswitch 2.2
_symmetry_space_group_name_H-M    P1
_symmetry_Int_Tables_number       1
_space_group_crystal_system       triclinic
_cell_length_a                    18.133816
_cell_length_b                    18.178263
_cell_length_c                    18.376475
_cell_angle_alpha                 120.1312
_cell_angle_beta                  90.003261
_cell_angle_gamma                 119.80495
_cell_volume                      4287.37587474

loop_
_atom_site_label
_atom_site_type_symbol
_atom_type_description
_atom_site_fract_x
_atom_site_fract_y
_atom_site_fract_z
_atom_type_partial_charge
C1    C     C_R   0.111601 0.220334 0.609550 0.543593
C2    C     C_3   0.449408 0.896118 0.948371 0.067777
C3    C     C_3   0.461327 0.146830 0.932235 -0.415765
C4    C     C_3   0.513667 0.933430 0.108699 -0.285793
C5    C     C_3   0.549882 0.866682 0.077908 -0.430070
C6    C     C_3   0.471301 0.034114 0.070049 -0.131494
C7    C     C_3   0.528017 0.965678 0.929213 -0.136760
C8    C     C_3   0.445696 0.523648 0.481527 -0.123451
C9    C     C_3   0.554321 0.476281 0.518493 -0.123319
C10   C     C_3   0.446353 0.428000 0.413314 -0.130803
C11   C     C_3   0.553657 0.571922 0.586709 -0.130596
C12   C     C_3   0.550475 0.498818 0.448483 0.071420
C13   C     C_3   0.449536 0.501112 0.551536 0.071598
C14   C     C_3   0.549305 0.591947 0.515436 0.090983
C15   C     C_R   0.888409 0.779666 0.390443 0.543608
C16   C     C_3   0.450709 0.407982 0.484593 0.091138
C17   C     C_R   0.315943 0.174072 0.695782 -0.124765
C18   C     C_R   0.684290 0.826890 0.304653 -0.124967
C19   C     C_R   0.392503 0.780688 0.888798 0.502482
C20   C     C_R   0.607407 0.219273 0.111075 0.502054
C21   C     C_R   0.239411 0.125980 0.627575 -0.109709
C22   C     C_R   0.760813 0.874670 0.372693 -0.109802
C23   C     C_R   0.158736 0.107075 0.644856 0.042509
C24   C     C_R   0.841285 0.892979 0.355158 0.042603
C25   C     C_R   0.155519 0.136861 0.730956 -0.057025
C26   C     C_3   0.923117 0.403040 0.446060 -0.149882
C27   C     C_R   0.844304 0.862909 0.268957 -0.056874
C28   C     C_R   0.232749 0.186859 0.799358 -0.097797
C29   C     C_R   0.767059 0.813201 0.200713 -0.097621
C30   C     C_R   0.312952 0.205524 0.781747 -0.103093
C31   C     C_R   0.687060 0.795114 0.218588 -0.103134
C32   C     C_R   0.021073 0.944070 0.517316 0.059085
C33   C     C_R   0.979024 0.055933 0.482597 0.059157
C34   C     C_R   0.944897 0.892080 0.446082 0.041642
C35   C     C_R   0.055159 0.107920 0.553868 0.041787
C36   C     C_R   0.923433 0.947303 0.428086 -0.057303
C37   C     C_3   0.077006 0.597345 0.554354 -0.148784
C38   C     C_R   0.076644 0.052701 0.571843 -0.057269
C39   C     C_R   0.646791 0.610045 0.798228 -0.087339
C40   C     C_R   0.354318 0.392711 0.203664 -0.087629
C41   C     C_R   0.595116 0.551385 0.829871 0.069866
C42   C     C_R   0.406224 0.450742 0.171609 0.070014
C43   C     C_R   0.111104 0.501161 0.889929 0.502144
C44   C     C_R   0.889548 0.499441 0.110664 0.499856
C45   C     C_R   0.592297 0.603998 0.917531 0.074482
C46   C     C_R   0.407910 0.397358 0.083546 0.075491
C47   C     C_R   0.638717 0.712634 0.969504 -0.097627
C48   C     C_3   0.415040 0.964285 0.970483 0.102617
C49   C     C_R   0.360051 0.288557 0.031539 -0.097845
C50   C     C_R   0.687927 0.769070 0.936159 -0.116467
C51   C     C_R   0.310587 0.232718 0.065263 -0.119088
C52   C     C_R   0.692358 0.717899 0.850818 -0.115745
C53   C     C_R   0.307356 0.284681 0.151043 -0.115854
C54   C     C_R   0.591825 0.547071 0.013170 -0.167260
C55   C     C_R   0.408255 0.453419 0.987225 -0.167247
C56   C     C_R   0.550281 0.499390 0.055638 0.022443
C57   C     C_R   0.449779 0.500999 0.944686 0.022321
C58   C     C_R   0.457361 0.451828 0.042792 -0.046716
C59   C     C_3   0.584440 0.035533 0.029007 0.102964
C60   C     C_R   0.542756 0.548853 0.957759 -0.046980
C61   C     C_R   0.152271 0.826756 0.999920 -0.042962
C62   C     C_R   0.854529 0.175269 0.001084 -0.045835
C63   C     C_R   0.133877 0.754136 0.018108 0.026050
C64   C     C_R   0.873935 0.247353 0.981874 0.019083
C65   C     C_R   0.056782 0.650687 0.959767 0.026229
C66   C     C_R   0.947212 0.352504 0.043366 0.026163
C67   C     C_R   0.392357 0.500190 0.607927 0.510886
C68   C     C_R   0.607644 0.499777 0.392076 0.510778
C69   C     C_R   0.000988 0.621949 0.884291 -0.049604
C70   C     C_3   0.492205 0.034064 0.951801 -0.001724
C71   C     C_R   0.999207 0.382971 0.122149 -0.045405
C72   C     C_R   0.020471 0.694307 0.865899 0.127849
C73   C     C_R   0.979332 0.310750 0.140863 0.128938
C74   C     C_R   0.096628 0.797935 0.924563 0.123622
C75   C     C_R   0.906314 0.205812 0.079685 0.124548
C76   C     C_R   0.975478 0.569277 0.032426 -0.155574
C77   C     C_R   0.028429 0.434396 0.971226 -0.165694
C78   C     C_R   0.947054 0.498988 0.055185 0.018475
C79   C     C_R   0.055716 0.503591 0.947425 0.010424
C80   C     C_R   0.974320 0.430769 0.024316 -0.034791
C81   C     C_3   0.507080 0.965692 0.047597 0.002175
C82   C     C_R   0.029518 0.572763 0.979247 -0.034012
C83   C     C_R   0.393973 0.499860 0.888417 0.505639
C84   C     C_R   0.606036 0.500218 0.111652 0.504543
C85   C     C_R   0.109121 0.500344 0.607875 0.518041
C86   C     C_R   0.890919 0.499727 0.392188 0.518396
C87   C     C_3   0.020118 0.432306 0.448046 -0.104919
C88   C     C_3   0.980023 0.568111 0.552361 -0.103309
C89   C     C_3   0.042998 0.527950 0.451713 0.099687
C90   C     C_3   0.957156 0.472495 0.548717 0.099029
C91   C     C_3   0.947949 0.499330 0.449115 0.066852
C92   C     C_3   0.550075 0.103772 0.051073 0.068337
C93   C     C_3   0.052159 0.501020 0.551222 0.067490
C94   C     C_3   0.545245 0.434429 0.768860 -0.296040
C95   C     C_3   0.469754 0.386950 0.688704 -0.396772
C96   C     C_3   0.457365 0.567865 0.232563 -0.296164
C97   C     C_3   0.532869 0.614448 0.312225 -0.395987
C98   C     C_3   0.197557 0.789480 0.099678 -0.275032
C99   C     C_3   0.182305 0.851861 0.184456 -0.450776
C100  C     C_3   0.815056 0.209439 0.895893 -0.282318
C101  C     C_3   0.724610 0.191007 0.903249 -0.426007
C102  C     C_3   0.479500 0.063401 0.890116 -0.291417
H1    H     H_    0.372804 0.243922 0.834379 0.100808
H2    H     H_    0.769432 0.789196 0.134173 0.100185
H3    H     H_    0.731179 0.761847 0.825275 0.101870
H4    H     H_    0.268341 0.241207 0.176885 0.102036
H5    H     H_    0.651681 0.571969 0.732329 0.098277
H6    H     H_    0.350269 0.431403 0.269884 0.097835
H7    H     H_    0.636360 0.753745 0.035981 0.090242
H8    H     H_    0.361412 0.246827 0.964699 0.089658
H9    H     H_    0.038811 0.378506 0.406800 0.124485
H10   H     H_    0.961565 0.622001 0.594091 0.123835
H11   H     H_    0.723081 0.852704 0.976787 0.115175
H12   H     H_    0.627189 0.756916 0.166093 0.100756
H13   H     H_    0.274298 0.148933 0.024582 0.115508
H14   H     H_    0.663158 0.582971 0.022518 0.143060
H15   H     H_    0.336922 0.417536 0.977874 0.142875
H16   H     H_    0.210486 0.906499 0.044766 0.138294
H17   H     H_    0.798856 0.094446 0.954241 0.131714
H18   H     H_    0.941666 0.542858 0.839774 0.134553
H19   H     H_    0.055852 0.463285 0.169013 0.135299
H20   H     H_    0.955658 0.622472 0.056109 0.141363
H21   H     H_    0.048305 0.381245 0.947554 0.143383
H22   H     H_    0.859329 0.324208 0.402672 0.099651
H23   H     H_    0.377567 0.186575 0.682053 0.100003
H24   H     H_    0.140815 0.676158 0.597741 0.099133
H25   H     H_    0.446548 0.061587 0.126609 0.104966
H26   H     H_    0.552639 0.938164 0.872557 0.102570
H27   H     H_    0.402873 0.367135 0.342347 0.117673
H28   H     H_    0.597134 0.632776 0.657679 0.117514
H29   H     H_    0.402316 0.545059 0.468074 0.105812
H30   H     H_    0.597704 0.454874 0.531947 0.106096
H31   H     H_    0.153247 0.575181 0.413747 0.227383
H32   H     H_    0.097969 0.627271 0.415365 0.220565
H33   H     H_    0.847161 0.425918 0.587154 0.226979
H34   H     H_    0.622831 0.814854 0.318586 0.100024
H35   H     H_    0.902150 0.373485 0.585375 0.221446
H36   H     H_    0.045165 0.905901 0.596831 0.234855
H37   H     H_    0.105934 0.904539 0.526360 0.223251
H38   H     H_    0.954967 0.094044 0.403011 0.234820
H39   H     H_    0.894248 0.095574 0.473540 0.223504
H40   H     H_    0.416105 0.396276 0.710556 0.172371
H41   H     H_    0.496004 0.424165 0.653312 0.178045
H42   H     H_    0.439948 0.302974 0.640647 0.133839
H43   H     H_    0.593596 0.415238 0.744807 0.130453
H44   H     H_    0.515577 0.397446 0.803898 0.142720
H45   H     H_    0.242560 0.102294 0.561214 0.102626
H46   H     H_    0.563497 0.698614 0.360423 0.134229
H47   H     H_    0.506402 0.577341 0.347662 0.178635
H48   H     H_    0.585939 0.604159 0.289847 0.172328
H49   H     H_    0.487211 0.604491 0.197305 0.142871
H50   H     H_    0.409802 0.588238 0.257184 0.129710
H51   H     H_    0.064341 0.881007 0.906968 0.222590
H52   H     H_    0.128094 0.850603 0.847067 0.229833
H53   H     H_    0.869502 0.151283 0.155492 0.229698
H54   H     H_    0.939584 0.126672 0.102979 0.222374
H55   H     H_    0.194823 0.922544 0.193048 0.143576
H56   H     H_    0.757833 0.898622 0.439138 0.102751
H57   H     H_    0.112117 0.803661 0.181483 0.160483
H58   H     H_    0.229357 0.876238 0.243178 0.136856
H59   H     H_    0.189505 0.722736 0.095599 0.151927
H60   H     H_    0.268325 0.838291 0.104072 0.138347
H61   H     H_    0.688820 0.131483 0.917027 0.166368
H62   H     H_    0.734502 0.264357 0.957701 0.169940
H63   H     H_    0.682453 0.163066 0.839464 0.117169
H64   H     H_    0.846934 0.265305 0.877860 0.154079
H65   H     H_    0.803873 0.135793 0.840165 0.127542
H66   H     H_    0.935758 0.705576 0.807342 0.216968
H67   H     H_    0.093469 0.121922 0.745001 0.106477
H68   H     H_    0.999877 0.675415 0.748043 0.244232
H69   H     H_    0.992524 0.327696 0.258138 0.245192
H70   H     H_    0.063234 0.304268 0.206191 0.215478
H71   H     H_    0.410256 0.129822 0.965360 0.161265
H72   H     H_    0.524532 0.224170 0.981382 0.173685
H73   H     H_    0.435961 0.150070 0.879646 0.117600
H74   H     H_    0.540389 0.091430 0.870965 0.132459
H75   H     H_    0.422261 0.992433 0.828086 0.136338
H76   H     H_    0.501593 0.789843 0.014563 0.189025
H77   H     H_    0.615892 0.905729 0.069508 0.147434
H78   H     H_    0.906213 0.877447 0.254724 0.106324
H79   H     H_    0.559237 0.853399 0.128901 0.120598
H80   H     H_    0.558696 0.004840 0.176835 0.136093
H81   H     H_    0.445687 0.889618 0.112239 0.134509
H82   H     H_    0.316134 0.987149 0.969621 0.229899
H83   H     H_    0.302281 0.890013 0.870498 0.235441
H84   H     H_    0.684821 0.014241 0.024055 0.229196
H85   H     H_    0.695452 0.102559 0.127045 0.234898
H86   H     H_    0.590635 0.741907 0.581020 0.221488
H87   H     H_    0.671894 0.723596 0.557264 0.241856
H88   H     H_    0.409386 0.258027 0.419067 0.221278
H89   H     H_    0.230201 0.210665 0.865820 0.099778
H90   H     H_    0.328131 0.276341 0.442814 0.241644
N1    N     N_3   0.089047 0.558039 0.396715 -0.596920
N2    N     N_3   0.678743 0.076069 0.060255 -0.598779
N3    N     N_3   0.604576 0.693440 0.531095 -0.651263
N4    N     N_3   0.395453 0.306513 0.468984 -0.650804
N5    N     N_3   0.911283 0.442803 0.603990 -0.599328
N6    N     N_3   0.042547 0.885367 0.532104 -0.605763
N7    N     N_3   0.957605 0.114645 0.467758 -0.605539
N8    N     N_3   0.118625 0.875063 0.909060 -0.662903
N9    N     N_3   0.883771 0.129019 0.095804 -0.663556
N10   N     N_3   0.961790 0.661140 0.787812 -0.623394
N11   N     N_3   0.034268 0.345414 0.222013 -0.618981
N12   N     N_3   0.320860 0.924034 0.938984 -0.600458
O1    O     O_3   0.251620 0.500000 0.748430 -0.445420
O2    O     O_R   0.570330 0.268390 0.136490 -0.556298
O3    O     O_R   0.134680 0.268390 0.572240 -0.512135
O4    O     O_R   0.865320 0.731610 0.427760 -0.511942
O5    O     O_R   0.306670 0.731630 0.863510 -0.522612
O6    O     O_R   0.693330 0.268370 0.136490 -0.520654
O7    O     O_R   0.135450 0.439270 0.865360 -0.555098
O8    O     O_R   0.864550 0.560730 0.134640 -0.556777
O9    O     O_R   0.429670 0.560710 0.692610 -0.549411
O10   O     O_R   0.570330 0.439290 0.307390 -0.549175
O11   O     O_R   0.308540 0.439240 0.865360 -0.551154
O12   O     O_3   0.748380 0.500000 0.251570 -0.445505
O13   O     O_R   0.691460 0.560760 0.134640 -0.551487
O14   O     O_R   0.133580 0.439310 0.571150 -0.550124
O15   O     O_R   0.866420 0.560690 0.428850 -0.549855
O16   O     O_R   0.430770 0.560690 0.864590 -0.542528
O17   O     O_R   0.569230 0.439310 0.135410 -0.541727
O18   O     O_R   0.133580 0.560760 0.692610 -0.525452
O19   O     O_R   0.866420 0.439240 0.307390 -0.524583
O20   O     O_R   0.134680 0.560740 0.864590 -0.531732
O21   O     O_R   0.865320 0.439260 0.135410 -0.532631
O22   O     O_R   0.306670 0.439270 0.571150 -0.546146
O23   O     O_R   0.693330 0.560730 0.428850 -0.545869
O24   O     O_R   0.135450 0.268370 0.694460 -0.548379
O25   O     O_R   0.864550 0.731630 0.305540 -0.548737
O26   O     O_R   0.429670 0.731610 0.863510 -0.557299
Zn1   Zn    Zn3+2 0.207400 0.586780 0.791530 0.948909
Zn2   Zn    Zn3+2 0.792600 0.413220 0.208470 0.946759
Zn3   Zn    Zn3+2 0.208510 0.413230 0.792630 0.920803
Zn4   Zn    Zn3+2 0.791490 0.586770 0.207370 0.917436
Zn5   Zn    Zn3+2 0.383150 0.586740 0.791530 0.914007
Zn6   Zn    Zn3+2 0.616850 0.413260 0.208470 0.912137
Zn7   Zn    Zn3+2 0.207400 0.413250 0.618010 0.935768
Zn8   Zn    Zn3+2 0.792600 0.586750 0.381990 0.935981

loop_
_geom_bond_atom_site_label_1
_geom_bond_atom_site_label_2
_ccdc_geom_bond_type
C94   H44   S    
C14   N3    S    
C63   C65   A    
C45   C60   S    
C95   H41   S    
C8    C13   S    
H82   N12   S    
C99   H57   S    
C27   C29   A    
O12   Zn4   S    
O16   Zn5   S    
C2    C7    S    
O11   Zn3   S    
C24   C27   A    
C20   O2    A    
C7    C70   S    
C75   N9    S    
C68   O23   A    
C39   C41   A    
C90   N5    S    
C54   C60   A    
C25   C28   A    
C39   H5    S    
C20   C92   S    
C46   C49   A    
C1    C35   S    
C24   C36   S    
C6    C48   S    
C100  H65   S    
C42   C96   S    
C21   H45   S    
H83   N12   S    
O2    Zn6   S    
H38   N7    S    
C76   C78   A    
C6    H25   S    
C63   C98   S    
C84   O17   A    
C42   C46   A    
C8    C10   S    
C11   C14   S    
C78   C80   A    
C9    H30   S    
C87   H9    S    
C33   N7    S    
C43   C79   S    
C96   H50   S    
C11   C13   S    
C33   C36   A    
H84   N2    S    
C100  H64   S    
O5    Zn1   S    
C5    H79   S    
O25   Zn4   S    
C61   C63   A    
C5    H77   S    
C62   C64   A    
C37   C88   S    
O12   Zn2   S    
C85   C93   S    
C53   H4    S    
C3    H71   S    
H32   N1    S    
C3    C102  S    
C4    C81   S    
C66   C71   A    
H86   N3    S    
H66   N10   S    
C26   C87   S    
C49   C51   A    
C54   H14   S    
C30   H1    S    
C50   C52   A    
C97   H48   S    
C57   C83   S    
C48   C70   S    
C18   H34   S    
C20   O6    A    
C7    H26   S    
C89   C91   S    
C68   O10   A    
C44   O21   A    
C15   C34   S    
C15   O4    A    
H88   N4    S    
C40   H6    S    
C94   H43   S    
C40   C42   A    
C39   C52   A    
C61   H16   S    
C70   C92   S    
C95   H42   S    
O22   Zn7   S    
C18   C22   A    
C99   H58   S    
C46   C58   S    
C17   C30   A    
C73   C75   A    
C26   H22   S    
O6    Zn2   S    
H54   N9    S    
C7    C59   S    
C76   H20   S    
C98   H60   S    
C71   H19   S    
C56   C84   S    
C47   C50   A    
C45   C47   A    
C59   N2    S    
C21   C23   A    
C54   C56   A    
H37   N6    S    
O21   Zn2   S    
O9    Zn5   S    
O1    Zn5   S    
C35   C38   A    
C27   H78   S    
C72   C74   A    
O20   Zn1   S    
O4    Zn8   S    
C71   C73   A    
C52   H3    S    
C57   C60   A    
C97   H46   S    
C22   H56   S    
C67   O22   A    
C2    C48   S    
C26   C91   S    
C47   H7    S    
O23   Zn8   S    
C17   C21   A    
O7    Zn3   S    
C29   H2    S    
C99   H55   S    
C51   C53   A    
C64   C66   A    
C69   C72   A    
O1    Zn7   S    
C85   O14   A    
C16   N4    S    
H52   N8    S    
H87   N3    S    
C3    H72   S    
C83   O11   A    
C41   C94   S    
C88   C91   S    
C101  H61   S    
C89   N1    S    
C96   C97   S    
C8    H29   S    
C19   O26   A    
C62   H17   S    
C77   C79   A    
C37   C93   S    
O26   Zn5   S    
C55   C57   A    
C101  H63   S    
C9    C11   S    
O24   Zn3   S    
C10   C12   S    
C55   H15   S    
H36   N6    S    
C1    O24   A    
C3    H73   S    
C88   C90   S    
O18   Zn1   S    
C98   C99   S    
C32   C38   A    
C11   H28   S    
C87   C89   S    
O17   Zn6   S    
O12   Zn6   S    
H70   N11   S    
C22   C24   A    
C62   C75   A    
O1    Zn1   S    
C86   O19   A    
C76   C82   A    
C28   H89   S    
H90   N4    S    
C98   H59   S    
C43   O7    A    
O19   Zn2   S    
O15   Zn8   S    
C90   C93   S    
C72   N10   S    
C37   H24   S    
C85   O18   A    
C77   C80   A    
C25   H67   S    
C97   H47   S    
C8    C14   S    
C13   C67   S    
C31   H12   S    
C2    C19   S    
C19   O5    A    
C32   N6    S    
C9    C16   S    
C101  H62   S    
O10   Zn6   S    
C59   C81   S    
H35   N5    S    
C4    C5    S    
O13   Zn4   S    
H33   N5    S    
C79   C82   A    
O8    Zn4   S    
C70   C102  S    
C13   C16   S    
C18   C31   A    
C61   C74   A    
C26   C90   S    
C23   C38   S    
C66   C80   S    
C48   N12   S    
C69   H18   S    
C37   C89   S    
C86   C91   S    
C50   H11   S    
H51   N8    S    
C12   C68   S    
O1    Zn3   S    
C43   O20   A    
C12   C14   S    
C10   H27   S    
O12   Zn8   S    
C28   C30   A    
C29   C31   A    
C4    H80   S    
C10   C16   S    
C6    C92   S    
C83   O16   A    
C96   H49   S    
C17   H23   S    
C65   C82   S    
C74   N8    S    
C65   C69   A    
C87   C93   S    
C44   C78   S    
C100  C101  S    
C33   C35   A    
C56   C58   A    
C34   C36   A    
C86   O15   A    
C23   C25   A    
C4    H81   S    
H69   N11   S    
C94   C95   S    
C1    O3    A    
C9    C12   S    
C51   H13   S    
C5    H76   S    
H68   N10   S    
C67   O9    A    
C84   O13   A    
O3    Zn7   S    
C88   H10   S    
C64   C100  S    
C73   N11   S    
C95   H40   S    
H31   N1    S    
C40   C53   A    
C55   C58   A    
H85   N2    S    
C6    C81   S    
C102  H75   S    
C41   C45   A    
C49   H8    S    
C2    C81   S    
C59   C92   S    
H39   N7    S    
O14   Zn7   S    
C44   O8    A    
H53   N9    S    
C102  H74   S    
C15   O25   A    
C32   C34   A    
C77   H21   S    
