data_mof_unit_634.cif
_audit_creation_date              2012-12-10T19:50:11-0500
_audit_creation_method            fapswitch 2.2
_symmetry_space_group_name_H-M    P1
_symmetry_Int_Tables_number       1
_space_group_crystal_system       triclinic
_cell_length_a                    14.358833
_cell_length_b                    14.825526
_cell_length_c                    15.159215
_cell_angle_alpha                 92.472345
_cell_angle_beta                  69.214882
_cell_angle_gamma                 87.746625
_cell_volume                      3009.06103111

loop_
_atom_site_label
_atom_site_type_symbol
_atom_type_description
_atom_site_fract_x
_atom_site_fract_y
_atom_site_fract_z
_atom_type_partial_charge
C1    C     C_R   0.499891 0.673047 0.496115 0.885654
C2    C     C_R   0.554375 0.177607 0.539532 0.121507
C3    C     C_R   0.506651 0.768856 0.474407 -0.090349
C4    C     C_R   0.514934 0.230559 0.484196 -0.068423
C5    C     C_R   0.602988 0.800153 0.433986 -0.241610
C6    C     C_R   0.497812 0.192432 0.405934 -0.277974
C7    C     C_R   0.616234 0.889991 0.415812 -0.190410
C8    C     C_R   0.513779 0.100632 0.384444 -0.176735
C9    C     C_R   0.533472 0.949793 0.435546 0.047968
C10   C     C_R   0.546173 0.046060 0.441656 0.062114
C11   C     C_R   0.867424 0.545443 0.569084 -0.292393
C12   C     C_R   0.502434 0.327587 0.499081 0.888383
C13   C     C_R   0.123320 0.427813 0.459108 -0.298585
C14   C     C_R   0.772427 0.555059 0.562259 0.284796
C15   C     C_R   0.223420 0.431525 0.452573 0.287111
C16   C     C_R   0.437394 0.502872 0.676939 0.874295
C17   C     C_R   0.561765 0.501352 0.323474 0.865703
C18   C     C_R   0.822915 0.447069 0.432237 0.230187
C19   C     C_R   0.181125 0.566222 0.551167 0.250429
C20   C     C_R   0.924575 0.452751 0.424566 0.136207
C21   C     C_R   0.086638 0.574143 0.540179 0.136364
C22   C     C_R   0.947687 0.499160 0.497124 0.053896
C23   C     C_R   0.350267 0.570178 0.124165 0.186551
C24   C     C_R   0.053804 0.501079 0.497999 0.047107
C25   C     C_R   0.395692 0.517736 0.780706 -0.123023
C26   C     C_R   0.594365 0.523231 0.224110 -0.119331
C27   C     C_R   0.253112 0.521587 0.929844 0.237386
C28   C     C_R   0.702833 0.604357 0.093491 0.240123
C29   C     C_R   0.294518 0.505587 0.830816 -0.222380
C30   C     C_R   0.684504 0.563370 0.180064 -0.219908
C31   C     C_R   0.454817 0.551331 0.828914 -0.262742
C32   C     C_R   0.523869 0.520843 0.180686 -0.250511
C33   C     C_R   0.415096 0.572241 0.926570 0.061098
C34   C     C_R   0.560831 0.654659 0.934728 0.195722
C35   C     C_R   0.532097 0.572575 0.104209 0.061155
C36   C     C_R   0.316039 0.550585 0.978163 0.041086
C37   C     C_R   0.624579 0.610556 0.056563 0.036747
C38   C     C_R   0.476467 0.603367 0.975361 0.030787
C39   C     C_R   0.452455 0.581643 0.069901 0.025213
C40   C     C_3   0.706473 0.635503 0.614045 -0.826739
C41   C     C_3   0.293853 0.354713 0.396987 -0.853121
C42   C     C_3   0.801882 0.384231 0.361564 -0.861242
C43   C     C_3   0.194575 0.623643 0.629334 -0.915582
C44   C     C_3   0.044719 0.477412 0.270327 -0.797114
C45   C     C_R   0.283281 0.556407 0.077237 -0.251611
C46   C     C_3   0.047946 0.720857 0.495053 -0.787384
C47   C     C_3   0.090291 0.462598 0.936519 -0.813173
C48   C     C_3   0.872344 0.644999 0.086717 -0.821660
C49   C     C_3   0.306076 0.584888 0.230615 -0.914652
C50   C     C_3   0.565864 0.720617 0.860717 -0.950396
C51   C     C_3   0.311483 0.035256 0.565645 -0.770860
C52   C     C_3   0.542848 0.987456 0.649518 -0.795968
C53   C     C_3   0.318067 0.798564 0.537101 -0.926039
C54   C     C_3   0.574102 0.221460 0.623008 -0.909730
C55   C     C_R   0.634460 0.657097 0.975338 -0.254061
C56   C     C_R   0.436146 0.919307 0.466989 0.224571
C57   C     C_R   0.570643 0.083628 0.517340 0.225088
C58   C     C_R   0.421868 0.828579 0.489451 0.129473
H1    H     H_    0.206337 0.547132 0.119042 0.161144
H2    H     H_    0.472188 0.233974 0.361097 0.155833
H3    H     H_    0.690963 0.913989 0.390869 0.154496
H4    H     H_    0.495474 0.071176 0.326374 0.155633
H5    H     H_    0.632270 0.616471 0.659119 0.253133
H6    H     H_    0.740812 0.673161 0.658218 0.194651
H7    H     H_    0.700013 0.683690 0.562476 0.247921
H8    H     H_    0.296464 0.300864 0.444757 0.245525
H9    H     H_    0.267951 0.324329 0.342057 0.203334
H10   H     H_    0.368798 0.377485 0.358461 0.260064
H11   H     H_    0.723185 0.377387 0.374585 0.291682
H12   H     H_    0.698592 0.696411 0.943309 0.162837
H13   H     H_    0.836837 0.407709 0.289200 0.223517
H14   H     H_    0.832000 0.314768 0.364505 0.199670
H15   H     H_    0.270822 0.620099 0.628674 0.297096
H16   H     H_    0.172962 0.695348 0.625925 0.229897
H17   H     H_    0.145510 0.600576 0.698281 0.212532
H18   H     H_    0.992137 0.352597 0.315865 0.231115
H19   H     H_    0.107634 0.442295 0.211680 0.244652
H20   H     H_    0.073352 0.535736 0.299377 0.251610
H21   H     H_    0.987407 0.502179 0.242104 0.235237
H22   H     H_    0.017323 0.685239 0.633906 0.225379
H23   H     H_    0.878626 0.578946 0.628859 0.175613
H24   H     H_    0.993716 0.780220 0.520104 0.237125
H25   H     H_    0.040620 0.689442 0.430086 0.249279
H26   H     H_    0.124603 0.744181 0.478226 0.235652
H27   H     H_    0.112283 0.562434 0.027615 0.217259
H28   H     H_    0.017154 0.449234 0.990518 0.242701
H29   H     H_    0.127799 0.396490 0.902525 0.251481
H30   H     H_    0.076624 0.505578 0.883584 0.235186
H31   H     H_    0.826033 0.621828 0.972165 0.217567
H32   H     H_    0.937199 0.679709 0.040118 0.243531
H33   H     H_    0.898683 0.575930 0.096266 0.234844
H34   H     H_    0.100934 0.366726 0.432667 0.184755
H35   H     H_    0.841907 0.684728 0.155713 0.249472
H36   H     H_    0.285288 0.519422 0.263037 0.250623
H37   H     H_    0.357318 0.618340 0.260090 0.259657
H38   H     H_    0.237608 0.630610 0.251402 0.234609
H39   H     H_    0.635277 0.706048 0.799696 0.239363
H40   H     H_    0.500811 0.720127 0.837583 0.251831
H41   H     H_    0.567508 0.790239 0.890054 0.249394
H42   H     H_    0.302488 0.959022 0.448743 0.223993
H43   H     H_    0.303488 0.107102 0.550344 0.252063
H44   H     H_    0.359394 0.030737 0.609056 0.248294
H45   H     H_    0.459625 0.481234 0.210133 0.177594
H46   H     H_    0.236558 0.012626 0.607343 0.224089
H47   H     H_    0.673264 0.052208 0.581246 0.227025
H48   H     H_    0.495057 0.941605 0.627304 0.255175
H49   H     H_    0.495039 0.041096 0.700812 0.237511
H50   H     H_    0.584083 0.946783 0.685161 0.240460
H51   H     H_    0.300822 0.747909 0.489935 0.269404
H52   H     H_    0.314124 0.770780 0.604967 0.242759
H53   H     H_    0.258724 0.853366 0.555619 0.241062
H54   H     H_    0.508662 0.266363 0.666485 0.233690
H55   H     H_    0.587047 0.172511 0.671043 0.240388
H56   H     H_    0.533194 0.558348 0.790825 0.176836
H57   H     H_    0.640889 0.261920 0.597313 0.261472
H58   H     H_    0.738717 0.563569 0.214572 0.168778
H59   H     H_    0.248590 0.483190 0.791950 0.173688
H60   H     H_    0.669134 0.755597 0.418687 0.172355
N1    N     N_R   0.747530 0.500020 0.500000 -0.100439
N2    N     N_R   0.252470 0.499980 0.500000 -0.096324
N3    N     N_2   0.003165 0.414689 0.342472 -0.317267
N4    N     N_2   0.026935 0.656763 0.567846 -0.317473
N5    N     N_2   0.150007 0.508581 0.981852 -0.314506
N6    N     N_2   0.797298 0.640211 0.043522 -0.308178
N7    N     N_2   0.353602 0.981100 0.477202 -0.314977
N8    N     N_2   0.613245 0.026638 0.568400 -0.313279
O1    O     O_R   0.420530 0.630930 0.499990 -0.608814
O2    O     O_R   0.579470 0.369070 0.500010 -0.617282
O3    O     O_R   0.579480 0.630940 0.499990 -0.619674
O4    O     O_R   0.420520 0.369060 0.500010 -0.611031
O5    O     O_R   0.375120 0.499990 0.632240 -0.617745
O6    O     O_R   0.624880 0.500010 0.367760 -0.618582
O7    O     O_R   0.534080 0.500000 0.632240 -0.605964
O8    O     O_R   0.465920 0.500000 0.367760 -0.615824
Zn1   Zn    Zn3+2 0.393860 0.499990 0.500000 0.925447
Zn2   Zn    Zn3+2 0.606140 0.500010 0.500000 0.925361

loop_
_geom_bond_atom_site_label_1
_geom_bond_atom_site_label_2
_ccdc_geom_bond_type
C53   H52   S    
C25   C31   A    
C26   C32   A    
C23   C45   A    
C27   C29   A    
C2    C4    A    
O4    Zn1   S    
C2    C57   A    
C41   H9    S    
C30   H58   S    
C11   H23   S    
C51   H44   S    
C50   H41   S    
C40   H5    S    
C12   O4    A    
H47   N8    S    
H18   N3    S    
C44   H19   S    
C35   C37   A    
O1    Zn1   S    
O5    Zn1   S    
C18   C42   S    
C38   C39   A    
C11   C14   A    
C23   C49   S    
C54   H55   S    
C44   N3    S    
C33   C36   A    
C15   N2    A    
C21   N4    S    
C16   O5    A    
C7    H3    S    
C46   H24   S    
C43   H15   S    
C52   H49   S    
C48   H33   S    
O7    Zn2   S    
C31   C33   A    
C49   H36   S    
C4    C12   S    
C9    C10   S    
C31   H56   S    
C53   H53   S    
C43   H16   S    
C52   H48   S    
C34   C55   A    
C48   H32   S    
C17   O6    A    
C43   H17   S    
C16   O7    A    
C19   C43   S    
C41   H10   S    
C25   C29   A    
C34   C50   S    
C50   H40   S    
C48   H35   S    
H42   N7    S    
C51   N7    S    
C47   H28   S    
C6    H2    S    
C10   C57   A    
C15   C41   S    
C4    C6    A    
C2    C54   S    
C57   N8    S    
C5    C7    A    
C27   N5    S    
H22   N4    S    
C51   H46   S    
C29   H59   S    
C42   H11   S    
C13   C24   A    
C1    C3    S    
C47   H29   S    
C35   C39   A    
C32   C35   A    
O3    Zn2   S    
C47   N5    S    
O6    Zn2   S    
C54   H57   S    
C42   H14   S    
C32   H45   S    
C54   H54   S    
C36   C45   A    
C9    C56   A    
C56   N7    S    
C49   H37   S    
C20   N3    S    
O8    Zn1   S    
C46   H26   S    
C20   C22   A    
C19   N2    A    
C26   C30   A    
C40   H7    S    
C13   C15   A    
C13   H34   S    
C22   C24   S    
C17   C26   S    
C53   H51   S    
C16   C25   S    
C7    C9    A    
C45   H1    S    
C50   H39   S    
C52   N8    S    
C19   C21   A    
C34   C38   A    
C44   H21   S    
C1    O1    A    
C3    C5    A    
C48   N6    S    
C6    C8    A    
C53   C58   S    
C28   N6    S    
C41   H8    S    
C12   O2    A    
H31   N6    S    
C27   C36   A    
C51   H43   S    
C11   C22   A    
C1    O3    A    
N1    Zn2   S    
C40   H6    S    
C5    H60   S    
N2    Zn1   S    
C47   H30   S    
O2    Zn2   S    
C28   C30   A    
C28   C37   A    
C23   C39   A    
C44   H20   S    
C42   H13   S    
C56   C58   A    
H27   N5    S    
C18   C20   A    
C49   H38   S    
C55   H12   S    
C14   C40   S    
C46   H25   S    
C37   C55   A    
C3    C58   A    
C52   H50   S    
C8    C10   A    
C14   N1    A    
C21   C24   A    
C17   O8    A    
C46   N4    S    
C33   C38   A    
C18   N1    A    
C8    H4    S    
