data_mof_unit_561.cif
_audit_creation_date              2012-12-10T20:46:23-0500
_audit_creation_method            fapswitch 2.2
_symmetry_space_group_name_H-M    P1
_symmetry_Int_Tables_number       1
_space_group_crystal_system       triclinic
_cell_length_a                    10.692015
_cell_length_b                    8.92679
_cell_length_c                    8.102041
_cell_angle_alpha                 90.009908
_cell_angle_beta                  93.472179
_cell_angle_gamma                 90.050482
_cell_volume                      771.882469944

loop_
_atom_site_label
_atom_site_type_symbol
_atom_type_description
_atom_site_fract_x
_atom_site_fract_y
_atom_site_fract_z
_atom_type_partial_charge
C1    C     C_R   0.499688 0.217973 0.499946 0.942803
C2    C     C_1   0.499896 0.934785 0.500011 -0.207728
C3    C     C_3   0.900804 0.471971 0.819345 0.137473
C4    C     C_3   0.902083 0.643865 0.833164 -0.319960
C5    C     C_3   0.843897 0.696755 0.990240 -0.947054
C6    C     C_3   0.152496 0.785235 0.546276 0.039540
C7    C     C_3   0.075186 0.926423 0.571947 -0.337738
C8    C     C_3   0.157691 0.066241 0.579944 -0.928470
C9    C     C_R   0.500167 0.782013 0.500005 0.929332
C10   C     C_R   0.261993 0.507032 0.494098 0.755410
C11   C     C_R   0.739317 0.488258 0.506365 0.757201
C12   C     C_2   0.928906 0.436262 0.378258 -0.229362
C13   C     C_2   0.063860 0.432289 0.382554 -0.231894
C14   C     C_2   0.872823 0.452868 0.520458 0.406101
C15   C     C_2   0.130091 0.533002 0.473867 0.435331
C16   C     C_1   0.499765 0.065181 0.499965 -0.207205
H1    H     H_    0.878154 0.433989 0.258084 0.130796
H2    H     H_    0.201233 0.798941 0.429262 0.132921
H3    H     H_    0.222765 0.773385 0.652476 0.165048
H4    H     H_    0.002873 0.938224 0.468274 0.230038
H5    H     H_    0.026861 0.917003 0.689030 0.220903
H6    H     H_    0.231328 0.056593 0.682144 0.268652
H7    H     H_    0.099377 0.166004 0.602941 0.291781
H8    H     H_    0.202818 0.082225 0.461255 0.252592
H9    H     H_    0.108649 0.342667 0.316934 0.120614
H10   H     H_    0.967693 0.429757 0.918894 0.145763
H11   H     H_    0.811155 0.418822 0.848730 0.152931
H12   H     H_    0.000663 0.683455 0.836855 0.241686
H13   H     H_    0.850551 0.696224 0.725107 0.229320
H14   H     H_    0.746726 0.653613 0.994867 0.279252
H15   H     H_    0.841109 0.821084 0.992123 0.262798
H16   H     H_    0.901084 0.658131 0.100895 0.265224
N1    N     N_1   0.500000 0.500000 0.073640 -0.040078
N2    N     N_1   0.500000 0.500000 0.926360 -0.045767
O1    O     O_R   0.500000 0.285350 0.636850 -0.611325
O2    O     O_3   0.072179 0.658957 0.538049 -0.649453
O3    O     O_R   0.500000 0.714650 0.636850 -0.616948
O4    O     O_R   0.500000 0.285360 0.363100 -0.611619
O5    O     O_R   0.500000 0.714640 0.363100 -0.606911
O6    O     O_R   0.319080 0.500000 0.636840 -0.601774
O7    O     O_R   0.680920 0.500000 0.636840 -0.627815
O8    O     O_R   0.319090 0.500000 0.363090 -0.640887
O9    O     O_R   0.680910 0.500000 0.363090 -0.628455
O10   O     O_3   0.944646 0.419995 0.668118 -0.643537
Zn1   Zn    Zn3+2 0.500000 0.500000 0.682780 0.970796
Zn2   Zn    Zn3+2 0.500000 0.500000 0.317220 0.969670

loop_
_geom_bond_atom_site_label_1
_geom_bond_atom_site_label_2
_ccdc_geom_bond_type
C12   H1    S    
C8    H6    S    
C11   O9    A    
C6    C7    S    
C6    H3    S    
C10   O8    A    
C2    C16   T    
C4    H13   S    
C5    H16   S    
C3    H11   S    
N1    N2    T    
C7    C8    S    
C1    C16   S    
N1    Zn2   S    
C13   H9    S    
C1    O4    A    
O5    Zn2   S    
C10   O6    A    
C11   C14   S    
C6    O2    S    
C11   O7    A    
C10   C15   S    
C13   C15   D    
O6    Zn1   S    
C6    H2    S    
O9    Zn2   S    
C3    O10   S    
O4    Zn2   S    
O3    Zn1   S    
C3    C4    S    
O1    Zn1   S    
C15   O2    S    
C9    O5    A    
C8    H7    S    
C12   C13   S    
C1    O1    A    
C14   O10   S    
C7    H4    S    
O8    Zn2   S    
N2    Zn1   S    
O7    Zn1   S    
C8    H8    S    
C7    H5    S    
C2    C9    S    
C4    H12   S    
C3    H10   S    
C5    H14   S    
C12   C14   D    
C4    C5    S    
C5    H15   S    
C9    O3    A    
