data_mof_unit_3653.cif
_audit_creation_date              2012-12-10T20:48:17-0500
_audit_creation_method            fapswitch 2.2
_symmetry_space_group_name_H-M    P1
_symmetry_Int_Tables_number       1
_space_group_crystal_system       triclinic
_cell_length_a                    10.683998
_cell_length_b                    8.914041
_cell_length_c                    8.10451
_cell_angle_alpha                 89.974312
_cell_angle_beta                  89.840628
_cell_angle_gamma                 89.944477
_cell_volume                      771.850625892

loop_
_atom_site_label
_atom_site_type_symbol
_atom_type_description
_atom_site_fract_x
_atom_site_fract_y
_atom_site_fract_z
_atom_type_partial_charge
C1    C     C_R   0.499846 0.218032 0.499927 0.914094
C2    C     C_1   0.500344 0.934713 0.499828 -0.205541
C3    C     C_3   0.070224 0.605777 0.644395 -0.402876
C4    C     C_3   0.927569 0.615094 0.634734 -0.402534
C5    C     C_3   0.121437 0.507690 0.499787 -0.167076
C6    C     C_3   0.879124 0.507711 0.497968 -0.121599
C7    C     C_3   0.174096 0.142253 0.656863 -0.225779
C8    C     C_3   0.138025 0.817641 0.349540 -0.185044
C9    C     C_3   0.824876 0.152447 0.672244 -0.210164
C10   C     C_3   0.853667 0.728556 0.123369 -0.223171
C11   C     C_R   0.257290 0.505637 0.500076 0.931222
C12   C     C_R   0.742875 0.505122 0.499571 0.948223
C13   C     C_R   0.500370 0.781953 0.499957 0.930385
C14   C     C_1   0.500184 0.065155 0.499749 -0.236836
C15   C     C_3   0.073566 0.343795 0.527601 0.317349
C16   C     C_3   0.071062 0.561834 0.326560 0.290913
C17   C     C_3   0.928064 0.344817 0.530490 0.299579
C18   C     C_3   0.926903 0.564468 0.325984 0.246576
H1    H     H_    0.103802 0.275352 0.418585 -0.031762
H2    H     H_    0.103076 0.060533 0.614146 0.119939
H3    H     H_    0.211124 0.102384 0.776849 0.188247
H4    H     H_    0.220171 0.809155 0.432330 0.118127
H5    H     H_    0.051062 0.842889 0.418738 0.180819
H6    H     H_    0.155349 0.915367 0.267911 0.164865
H7    H     H_    0.890240 0.066145 0.623790 0.132343
H8    H     H_    0.741777 0.159864 0.591280 0.140474
H9    H     H_    0.792949 0.116045 0.796277 0.175733
H10   H     H_    0.936941 0.702155 0.045923 0.176268
H11   H     H_    0.828115 0.847378 0.100518 0.168401
H12   H     H_    0.095596 0.469289 0.239805 0.070761
H13   H     H_    0.772957 0.657836 0.085808 0.166525
H14   H     H_    0.895337 0.273431 0.425351 -0.024881
H15   H     H_    0.894341 0.481135 0.231794 0.050354
H16   H     H_    0.095930 0.554412 0.764864 0.254292
H17   H     H_    0.111629 0.719350 0.649320 0.144287
H18   H     H_    0.887879 0.584715 0.757363 0.214624
H19   H     H_    0.898110 0.732520 0.609142 0.184745
H20   H     H_    0.252947 0.146059 0.567821 0.130563
N1    N     N_1   0.500000 0.500030 0.073640 -0.034701
N2    N     N_1   0.500000 0.500030 0.926360 -0.034591
O1    O     O_R   0.500000 0.285340 0.636850 -0.610799
O2    O     O_3   0.128742 0.688703 0.249806 -0.565297
O3    O     O_3   0.883531 0.293528 0.686499 -0.538933
O4    O     O_3   0.879124 0.710419 0.293127 -0.588231
O5    O     O_R   0.500000 0.285340 0.363150 -0.619369
O6    O     O_R   0.314790 0.499970 0.636880 -0.594166
O7    O     O_R   0.314790 0.499970 0.363120 -0.609717
O8    O     O_R   0.685210 0.499970 0.636880 -0.607480
O9    O     O_R   0.685210 0.499970 0.363120 -0.635380
O10   O     O_R   0.500000 0.714650 0.636900 -0.634782
O11   O     O_R   0.500000 0.714650 0.363100 -0.603722
O12   O     O_3   0.121377 0.286015 0.678948 -0.535335
Zn1   Zn    Zn3+2 0.500000 0.499990 0.682780 0.993769
Zn2   Zn    Zn3+2 0.500000 0.499990 0.317220 0.996289

loop_
_geom_bond_atom_site_label_1
_geom_bond_atom_site_label_2
_ccdc_geom_bond_type
C7    O12   S    
C1    O1    A    
C8    H4    S    
C17   O3    S    
C18   O4    S    
C9    H8    S    
O9    Zn2   S    
C11   O7    A    
C3    H17   S    
C12   O8    A    
O11   Zn2   S    
O1    Zn1   S    
C4    H18   S    
C12   O9    A    
C9    H7    S    
C13   O11   A    
C15   O12   S    
C15   H1    S    
C2    C13   S    
C10   H11   S    
C1    O5    A    
O7    Zn2   S    
C6    C18   S    
O6    Zn1   S    
C16   C18   S    
C8    H6    S    
C7    H20   S    
C8    O2    S    
O5    Zn2   S    
C5    C11   S    
C6    C12   S    
O8    Zn1   S    
C2    C14   T    
C18   H15   S    
C9    O3    S    
O10   Zn1   S    
C5    C15   S    
C17   H14   S    
C16   H12   S    
C13   O10   A    
N1    Zn2   S    
C16   O2    S    
C8    H5    S    
C4    H19   S    
C9    H9    S    
C4    C6    S    
C7    H2    S    
N2    Zn1   S    
C10   H10   S    
N1    N2    T    
C15   C17   S    
C6    C17   S    
C11   O6    A    
C1    C14   S    
C3    H16   S    
C3    C5    S    
C7    H3    S    
C10   O4    S    
C10   H13   S    
C3    C4    S    
C5    C16   S    
