data_mof_unit_729.cif
_audit_creation_date              2012-10-26T21:00:16-0400
_audit_creation_method            fapswitch 2.2
_symmetry_space_group_name_H-M    P1
_symmetry_Int_Tables_number       1
_space_group_crystal_system       triclinic
_cell_length_a                    19.296617
_cell_length_b                    8.725793
_cell_length_c                    7.443549
_cell_angle_alpha                 102.744243
_cell_angle_beta                  94.492133
_cell_angle_gamma                 92.451361
_cell_volume                      1216.37415673

loop_
_atom_site_label
_atom_site_type_symbol
_atom_type_description
_atom_site_fract_x
_atom_site_fract_y
_atom_site_fract_z
_atom_type_partial_charge
C1    C     C_R   0.496621 0.200293 0.454321 0.577962
C2    C     C_R   0.815070 0.440729 0.351865 0.246016
C3    C     C_R   0.145163 0.493778 0.510148 -0.044534
C4    C     C_R   0.854773 0.523671 0.513927 0.013493
C5    C     C_R   0.174843 0.450475 0.339951 -0.057351
C6    C     C_R   0.821513 0.599378 0.669140 -0.044505
C7    C     C_R   0.247528 0.458312 0.340054 -0.171024
C8    C     C_R   0.748901 0.589472 0.658857 -0.237448
C9    C     C_R   0.290675 0.486187 0.505945 -0.075010
C10   C     C_R   0.708813 0.509146 0.497672 -0.021774
C11   C     C_R   0.930485 0.522009 0.519584 0.416848
C12   C     C_R   0.503472 0.799994 0.546190 0.575411
C13   C     C_R   0.069737 0.506007 0.516215 0.331398
C14   C     C_3   0.303577 0.325916 0.829839 -0.079569
C15   C     C_3   0.701867 0.439290 0.045192 -0.068803
C16   C     C_3   0.171394 0.716396 0.923942 -0.067716
C17   C     C_3   0.852260 0.204818 0.210123 -0.082546
C18   C     C_2   0.131213 0.384844 0.163757 0.295823
C19   C     C_2   0.859384 0.691399 0.844237 0.262265
C20   C     C_3   0.376940 0.967251 0.289985 -0.122750
C21   C     C_3   0.525831 0.070186 0.884219 -0.046753
C22   C     C_2   0.486110 0.033655 0.433495 0.232447
C23   C     C_2   0.511932 0.967576 0.569778 0.223727
C24   C     C_R   0.367212 0.494822 0.501615 0.535640
C25   C     C_R   0.632561 0.501270 0.498231 0.579770
C26   C     C_R   0.259635 0.499764 0.673832 0.262497
C27   C     C_R   0.741842 0.438811 0.340676 0.263026
C28   C     C_R   0.188054 0.520862 0.677242 0.292914
Cu1   Cu    Cu3+1 0.507710 0.517380 0.684380 0.973621
Cu2   Cu    Cu3+1 0.492290 0.482620 0.315620 0.977963
H1    H     H_    0.270407 0.437163 0.209748 0.204008
H2    H     H_    0.753709 0.445383 0.991142 0.159824
H3    H     H_    0.148582 0.789266 0.831552 0.126095
H4    H     H_    0.228007 0.748731 0.959116 0.126064
H5    H     H_    0.145780 0.743975 0.054635 0.161035
H6    H     H_    0.799610 0.143965 0.196021 0.152668
H7    H     H_    0.882037 0.192633 0.339974 0.127020
H8    H     H_    0.880400 0.144585 0.092745 0.168383
H9    H     H_    0.075410 0.394536 0.152555 0.163526
H10   H     H_    0.831082 0.729095 0.965248 0.096232
H11   H     H_    0.346911 0.890478 0.167469 0.161301
H12   H     H_    0.723175 0.647600 0.777468 0.119492
H13   H     H_    0.364486 0.090870 0.291583 0.105520
H14   H     H_    0.359559 0.931929 0.415057 0.093105
H15   H     H_    0.468550 0.083046 0.868613 0.086114
H16   H     H_    0.537360 0.970599 0.949912 0.175746
H17   H     H_    0.549728 0.178191 0.980642 0.186792
H18   H     H_    0.447465 0.375033 0.947629 0.229263
H19   H     H_    0.553282 0.624104 0.051859 0.237640
H20   H     H_    0.251848 0.259963 0.806841 0.171706
H21   H     H_    0.336952 0.270813 0.721145 0.079558
H22   H     H_    0.328449 0.312662 0.964311 0.123327
H23   H     H_    0.684221 0.560055 0.094534 0.091688
H24   H     H_    0.664441 0.377676 0.928280 0.179929
N1    N     N_R   0.034238 0.431068 0.625357 -0.140145
N2    N     N_R   0.965900 0.598221 0.411846 -0.164713
N3    N     N_R   0.965615 0.438820 0.626901 -0.186763
N4    N     N_R   0.034560 0.591213 0.411214 -0.242218
N5    N     N_2   0.480680 0.456420 0.038530 -0.252101
N6    N     N_2   0.519320 0.543580 0.961470 -0.248764
O1    O     O_R   0.505010 0.286130 0.619770 -0.502958
O2    O     O_3   0.702671 0.352782 0.184450 -0.554614
O3    O     O_3   0.158930 0.554381 0.844272 -0.493494
O4    O     O_3   0.848183 0.364201 0.202103 -0.557380
O5    O     O_2   0.156994 0.310985 0.029121 -0.489990
O6    O     O_2   0.921429 0.729708 0.855770 -0.463818
O7    O     O_3   0.448479 0.946192 0.274410 -0.578583
O8    O     O_3   0.557021 0.053533 0.716043 -0.594792
O9    O     O_R   0.494990 0.713870 0.380230 -0.467179
O10   O     O_R   0.491990 0.256780 0.308370 -0.516527
O11   O     O_R   0.508010 0.743220 0.691630 -0.510042
O12   O     O_R   0.406650 0.514660 0.655750 -0.458276
O13   O     O_R   0.593350 0.485340 0.344250 -0.479859
O14   O     O_R   0.393640 0.485310 0.344340 -0.510921
O15   O     O_R   0.606360 0.514690 0.655660 -0.525451
O16   O     O_3   0.297745 0.487879 0.834828 -0.528487

loop_
_geom_bond_atom_site_label_1
_geom_bond_atom_site_label_2
_ccdc_geom_bond_type
C10   C27   A    
C23   O8    S    
Cu1   O11   S    
C2    C4    A    
C18   H9    S    
C15   H24   S    
C9    C24   S    
Cu1   Cu2   S    
Cu1   O15   S    
C17   H6    S    
C16   H3    S    
C5    C7    A    
Cu2   O10   S    
C20   O7    S    
C26   C28   A    
C1    O10   A    
C3    C13   S    
Cu1   N6    S    
C12   O9    A    
Cu1   O12   S    
Cu2   N5    S    
C20   H13   S    
C20   H11   S    
N5    N6    D    
C16   H5    S    
Cu1   O1    S    
C17   H7    S    
C4    C11   S    
C6    C19   S    
C12   C23   S    
C24   O14   A    
C2    C27   A    
H19   N6    S    
H18   N5    S    
C14   O16   S    
C15   H23   S    
C10   C25   S    
C4    C6    A    
C3    C28   A    
C16   O3    S    
C12   O11   A    
C2    O4    S    
C9    C26   A    
C20   H14   S    
C21   H15   S    
C17   H8    S    
N1    N3    A    
C17   O4    S    
C13   N4    A    
Cu2   O14   S    
C21   H17   S    
C22   O7    S    
C14   H21   S    
C7    H1    S    
C19   H10   S    
C14   H20   S    
C25   O13   A    
C8    H12   S    
C26   O16   S    
C21   O8    S    
C28   O3    S    
C3    C5    A    
C15   H2    S    
Cu2   O9    S    
C24   O12   A    
C19   O6    D    
C8    C10   A    
C21   H16   S    
C7    C9    A    
Cu2   O13   S    
C22   C23   D    
C1    C22   S    
C6    C8    A    
C5    C18   S    
C25   O15   A    
C16   H4    S    
C11   N3    A    
C18   O5    D    
C15   O2    S    
C14   H22   S    
C11   N2    A    
C27   O2    S    
N2    N4    A    
C13   N1    A    
C1    O1    A    
