data_mof_unit_4109.cif
_audit_creation_date              2012-12-10T17:03:56-0500
_audit_creation_method            fapswitch 2.2
_symmetry_space_group_name_H-M    P1
_symmetry_Int_Tables_number       1
_space_group_crystal_system       triclinic
_cell_length_a                    9.830566
_cell_length_b                    11.070131
_cell_length_c                    15.772186
_cell_angle_alpha                 94.424293
_cell_angle_beta                  78.982329
_cell_angle_gamma                 112.340973
_cell_volume                      1558.29991658

loop_
_atom_site_label
_atom_site_type_symbol
_atom_type_description
_atom_site_fract_x
_atom_site_fract_y
_atom_site_fract_z
_atom_type_partial_charge
C1    C     C_R   0.558524 0.745695 0.503824 0.847803
C2    C     C_R   0.441599 0.254311 0.495996 0.849798
C3    C     C_R   0.325068 0.464981 0.080961 -0.230760
C4    C     C_R   0.678134 0.615384 0.926736 -0.232518
C5    C     C_R   0.218962 0.432691 0.027981 -0.223955
C6    C     C_R   0.783340 0.650386 0.980580 -0.223011
C7    C     C_2   0.587281 0.884249 0.513149 -0.362707
C8    C     C_2   0.413238 0.115858 0.486217 -0.363163
C9    C     C_2   0.507667 0.938932 0.479885 0.209158
C10   C     C_2   0.492604 0.060980 0.519544 0.209116
C11   C     C_2   0.920174 0.486251 0.496184 -0.093317
C12   C     C_2   0.079344 0.512957 0.504328 -0.094224
C13   C     C_R   0.409196 0.482211 0.663109 0.812379
C14   C     C_R   0.591277 0.520529 0.337263 0.814425
C15   C     C_R   0.351213 0.468331 0.757373 -0.114640
C16   C     C_R   0.651941 0.550243 0.244549 -0.113382
C17   C     C_R   0.151366 0.407842 0.883661 0.174916
C18   C     C_R   0.850743 0.651693 0.123117 0.174327
C19   C     C_R   0.197618 0.406252 0.792787 0.169150
C20   C     C_R   0.802346 0.631314 0.213421 0.167056
C21   C     C_R   0.455918 0.517125 0.812386 -0.308518
C22   C     C_R   0.550727 0.504440 0.187478 -0.308393
C23   C     C_R   0.415252 0.505375 0.902493 0.046059
C24   C     C_R   0.589393 0.545606 0.101295 0.046843
C25   C     C_R   0.260851 0.448980 0.938229 0.105409
C26   C     C_R   0.742386 0.615489 0.067990 0.104831
C27   C     C_R   0.524841 0.545711 0.957733 0.096507
C28   C     C_R   0.479424 0.516892 0.047320 0.097430
Cu1   Cu    Cu3+1 0.362980 0.479380 0.485080 0.931353
Cu2   Cu    Cu3+1 0.637020 0.520620 0.514920 0.929933
H1    H     H_    0.103172 0.390625 0.058816 0.158486
H2    H     H_    0.897444 0.707598 0.952444 0.155566
H3    H     H_    0.440083 0.436914 0.212552 0.170953
H4    H     H_    0.571077 0.559336 0.782306 0.173733
H5    H     H_    0.281641 0.451273 0.149020 0.141567
H6    H     H_    0.721381 0.649925 0.861492 0.144322
H7    H     H_    0.340698 0.064205 0.440613 0.134001
H8    H     H_    0.660306 0.936208 0.558457 0.134516
H9    H     H_    0.133934 0.590708 0.546754 0.175013
H10   H     H_    0.865244 0.407828 0.454265 0.174494
N1    N     N_2   0.842890 0.551600 0.537350 -0.219436
N2    N     N_2   0.157110 0.448400 0.462650 -0.219308
O1    O     O_R   0.426810 0.668300 0.492040 -0.562951
O2    O     O_R   0.573190 0.331700 0.507960 -0.563036
O3    O     O_R   0.658240 0.703130 0.517240 -0.587234
O4    O     O_R   0.341760 0.296870 0.482760 -0.585877
O5    O     O_R   0.319390 0.472820 0.610170 -0.576320
O6    O     O_R   0.680610 0.527180 0.389830 -0.577181
O7    O     O_R   0.550820 0.507640 0.635370 -0.579044
O8    O     O_R   0.449180 0.492360 0.364630 -0.577484
C29   C     C_3   0.906137 0.703865 0.276147 -0.852281
H11   H     H_    0.846585 0.745310 0.330201 0.223368
H12   H     H_    0.948942 0.637046 0.301639 0.242271
H13   H     H_    0.001730 0.790049 0.246795 0.227588
C30   C     C_3   0.086453 0.329008 0.735022 -0.846199
H14   H     H_    0.136515 0.274454 0.685017 0.223459
H15   H     H_    0.987118 0.251768 0.770540 0.228026
H16   H     H_    0.050145 0.395557 0.703926 0.240771
C31   C     C_3   0.986628 0.367594 0.922377 -0.898367
H17   H     H_    0.917931 0.370637 0.875040 0.246791
H18   H     H_    0.943470 0.268000 0.949933 0.233939
H19   H     H_    0.969700 0.437431 0.973646 0.230809
C32   C     C_3   0.016278 0.710678 0.085694 -0.902050
H20   H     H_    0.087359 0.701890 0.129778 0.248044
H21   H     H_    0.042964 0.657004 0.026628 0.228714
H22   H     H_    0.048456 0.814989 0.069882 0.234352
C33   C     C_3   0.560707 0.119023 0.599583 -0.827015
H23   H     H_    0.528575 0.041602 0.648493 0.212231
H24   H     H_    0.684340 0.163232 0.581902 0.231015
H25   H     H_    0.518686 0.193435 0.632672 0.231905
C34   C     C_3   0.439103 0.880542 0.400041 -0.825227
H26   H     H_    0.471216 0.957709 0.350956 0.211940
H27   H     H_    0.480777 0.805848 0.367079 0.232807
H28   H     H_    0.315479 0.836588 0.417907 0.231092
C35   C     C_R   0.086897 0.335020 0.414630 0.325862
C36   C     C_R   0.084521 0.345183 0.326924 -0.201049
C37   C     C_R   0.017721 0.233220 0.279331 -0.167507
C38   C     C_R   0.953849 0.110781 0.319067 -0.098974
C39   C     C_R   0.956553 0.100217 0.406453 -0.180384
C40   C     C_R   0.022559 0.212063 0.454292 -0.157034
H29   H     H_    0.133838 0.439759 0.295982 0.126145
H30   H     H_    0.015758 0.241323 0.211659 0.135485
H31   H     H_    0.902563 0.024106 0.282156 0.133757
H32   H     H_    0.907967 0.005396 0.436991 0.137873
H33   H     H_    0.024043 0.203274 0.521994 0.127415
C41   C     C_R   0.914275 0.666214 0.584029 0.326360
C42   C     C_R   0.977905 0.788088 0.542956 -0.156311
C43   C     C_R   0.046777 0.901028 0.589056 -0.181034
C44   C     C_R   0.053728 0.892626 0.676006 -0.095930
C45   C     C_R   0.990625 0.771323 0.717172 -0.169508
C46   C     C_R   0.920084 0.658292 0.671516 -0.207247
H34   H     H_    0.973898 0.795194 0.475453 0.128738
H35   H     H_    0.094598 0.994999 0.557448 0.138294
H36   H     H_    0.107748 0.980106 0.711479 0.130177
H37   H     H_    0.996239 0.764964 0.784452 0.133319
H38   H     H_    0.870956 0.564716 0.703813 0.130890

loop_
_geom_bond_atom_site_label_1
_geom_bond_atom_site_label_2
_ccdc_geom_bond_type
C6    H2    S    
C42   C43   A    
C4    H6    S    
Cu1   N2    S    
Cu2   O3    S    
C18   C26   A    
C30   H14   S    
C32   H21   S    
C45   H37   S    
C6    C26   A    
C10   C33   S    
C2    O4    A    
C15   C19   A    
N1    C41   S    
N2    C35   S    
C40   H33   S    
Cu1   O5    S    
C22   C24   A    
Cu2   O6    S    
C3    C28   A    
C24   C26   A    
C20   C29   S    
C41   C46   A    
C39   H32   S    
C18   C32   S    
C44   H36   S    
C12   N2    D    
C46   H38   S    
C38   H31   S    
C1    O1    A    
C2    O2    A    
Cu2   N1    S    
C23   C27   A    
C9    C10   S    
C18   C20   A    
C32   H22   S    
C31   H17   S    
C1    C7    S    
C42   H34   S    
Cu1   O1    S    
Cu2   O2    S    
Cu1   O8    S    
C31   H18   S    
C33   H23   S    
C24   C28   A    
C36   C37   A    
C4    C6    A    
C34   H27   S    
C41   C42   A    
C14   O6    A    
C21   H4    S    
C37   C38   A    
C29   H11   S    
C33   H24   S    
C35   C36   A    
Cu1   Cu2   S    
C3    H5    S    
C16   C20   A    
C30   H15   S    
C17   C31   S    
C5    C25   A    
Cu2   O7    S    
C13   C15   S    
C13   O7    A    
C39   C40   A    
C8    H7    S    
C4    C27   A    
C13   O5    A    
C35   C40   A    
C19   C30   S    
C7    C9    D    
C22   H3    S    
C43   H35   S    
C31   H19   S    
C16   C22   A    
C38   C39   A    
C2    C8    S    
C9    C34   S    
C3    C5    A    
C36   H29   S    
C34   H28   S    
C11   C12   S    
Cu1   O4    S    
C33   H25   S    
C17   C25   A    
C29   H13   S    
C12   H9    S    
C21   C23   A    
C34   H26   S    
C1    O3    A    
C45   C46   A    
C14   O8    A    
C37   H30   S    
C17   C19   A    
C7    H8    S    
C11   N1    D    
C14   C16   S    
C23   C25   A    
C11   H10   S    
C32   H20   S    
C15   C21   A    
C43   C44   A    
C8    C10   D    
C30   H16   S    
C27   C28   A    
C29   H12   S    
C44   C45   A    
C5    H1    S    
