data_mof_unit_3637.cif
_audit_creation_date              2013-03-05T16:04:18-0500
_audit_creation_method            fapswitch 2.2
_symmetry_space_group_name_H-M    P1
_symmetry_Int_Tables_number       1
_space_group_crystal_system       triclinic
_cell_length_a                    8.277864
_cell_length_b                    14.255368
_cell_length_c                    19.141169
_cell_angle_alpha                 97.461196
_cell_angle_beta                  91.994527
_cell_angle_gamma                 91.4425
_cell_volume                      2237.24789449

loop_
_atom_site_label
_atom_site_type_symbol
_atom_site_description
_atom_site_fract_x
_atom_site_fract_y
_atom_site_fract_z
_atom_type_partial_charge
P1    P     P_3+3 0.064140 0.407250 0.340900 0.487840
O1    O     O_2   0.890230 0.433890 0.328780 -0.400906
O2    O     O_3   0.136580 0.442380 0.417110 -0.347543
O3    O     O_3   0.636390 0.607640 0.365630 -0.364857
O4    O     O_2   0.720820 0.543896 0.240158 -0.425165
O5    O     O_3   0.067009 0.283862 0.317184 -0.609240
O6    O     O_3   0.656809 0.725145 0.257884 -0.536679
H1    H     H_    0.597401 0.789715 0.356606 0.124372
C1    C     C_3   0.609106 0.890541 0.283080 -0.913255
H2    H     H_    0.737950 0.909225 0.298214 0.285652
H3    H     H_    0.588255 0.894014 0.225814 0.255523
P2    P     P_3+3 0.622060 0.719380 0.547490 0.450604
P3    P     P_3+3 0.061855 0.780995 0.398282 0.467324
O7    O     O_2   0.794910 0.731270 0.525620 -0.388960
O8    O     O_3   0.045950 0.658760 0.399470 -0.394532
O9    O     O_2   0.927744 0.828280 0.443318 -0.367417
O10   O     O_3   0.630084 0.754753 0.638571 -0.574178
O11   O     O_3   0.018746 0.809688 0.313515 -0.519980
C2    C     C_3   0.056349 0.733018 0.263598 0.353872
H4    H     H_    0.957953 0.678171 0.259477 0.159616
H5    H     H_    0.170741 0.701148 0.278688 0.035419
C3    C     C_3   0.078672 0.765594 0.191269 -0.739599
H6    H     H_    0.073057 0.702595 0.150093 0.146276
C4    C     C_3   0.181654 0.751996 0.611659 0.446944
H7    H     H_    0.304577 0.728560 0.598601 0.100888
H8    H     H_    0.095064 0.728206 0.566838 0.122773
C5    C     C_3   0.182734 0.859774 0.625013 -1.019522
H9    H     H_    0.275715 0.886238 0.666690 0.274963
H10   H     H_    0.210229 0.890476 0.576292 0.234949
H11   H     H_    0.061926 0.883614 0.642324 0.246251
Ba1   Ba    Ba6+2 0.843770 0.541130 0.463760 1.573184
C6    C     C_3   0.955648 0.234894 0.353390 0.787666
H12   H     H_    0.848506 0.277137 0.367551 0.022551
C7    C     C_3   0.896125 0.144653 0.305886 -0.888054
H13   H     H_    0.821102 0.163266 0.260568 0.234044
H14   H     H_    0.821234 0.098902 0.336043 0.233956
H15   H     H_    0.001345 0.103973 0.285056 0.281991
C8    C     C_3   0.722700 0.693286 0.673357 0.440538
H16   H     H_    0.827414 0.668006 0.642787 0.087255
H17   H     H_    0.646086 0.631340 0.683012 0.124396
C9    C     C_3   0.785511 0.747743 0.743219 -0.897748
H18   H     H_    0.872852 0.804644 0.733502 0.252224
H19   H     H_    0.846304 0.699775 0.775961 0.207859
H20   H     H_    0.683971 0.780966 0.772730 0.284081
P4    P     P_3+3 0.125560 0.592830 0.659110 0.488650
O12   O     O_2   0.299470 0.566150 0.671260 -0.310723
O13   O     O_3   0.053110 0.557700 0.582890 -0.424963
O14   O     O_3   0.553300 0.392440 0.634370 -0.385555
O15   O     O_3   0.135443 0.716734 0.673044 -0.569551
P5    P     P_3+3 0.124739 0.218108 0.605378 0.533964
O16   O     O_3   0.638180 0.384440 0.468210 -0.404449
O17   O     O_3   0.143740 0.341320 0.600540 -0.289162
O18   O     O_2   0.248997 0.171934 0.554234 -0.328891
O19   O     O_3   0.195712 0.183647 0.685725 -0.605980
Ba2   Ba    Ba6+2 0.346040 0.458940 0.536250 1.627038
P6    P     P_3+3 0.599558 0.612607 0.276702 0.416080
C10   C     C_3   0.566990 0.791657 0.299828 0.412545
H21   H     H_    0.434933 0.778066 0.289042 0.025931
H22   H     H_    0.531658 0.942850 0.313008 0.227142
O20   O     O_3   0.551510 0.615640 0.531790 -0.392662
C11   C     C_3   0.505802 0.311572 0.325584 0.418965
H23   H     H_    0.390073 0.338362 0.346246 0.113380
H24   H     H_    0.600289 0.369023 0.335047 0.120903
C12   C     C_3   0.483881 0.283404 0.246507 -0.965771
H25   H     H_    0.383071 0.229808 0.234586 0.284940
H26   H     H_    0.455894 0.346686 0.220786 0.217860
H27   H     H_    0.596798 0.253130 0.224864 0.256607
P7    P     P_3+3 0.572324 0.265961 0.448530 0.430685
O21   O     O_2   0.394780 0.268760 0.474430 -0.285221
O22   O     O_3   0.551499 0.232373 0.357309 -0.581854
H28   H     H_    0.200782 0.800456 0.190538 0.220861
C13   C     C_3   0.108667 0.223801 0.743795 0.667564
H29   H     H_    0.986526 0.245547 0.727101 -0.112570
C14   C     C_3   0.086221 0.147474 0.795322 -0.129903
H30   H     H_    0.176466 0.091599 0.782348 0.099320
P8    P     P_3+3 0.602291 0.377912 0.721013 0.521943
C15   C     C_3   0.584939 0.199212 0.679773 0.557552
H31   H     H_    0.718212 0.201417 0.675480 -0.034279
O23   O     O_2   0.491283 0.446248 0.764541 -0.306706
O24   O     O_3   0.542591 0.264254 0.737175 -0.444210
H32   H     H_    0.525868 0.216100 0.630059 0.100894
H33   H     H_    0.635128 0.050837 0.686892 0.200451
C16   C     C_3   0.530085 0.098678 0.690443 -0.807497
H34   H     H_    0.438235 0.069601 0.648529 0.228748
H35   H     H_    0.476070 0.097524 0.743000 0.293127
C17   C     C_R   0.040962 0.554536 0.799249 -0.316491
H36   H     H_    0.114231 0.616456 0.819787 0.142615
C18   C     C_R   0.008941 0.537119 0.725147 0.348588
C19   C     C_R   0.878626 0.415178 0.811931 -0.217932
H37   H     H_    0.839174 0.357009 0.838661 0.195396
C20   C     C_R   0.810246 0.419140 0.744626 0.162438
C21   C     C_R   0.320667 0.577053 0.184879 -0.354680
H38   H     H_    0.364075 0.633353 0.157117 0.153945
C22   C     C_R   0.391320 0.571193 0.251703 0.243432
C23   C     C_R   0.142297 0.446586 0.201381 -0.297694
H39   H     H_    0.066013 0.385334 0.182430 0.157626
C24   C     C_R   0.176023 0.465838 0.275181 0.308752
C25   C     C_R   0.986663 0.488240 0.844656 0.109786
C26   C     C_R   0.884888 0.473581 0.699676 -0.380588
H40   H     H_    0.841686 0.469358 0.645319 0.140275
C27   C     C_R   0.202911 0.508227 0.153992 0.097672
C28   C     C_R   0.308412 0.523904 0.298847 -0.448698
H41   H     H_    0.352247 0.528054 0.353090 0.158301
C29   C     C_R   0.771681 0.437994 0.958542 -0.157966
C30   C     C_R   0.675411 0.397649 0.005267 -0.003747
C31   C     C_R   0.721712 0.408223 0.075726 -0.119457
C32   C     C_R   0.867423 0.454438 0.097688 -0.176246
C33   C     C_R   0.985909 0.473518 0.049716 0.083362
C34   C     C_R   0.934773 0.467378 0.976303 0.107565
C35   C     C_R   0.148035 0.501322 0.074250 -0.058340
C36   C     C_R   0.256341 0.524271 0.021309 0.100483
C37   C     C_R   0.204350 0.520948 0.948230 0.053504
C38   C     C_R   0.042238 0.492806 0.923825 -0.030861
C39   C     C_R   0.420958 0.548782 0.038559 -0.165870
C40   C     C_R   0.518499 0.590756 0.993264 -0.242630
C41   C     C_R   0.469660 0.587918 0.923265 -0.004867
C42   C     C_R   0.321704 0.543407 0.900442 -0.077738
H42   H     H_    0.710273 0.449776 0.910373 0.122552
H43   H     H_    0.555568 0.369465 0.988450 0.163026
H44   H     H_    0.638676 0.388152 0.114045 0.139244
H45   H     H_    0.883005 0.476413 0.152671 0.182642
H46   H     H_    0.481200 0.533000 0.085874 0.152914
H47   H     H_    0.638881 0.616922 0.011310 0.133680
H48   H     H_    0.303742 0.524783 0.844876 0.216058
C43   C     C_R   0.694649 0.938150 0.537941 -0.128113
C44   C     C_R   0.507846 0.800667 0.498894 0.264044
C45   C     C_R   0.364098 0.765760 0.463421 -0.548108
C46   C     C_R   0.260808 0.826141 0.433209 0.239329
C47   C     C_R   0.307318 0.920205 0.431808 -0.284178
C48   C     C_R   0.454153 0.956151 0.464612 0.032762
C49   C     C_R   0.553636 0.897655 0.501031 -0.004399
H49   H     H_    0.327618 0.692260 0.463027 0.177762
C50   C     C_R   0.641056 0.090471 0.498500 -0.015338
C51   C     C_R   0.740265 0.033117 0.536029 0.090170
C52   C     C_R   0.684506 0.186868 0.499651 0.145698
C53   C     C_R   0.819005 0.225462 0.540310 -0.416926
C54   C     C_R   0.925437 0.167543 0.571596 0.286131
C55   C     C_R   0.885238 0.071418 0.570406 -0.309559
C56   C     C_R   0.499681 0.050638 0.462573 -0.128653
H50   H     H_    0.227954 0.965191 0.405856 0.209193
H51   H     H_    0.966793 0.027022 0.595821 0.137701
H52   H     H_    0.847281 0.300442 0.543479 0.178311
H53   H     H_    0.770420 0.897312 0.568834 0.164190
H54   H     H_    0.421827 0.092586 0.433362 0.204077
N1    N     N_R   0.037270 0.212330 0.417126 0.202638
O25   O     O_R   0.082614 0.282494 0.464377 -0.351308
O26   O     O_R   0.087376 0.127599 0.422835 -0.439297
N2    N     N_R   0.198184 0.309241 0.776032 0.247480
O27   O     O_R   0.201080 0.380701 0.740615 -0.370717
O28   O     O_R   0.306399 0.307531 0.826838 -0.321020
N3    N     N_R   0.110884 0.185019 0.870347 0.292485
O29   O     O_R   0.223116 0.150835 0.908234 -0.326263
O30   O     O_R   0.023134 0.253041 0.899951 -0.359590
C57   C     C_2   0.921544 0.099019 0.784474 0.445393
H55   H     H_    0.908746 0.025312 0.760339 0.004170
O31   O     O_2   0.801107 0.142062 0.803257 -0.521687
C58   C     C_2   0.578455 0.625869 0.873531 0.518890
H56   H     H_    0.703627 0.645216 0.889376 -0.015098
O32   O     O_2   0.528423 0.637756 0.814707 -0.577583
C59   C     C_2   0.950252 0.832089 0.173161 0.774050
H57   H     H_    0.824162 0.808112 0.167124 0.030274
O33   O     O_2   0.987240 0.913223 0.164235 -0.567541

loop_
_geom_bond_atom_site_label_1
_geom_bond_atom_site_label_2
_geom_bond_distance
_ccdc_geom_bond_type
C11   O22   1.403598 S    
C43   C51   1.401696 A    
O14   Ba2   2.773005 S    
O5    C6    1.398236 S    
C58   H56   1.087970 S    
C59   O33   1.223844 D    
C5    H10   1.108510 S    
C7    H15   1.115101 S    
C9    H18   1.110992 S    
O14   P8    1.733318 S    
O4    P6    1.541669 D    
C23   H39   1.080187 S    
C4    C5    1.524191 S    
O7    Ba1   2.857888 S    
C46   C47   1.389620 A    
C39   C40   1.385924 A    
P5    C54   1.845087 S    
C52   C53   1.394848 A    
C15   H31   1.109083 S    
C41   C42   1.394679 A    
P6    C22   1.834903 S    
P5    O19   1.760553 S    
P3    O11   1.751201 S    
C2    H5    1.105982 S    
C42   H48   1.066529 S    
N2    O28   1.302070 A    
C7    H13   1.113146 S    
C29   C34   1.419953 A    
C17   C18   1.422239 A    
P2    C44   1.837322 S    
C31   C32   1.385057 A    
C15   C16   1.533464 S    
C40   C41   1.381206 A    
P1    Ba1   3.436390 S    
C33   C34   1.444392 A    
C14   C57   1.508026 S    
P1    O1    1.515801 D    
C11   H24   1.111159 S    
C35   C36   1.439525 A    
C29   C30   1.387765 A    
C53   H52   1.081907 S    
C45   H49   1.082094 S    
P3    C46   1.825303 S    
O2    Ba2   2.797677 S    
C2    H4    1.108337 S    
P7    O21   1.567125 D    
O12   Ba2   2.869840 S    
P5    O17   1.774181 S    
C32   C33   1.411821 A    
P8    O23   1.541145 D    
C15   H32   1.111572 S    
C19   C20   1.397499 A    
C1    H2    1.112007 S    
C57   O31   1.223982 D    
C24   C28   1.383378 A    
O17   Ba2   2.769115 S    
C34   C38   1.439536 A    
O10   C8    1.395970 S    
C58   O32   1.220104 D    
Ba1   O13   2.796935 S    
Ba2   O20   2.785401 S    
O3    P6    1.729643 S    
C5    H11   1.111887 S    
C9    H19   1.104655 S    
C11   H23   1.107057 S    
O6    P6    1.746913 S    
C48   C56   1.395331 A    
C37   C38   1.435472 A    
N1    O26   1.303560 A    
N1    O25   1.296862 A    
C29   H42   1.071718 S    
P4    O13   1.572640 S    
P5    O18   1.544816 D    
C40   H47   1.084125 S    
C14   H30   1.116099 S    
P1    O5    1.759544 S    
O3    Ba1   2.773804 S    
C12   H27   1.110120 S    
C2    C3    1.531977 S    
N2    O27   1.295033 A    
C8    C9    1.524096 S    
C13   C14   1.572404 S    
P1    C24   1.858157 S    
C17   H36   1.080688 S    
O11   C2    1.403926 S    
C25   C38   1.560968 S    
C6    N1    1.450459 S    
O16   Ba2   2.943049 S    
C27   C35   1.567245 S    
C13   N2    1.463172 S    
O1    Ba1   2.869376 S    
P1    O2    1.572447 S    
C6    C7    1.535439 S    
Ba1   O20   2.943853 S    
P2    O10   1.749307 S    
C11   C12   1.518088 S    
H1    C10   1.111023 S    
C56   H54   1.080145 S    
C43   C49   1.413400 A    
C16   H34   1.117536 S    
P4    O15   1.751142 S    
N3    O29   1.301599 A    
P4    C18   1.862113 S    
C21   C22   1.401159 A    
C4    H7    1.105717 S    
O2    Ba1   2.941087 S    
C1    H3    1.111359 S    
P4    Ba2   3.436973 S    
C57   H55   1.092506 S    
Ba2   O21   2.857996 S    
C21   C27   1.422477 A    
Ba1   Ba2   4.566258 S    
C16   H35   1.116899 S    
P2    O7    1.516294 D    
C50   C56   1.404994 A    
P3    O8    1.747315 S    
P2    Ba1   3.431553 S    
C50   C51   1.415700 A    
C9    H20   1.110633 S    
C14   N3    1.471364 S    
C32   H45   1.060795 S    
C37   C42   1.416047 A    
C45   C46   1.392217 A    
C3    H28   1.116428 S    
O13   Ba2   2.941942 S    
C47   C48   1.402208 A    
C54   C55   1.399049 A    
C15   O24   1.403011 S    
C4    O15   1.398063 S    
C36   C37   1.443609 A    
C31   H44   1.082590 S    
P7    C52   1.834972 S    
P8    O24   1.750894 S    
Ba1   O16   2.785847 S    
C13   H29   1.113316 S    
C55   H51   1.082395 S    
C51   C55   1.410680 A    
C23   C24   1.420129 A    
O8    Ba1   2.768606 S    
C30   C31   1.377260 A    
C26   H40   1.082034 S    
C19   C25   1.421834 A    
C20   C26   1.382261 A    
C12   H25   1.114256 S    
C48   C49   1.416002 A    
C41   C58   1.476120 S    
C6    H12   1.106321 S    
C8    H17   1.112884 S    
C4    H8    1.110959 S    
C10   H21   1.112825 S    
C8    H16   1.104483 S    
C47   H50   1.082065 S    
C3    C59   1.503040 S    
C44   C49   1.419427 A    
C43   H53   1.078871 S    
C44   C45   1.396701 A    
C39   H46   1.070825 S    
C21   H38   1.079427 S    
C7    H14   1.115892 S    
C33   C35   1.435186 A    
C36   C39   1.415182 A    
C1    C10   1.520446 S    
O16   P7    1.750944 S    
N3    O30   1.307831 A    
C28   H41   1.081635 S    
C17   C25   1.438667 A    
C59   H57   1.087656 S    
C18   C26   1.384295 A    
P8    C20   1.827276 S    
P2    O20   1.564371 S    
P4    O12   1.516058 D    
O19   C13   1.411962 S    
C22   C28   1.384768 A    
P7    O22   1.750858 S    
H33   C16   1.117035 S    
P3    O9    1.543785 D    
C5    H9    1.111578 S    
C50   C52   1.408866 A    
C3    H6    1.114183 S    
C30   H43   1.083195 S    
C1    H22   1.110820 S    
C19   H37   1.078998 S    
O6    C10   1.405603 S    
C53   C54   1.394590 A    
C23   C27   1.436366 A    
C12   H26   1.108048 S    
