data_mof_unit_4918.cif
_audit_creation_date              2013-03-05T16:00:48-0500
_audit_creation_method            fapswitch 2.2
_symmetry_space_group_name_H-M    P1
_symmetry_Int_Tables_number       1
_space_group_crystal_system       triclinic
_cell_length_a                    14.705988
_cell_length_b                    14.71684
_cell_length_c                    15.876875
_cell_angle_alpha                 76.991215
_cell_angle_beta                  102.677137
_cell_angle_gamma                 114.780625
_cell_volume                      3009.13999434

loop_
_atom_site_label
_atom_site_type_symbol
_atom_site_description
_atom_site_fract_x
_atom_site_fract_y
_atom_site_fract_z
_atom_type_partial_charge
O1    O     O_R   0.977910 0.338120 0.529720 -0.591824
O2    O     O_R   0.839850 0.379180 0.491640 -0.588570
C1    C     C_R   0.880363 0.312363 0.513883 0.792465
O3    O     O_R   0.069060 0.479460 0.639610 -0.576368
O4    O     O_R   0.931000 0.520530 0.601530 -0.571897
C2    C     C_R   0.999646 0.500041 0.659627 0.832518
Cu1   Cu    Cu3+1 0.081750 0.475690 0.522550 0.945127
Cu2   Cu    Cu3+1 0.918250 0.524310 0.477450 0.953244
O5    O     O_R   0.160150 0.620820 0.508360 -0.591601
O6    O     O_R   0.022090 0.661880 0.470280 -0.585638
O7    O     O_R   0.069000 0.479470 0.398470 -0.578881
O8    O     O_R   0.930940 0.520540 0.360390 -0.570880
C3    C     C_R   0.119657 0.687667 0.485113 0.803788
C4    C     C_R   0.000383 0.500020 0.340360 0.830562
C5    C     C_3   0.052415 0.433534 0.974964 -0.401856
C6    C     C_3   0.890424 0.460641 0.937852 -0.355921
C7    C     C_3   0.891342 0.463190 0.035020 -0.350020
H1    H     H_    0.012884 0.354301 0.104296 0.177297
H2    H     H_    0.012024 0.354840 0.959674 0.180483
H3    H     H_    0.846946 0.503950 0.895069 0.210284
H4    H     H_    0.849965 0.381126 0.924631 0.162680
H5    H     H_    0.847155 0.385847 0.066917 0.165997
H6    H     H_    0.853605 0.513303 0.039328 0.195565
C8    C     C_1   0.001342 0.500361 0.250811 -0.161154
C9    C     C_3   0.000193 0.502915 0.916640 0.225015
C10   C     C_3   0.053119 0.433129 0.072814 -0.372009
C11   C     C_3   0.001411 0.502035 0.082758 0.282961
C12   C     C_3   0.059178 0.611172 0.038718 -0.417930
C13   C     C_3   0.060770 0.612114 0.940743 -0.129005
C14   C     C_1   0.001612 0.500991 0.175175 -0.088277
C15   C     C_1   0.999403 0.501524 0.824475 -0.092279
C16   C     C_1   0.999208 0.500718 0.749055 -0.146761
H7    H     H_    0.141066 0.634524 0.932289 0.130429
H8    H     H_    0.138303 0.641060 0.072625 0.159722
H9    H     H_    0.131506 0.460274 0.961638 0.174525
H10   H     H_    0.132552 0.459978 0.106358 0.174245
H11   H     H_    0.023331 0.661597 0.046381 0.196593
C17   C     C_R   0.812730 0.205170 0.516143 -0.053674
C18   C     C_R   0.187262 0.795211 0.474268 -0.054968
C19   C     C_R   0.783026 0.030441 0.517384 -0.175214
C20   C     C_R   0.849987 0.130275 0.522333 -0.187568
C21   C     C_R   0.708376 0.179018 0.506494 -0.243024
C22   C     C_R   0.639090 0.079966 0.497133 0.089887
C23   C     C_R   0.678175 0.004826 0.504530 0.159662
C24   C     C_R   0.532493 0.053564 0.481375 0.066789
C25   C     C_R   0.466393 0.950021 0.481332 0.068500
C26   C     C_R   0.508654 0.877744 0.487552 -0.213667
C27   C     C_R   0.612449 0.905032 0.498423 -0.209549
C28   C     C_R   0.489809 0.127356 0.463603 -0.215714
C29   C     C_R   0.385926 0.100198 0.450617 -0.218447
C30   C     C_R   0.320606 0.998804 0.456491 0.157683
C31   C     C_R   0.360048 0.922536 0.473322 0.091528
C32   C     C_R   0.215853 0.972832 0.446149 -0.182442
C33   C     C_R   0.149459 0.871595 0.454316 -0.168229
C34   C     C_R   0.291639 0.821095 0.484061 -0.245485
H12   H     H_    0.641449 0.847258 0.502460 0.153333
H13   H     H_    0.318015 0.760439 0.502614 0.151181
H14   H     H_    0.068911 0.853201 0.446265 0.168388
H15   H     H_    0.356570 0.159213 0.436937 0.151479
H16   H     H_    0.813186 0.973371 0.522428 0.144803
H17   H     H_    0.930549 0.148971 0.529873 0.157820
H18   H     H_    0.683171 0.237615 0.507310 0.144604
H19   H     H_    0.463582 0.799414 0.481560 0.139084
H20   H     H_    0.534328 0.207552 0.456623 0.146615
H21   H     H_    0.185339 0.030943 0.432298 0.141834
N1    N     N_R   0.795410 0.560790 0.443550 -0.204358
N2    N     N_R   0.204590 0.439170 0.556520 -0.178851
C35   C     C_R   0.718779 0.672298 0.356479 0.224527
C36   C     C_R   0.799315 0.640624 0.380175 0.006157
C37   C     C_R   0.713240 0.508003 0.485866 -0.006727
C38   C     C_R   0.628249 0.535420 0.466018 -0.057928
C39   C     C_R   0.633437 0.621142 0.401373 0.028651
C40   C     C_R   0.539973 0.482295 0.509182 0.105764
C41   C     C_R   0.459638 0.518080 0.489134 0.083805
C42   C     C_R   0.470924 0.606499 0.427965 -0.254148
C43   C     C_R   0.555469 0.656462 0.385308 -0.138832
C44   C     C_R   0.529079 0.394351 0.571448 -0.235710
C45   C     C_R   0.444411 0.344708 0.614176 -0.194598
C46   C     C_R   0.365957 0.378913 0.595492 0.158830
C47   C     C_R   0.371232 0.464914 0.531893 -0.022761
C48   C     C_R   0.281229 0.326622 0.639283 -0.309628
C49   C     C_R   0.201157 0.358320 0.618875 0.082364
C50   C     C_R   0.286259 0.492390 0.513309 0.014178
H22   H     H_    0.559787 0.725079 0.340728 0.196359
H23   H     H_    0.281720 0.553930 0.463447 0.123569
H24   H     H_    0.135078 0.317178 0.651726 0.128411
H25   H     H_    0.439882 0.277952 0.661889 0.149403
H26   H     H_    0.865654 0.679488 0.347399 0.167042
H27   H     H_    0.717567 0.446813 0.536193 0.133065
H28   H     H_    0.415771 0.640224 0.411895 0.129020
H29   H     H_    0.584564 0.361017 0.588614 0.131504
H30   H     H_    0.276452 0.260913 0.688337 0.145822
N3    N     N_R   0.724727 0.754931 0.286488 0.109141
O9    O     O_R   0.810686 0.831340 0.278248 -0.368793
O10   O     O_R   0.650691 0.745240 0.222265 -0.354606
C51   C     C_2   0.024849 0.690805 0.882050 0.848593
O11   O     O_2   0.078942 0.755224 0.830907 -0.593236
O12   O     O_R   0.931148 0.691008 0.886924 -0.772590
H31   H     H_    0.916372 0.747489 0.844446 0.338725

loop_
_geom_bond_atom_site_label_1
_geom_bond_atom_site_label_2
_geom_bond_distance
_ccdc_geom_bond_type
C45   H25   1.084303 S    
C9    C15   1.465469 S    
C2    C16   1.423562 S    
Cu2   N1    2.024220 S    
N3    O9    1.301658 A    
C19   H16   1.083943 S    
C25   C31   1.425186 A    
C40   C41   1.433695 A    
H1    C10   1.113151 S    
C20   H17   1.083035 S    
C39   C43   1.400536 A    
C43   H22   1.081178 S    
C48   C49   1.390739 A    
Cu1   Cu2   2.694789 S    
C32   C33   1.392497 A    
C5    H2    1.113390 S    
C10   C11   1.550068 S    
C7    H6    1.113118 S    
C29   H15   1.084477 S    
C12   C13   1.557708 S    
C17   C21   1.398174 A    
O3    Cu1   1.923390 S    
C26   H19   1.076302 S    
O4    C2    1.296960 A    
O7    C4    1.297113 A    
C5    C9    1.552222 S    
N1    C36   1.353769 A    
C13   H7    1.115484 S    
C27   H12   1.084584 S    
C4    C8    1.423792 S    
O5    C3    1.299926 A    
C42   H28   1.076526 S    
C48   H30   1.083802 S    
C18   C34   1.398982 A    
C15   C16   1.199529 T    
C1    C17   1.467672 S    
C6    C7    1.548566 S    
C51   O12   1.398258 S    
C37   C38   1.420186 A    
C32   H21   1.083911 S    
C21   H18   1.075319 S    
C31   C34   1.404120 A    
C6    H3    1.110190 S    
C12   H8    1.113500 S    
N3    O10   1.301348 A    
C28   H20   1.076601 S    
C41   C47   1.434863 A    
C11   C14   1.463265 S    
C47   C50   1.421310 A    
C5    H9    1.113227 S    
C9    C13   1.565188 S    
C41   C42   1.408807 A    
C30   C31   1.417869 A    
C7    C11   1.549927 S    
C17   C20   1.399505 A    
O3    C2    1.296028 A    
C46   C48   1.401323 A    
C45   C46   1.393545 A    
C35   C36   1.396360 A    
C5    C10   1.549992 S    
C44   C45   1.388997 A    
C35   C39   1.417382 A    
O1    C1    1.301349 A    
Cu1   O7    1.927808 S    
C42   C43   1.387151 A    
O4    Cu2   1.927808 S    
C26   C27   1.386615 A    
C24   C28   1.417316 A    
Cu2   O8    1.923392 S    
C51   O11   1.222974 D    
C29   C30   1.390386 A    
N2    C50   1.363002 A    
C22   C24   1.425471 A    
C36   H26   1.082020 S    
C10   H10   1.113132 S    
C19   C20   1.392737 A    
C50   H23   1.075222 S    
O8    C4    1.295965 A    
C28   C29   1.386764 A    
C34   H13   1.075081 S    
C22   C23   1.418363 A    
C37   H27   1.074818 S    
C21   C22   1.404005 A    
C38   C40   1.436884 A    
C33   H14   1.083078 S    
C6    C9    1.552017 S    
Cu1   O5    1.942931 S    
C25   C26   1.416826 A    
C44   H29   1.076340 S    
O1    Cu1   1.955682 S    
O2    Cu2   1.942930 S    
C7    H5    1.113190 S    
O6    C3    1.301409 A    
C13   C51   1.516413 S    
C6    H4    1.113369 S    
C35   N3    1.437535 S    
O2    C1    1.299638 A    
C38   C39   1.421799 A    
C49   H24   1.081679 S    
N1    C37   1.359969 A    
C12   H11   1.113639 S    
C8    C14   1.199678 T    
C3    C18   1.468468 S    
Cu1   N2    2.024575 S    
C46   C47   1.415708 A    
C18   C33   1.399777 A    
C24   C25   1.423167 A    
C19   C23   1.403774 A    
N2    C49   1.356347 A    
Cu2   O6    1.955682 S    
O12   H31   1.013762 S    
C11   C12   1.549710 S    
C40   C44   1.413413 A    
C30   C32   1.403505 A    
C23   C27   1.390530 A    
