data_mof_unit_377.cif
_audit_creation_date              2012-12-10T18:13:55-0500
_audit_creation_method            fapswitch 2.2
_symmetry_space_group_name_H-M    P1
_symmetry_Int_Tables_number       1
_space_group_crystal_system       triclinic
_cell_length_a                    10.770055
_cell_length_b                    9.376971
_cell_length_c                    23.557543
_cell_angle_alpha                 90.315004
_cell_angle_beta                  90.629412
_cell_angle_gamma                 89.817713
_cell_volume                      2378.89679966

loop_
_atom_site_label
_atom_site_type_symbol
_atom_type_description
_atom_site_fract_x
_atom_site_fract_y
_atom_site_fract_z
_atom_type_partial_charge
C1    C     C_R   0.259315 0.500545 0.500179 0.974732
C2    C     C_R   0.312977 0.630458 0.970216 -0.155319
C3    C     C_R   0.316268 0.633059 0.029234 -0.131609
C4    C     C_R   0.412253 0.563932 0.059192 0.013210
C5    C     C_R   0.505137 0.489216 0.029335 -0.076419
C6    C     C_R   0.603892 0.422710 0.059192 -0.181632
C7    C     C_R   0.691134 0.339540 0.028364 0.329696
C8    C     C_R   0.677471 0.321886 0.969333 0.414166
C9    C     C_R   0.416311 0.566391 0.118576 0.558792
C10   C     C_R   0.609081 0.439854 0.118919 0.607477
C11   C     C_R   0.527688 0.375590 0.237623 -0.152481
C12   C     C_R   0.503123 0.499544 0.390855 0.865440
C13   C     C_R   0.531571 0.372422 0.296869 0.419999
C14   C     C_R   0.510196 0.499310 0.328198 -0.130827
C15   C     C_R   0.497154 0.628777 0.298729 -0.246646
C16   C     C_R   0.501308 0.631723 0.239606 -0.077960
C17   C     C_R   0.514233 0.504723 0.208543 0.257603
C18   C     C_R   0.456212 0.370932 0.759452 0.470963
C19   C     C_R   0.457288 0.377968 0.699704 -0.360781
C20   C     C_R   0.499688 0.500197 0.671768 -0.209732
C21   C     C_R   0.539901 0.619308 0.703927 0.334867
C22   C     C_R   0.536818 0.614061 0.763338 0.280432
C23   C     C_R   0.739812 0.499904 0.501642 0.819597
C24   C     C_R   0.495722 0.490566 0.790751 0.165037
C25   C     C_3   0.067203 0.654347 0.521218 0.640861
C26   C     C_3   0.070099 0.381804 0.543336 0.634629
C27   C     C_3   0.924947 0.652914 0.514428 -0.416193
C28   C     C_3   0.928080 0.401895 0.549933 -0.431519
C29   C     C_3   0.066450 0.468633 0.438699 0.615781
C30   C     C_3   0.120798 0.501687 0.500719 -0.279865
C31   C     C_3   0.877026 0.500208 0.502331 -0.128612
C32   C     C_3   0.923969 0.448562 0.443487 -0.431108
C33   C     C_3   0.628265 0.083442 0.501341 -0.194301
C34   C     C_3   0.628333 0.915709 0.502367 -0.197679
C35   C     C_3   0.438219 0.084942 0.552204 -0.187251
C36   C     C_3   0.434843 0.917186 0.551201 -0.181678
C37   C     C_3   0.433387 0.083082 0.451087 -0.158687
C38   C     C_3   0.438813 0.915748 0.449682 -0.166208
C39   C     C_R   0.500066 0.500486 0.609156 0.908165
C40   C     C_R   0.586832 0.411552 0.879275 0.640425
C41   C     C_R   0.403207 0.554756 0.880425 0.644339
C42   C     C_R   0.404376 0.556577 0.939865 -0.001756
C43   C     C_R   0.499661 0.483343 0.969411 -0.074684
C44   C     C_R   0.588824 0.404415 0.939073 -0.214783
Cu1   Cu    Cu3+1 0.499860 0.642410 0.500030 0.958081
Cu2   Cu    Cu3+1 0.499860 0.357590 0.500030 0.958827
H1    H     H_    0.238604 0.686712 0.948483 0.195413
H2    H     H_    0.421661 0.290495 0.674413 0.192094
H3    H     H_    0.880479 0.696733 0.553159 0.179693
H4    H     H_    0.906685 0.450501 0.591941 0.199885
H5    H     H_    0.894591 0.722707 0.478711 0.220630
H6    H     H_    0.879713 0.297216 0.549099 0.206485
H7    H     H_    0.874215 0.506644 0.408936 0.184361
H8    H     H_    0.899463 0.334129 0.438127 0.204463
H9    H     H_    0.681005 0.123833 0.538959 0.155050
H10   H     H_    0.678912 0.878048 0.540864 0.152856
H11   H     H_    0.244001 0.690942 0.051282 0.199353
H12   H     H_    0.678553 0.120756 0.463309 0.157078
H13   H     H_    0.681064 0.875291 0.465219 0.156985
H14   H     H_    0.488024 0.119789 0.591436 0.134513
H15   H     H_    0.478989 0.878031 0.590792 0.187376
H16   H     H_    0.334895 0.118828 0.451030 0.240737
H17   H     H_    0.344304 0.871737 0.444633 0.238705
H18   H     H_    0.474154 0.123490 0.411494 0.203414
H19   H     H_    0.489812 0.881820 0.411156 0.133182
H20   H     H_    0.342419 0.127882 0.555352 0.234307
H21   H     H_    0.337135 0.880002 0.551624 0.237628
H22   H     H_    0.537954 0.276694 0.214127 0.174495
H23   H     H_    0.483642 0.728396 0.321311 0.178706
H24   H     H_    0.493092 0.732912 0.217941 0.171883
N1    N     N_R   0.494970 0.485441 0.851602 -0.417368
N2    N     N_R   0.513919 0.505575 0.147308 -0.463276
N3    N     N_3   0.500250 0.143650 0.501250 -0.151010
N4    N     N_3   0.500250 0.856350 0.501250 -0.146873
O1    O     O_R   0.317570 0.620260 0.500030 -0.539041
O2    O     O_R   0.317570 0.379740 0.500030 -0.533765
O3    O     O_R   0.499840 0.620290 0.417900 -0.601524
O4    O     O_R   0.499840 0.379710 0.417900 -0.553662
O5    O     O_R   0.682190 0.620260 0.500010 -0.613020
O6    O     O_R   0.682190 0.379740 0.500010 -0.611254
O7    O     O_R   0.499920 0.620230 0.582140 -0.557259
O8    O     O_R   0.499920 0.379770 0.582140 -0.604747
O9    O     O_2   0.677313 0.348548 0.848823 -0.499132
O10   O     O_2   0.312011 0.622807 0.851513 -0.512812
O11   O     O_2   0.322309 0.627485 0.147419 -0.505579
O12   O     O_2   0.708307 0.392877 0.148797 -0.463823
O13   O     O_3   0.568935 0.746547 0.677899 -0.596530
C45   C     C_3   0.698751 0.757737 0.671098 0.103347
H25   H     H_    0.724788 0.707255 0.630102 0.132063
H26   H     H_    0.753141 0.705664 0.705949 0.174378
C46   C     C_3   0.732793 0.916121 0.670354 -0.380490
H27   H     H_    0.674334 0.972729 0.638485 0.196470
H28   H     H_    0.713616 0.963718 0.712693 0.257810
C47   C     C_3   0.869205 0.938994 0.656284 -0.783824
H29   H     H_    0.930064 0.879681 0.686389 0.282235
H30   H     H_    0.891471 0.054329 0.659485 0.268033
H31   H     H_    0.887961 0.903061 0.612262 0.275821
Cl1   Cl    Cl    0.583974 0.763993 0.803606 -0.678079
Cl2   Cl    Cl    0.119693 0.810806 0.484737 -0.532845
Cl3   Cl    Cl    0.095310 0.200324 0.520890 -0.546245
Cl4   Cl    Cl    0.107515 0.697928 0.593454 -0.596090
Cl5   Cl    Cl    0.144773 0.382690 0.612039 -0.573045
Cl6   Cl    Cl    0.097063 0.605020 0.387584 -0.521577
Cl7   Cl    Cl    0.133375 0.315929 0.403794 -0.524241
Cl8   Cl    Cl    0.817460 0.249206 0.061022 -0.488469
O14   O     O_3   0.754859 0.225909 0.941784 -0.527835
C48   C     C_3   0.687852 0.100536 0.926975 0.142653
H32   H     H_    0.735699 0.049998 0.890441 0.209846
H33   H     H_    0.590865 0.122645 0.912318 0.130696
C49   C     C_3   0.686888 0.994000 0.976181 -0.381306
H34   H     H_    0.783664 0.973509 0.990900 0.274787
H35   H     H_    0.633368 0.039453 0.012071 0.228248
C50   C     C_3   0.627553 0.852748 0.958401 -0.822121
H36   H     H_    0.530995 0.870364 0.942844 0.270180
H37   H     H_    0.624960 0.780087 0.995429 0.259324
H38   H     H_    0.682627 0.800832 0.924449 0.293717
O15   O     O_3   0.554475 0.243344 0.323019 -0.602612
C51   C     C_3   0.684139 0.227278 0.331502 0.044303
H39   H     H_    0.712125 0.283191 0.371362 0.147600
H40   H     H_    0.739523 0.271098 0.295774 0.171588
C52   C     C_3   0.715517 0.068570 0.336500 -0.401731
H41   H     H_    0.655511 0.018282 0.368582 0.203760
H42   H     H_    0.697225 0.015165 0.295016 0.240873
C53   C     C_3   0.851125 0.045213 0.353677 -0.746131
H43   H     H_    0.913695 0.094684 0.322260 0.289795
H44   H     H_    0.871177 0.929068 0.355509 0.273649
H45   H     H_    0.869886 0.092108 0.396286 0.262589
O16   O     O_3   0.406443 0.257701 0.789881 -0.593988
C54   C     C_3   0.419269 0.122618 0.763451 0.085012
H46   H     H_    0.446432 0.045708 0.797083 0.217345
H47   H     H_    0.494905 0.116776 0.731613 0.127952
C55   C     C_3   0.293880 0.075145 0.738506 -0.378815
H48   H     H_    0.224324 0.071275 0.772975 0.253440
H49   H     H_    0.260375 0.152980 0.706437 0.256412
C56   C     C_3   0.302785 0.928260 0.710782 -0.726519
H50   H     H_    0.370754 0.930365 0.675832 0.255671
H51   H     H_    0.210738 0.897681 0.692959 0.286086
H52   H     H_    0.331827 0.847253 0.742512 0.296272

loop_
_geom_bond_atom_site_label_1
_geom_bond_atom_site_label_2
_ccdc_geom_bond_type
C33   H9    S    
C56   H52   S    
O13   C45   S    
C21   O13   S    
C34   H10   S    
C33   H12   S    
C22   Cl1   S    
C40   N1    A    
C11   C13   A    
C41   C42   A    
C19   C20   A    
C9    N2    A    
C25   Cl4   S    
O16   C54   S    
Cu2   O2    S    
C37   H16   S    
C36   H21   S    
C7    C8    A    
Cu1   Cu2   S    
C37   C38   S    
C18   C24   A    
C38   H17   S    
C29   C32   S    
C5    C6    A    
O14   C48   S    
C15   C16   A    
C29   Cl6   S    
C18   C19   A    
C49   H34   S    
C52   C53   S    
C18   O16   S    
C51   H39   S    
C28   H4    S    
C25   Cl2   S    
C35   N3    S    
C35   C36   S    
C55   H48   S    
C12   O4    A    
C48   H32   S    
C7    Cl8   S    
C23   O6    A    
C41   N1    A    
C50   H38   S    
C9    O11   S    
C5    C43   A    
Cu2   O8    S    
C21   C22   A    
C48   H33   S    
C40   O9    S    
C32   H8    S    
C27   H5    S    
C51   H40   S    
C15   H23   S    
C27   C31   S    
C1    O1    A    
C56   H50   S    
C16   H24   S    
C39   O7    A    
C46   H27   S    
Cu2   O4    S    
C20   C39   S    
C19   H2    S    
C16   C17   A    
C35   H20   S    
C41   O10   S    
C29   Cl7   S    
C50   H37   S    
C35   H14   S    
C51   C52   S    
C23   C31   S    
C43   C44   A    
C29   C30   S    
C46   H28   S    
C31   C32   S    
C45   C46   S    
C12   O3    A    
C33   C34   S    
Cu1   O5    S    
C20   C21   A    
C47   H30   S    
C49   C50   S    
C52   H41   S    
C36   N4    S    
C34   N4    S    
C53   H45   S    
C3    H11   S    
C33   N3    S    
C45   H26   S    
C26   C30   S    
C34   H13   S    
C48   C49   S    
C22   C24   A    
C42   C43   A    
C3    C4    A    
C32   H7    S    
C37   H18   S    
C11   H22   S    
C53   H44   S    
C50   H36   S    
C38   N4    S    
C25   C30   S    
C56   H51   S    
C37   N3    S    
C11   C17   A    
C1    O2    A    
C28   C31   S    
Cu1   O7    S    
C8    C44   A    
C39   O8    A    
C12   C14   S    
C4    C5    A    
C8    O14   S    
C6    C10   A    
C13   O15   S    
C6    C7    A    
C2    H1    S    
C25   C27   S    
C26   C28   S    
C47   H31   S    
Cu1   O1    S    
C54   C55   S    
C2    C3    A    
C54   H46   S    
O15   C51   S    
C26   Cl5   S    
C46   C47   S    
Cu2   O6    S    
C28   H6    S    
C10   O12   S    
C2    C42   A    
C55   C56   S    
C1    C30   S    
C47   H29   S    
C49   H35   S    
C52   H42   S    
C27   H3    S    
C40   C44   A    
C45   H25   S    
C17   N2    S    
C55   H49   S    
C14   C15   A    
Cu1   N4    S    
Cu1   O3    S    
C23   O5    A    
C4    C9    A    
C13   C14   A    
C38   H19   S    
Cu2   N3    S    
C36   H15   S    
C24   N1    S    
C26   Cl3   S    
C53   H43   S    
C54   H47   S    
C10   N2    A    
