data_mof_unit_545.cif
_audit_creation_date              2012-12-11T14:01:34-0500
_audit_creation_method            fapswitch 2.2
_symmetry_space_group_name_H-M    P1
_symmetry_Int_Tables_number       1
_space_group_crystal_system       triclinic
_cell_length_a                    19.023134
_cell_length_b                    10.925815
_cell_length_c                    18.712804
_cell_angle_alpha                 89.576444
_cell_angle_beta                  90.028007
_cell_angle_gamma                 90.471017
_cell_volume                      3889.09181784

loop_
_atom_site_label
_atom_site_type_symbol
_atom_type_description
_atom_site_fract_x
_atom_site_fract_y
_atom_site_fract_z
_atom_type_partial_charge
C1    C     C_R   0.272388 0.042545 0.853463 0.566830
C2    C     C_R   0.021286 0.664303 0.959747 -0.126759
C3    C     C_R   0.505910 0.168699 0.032291 -0.125572
C4    C     C_R   0.521332 0.164289 0.959731 -0.126786
C5    C     C_2   0.248903 0.578363 0.920581 -0.112666
C6    C     C_2   0.750792 0.579124 0.079650 -0.112682
C7    C     C_2   0.748895 0.078339 0.920571 -0.112326
C8    C     C_2   0.250797 0.079110 0.079656 -0.112857
C9    C     C_2   0.250276 0.587862 0.077000 -0.106358
C10   C     C_2   0.749783 0.586898 0.922755 -0.107047
C11   C     C_2   0.750268 0.087836 0.076991 -0.106704
C12   C     C_R   0.727592 0.042844 0.146545 0.558939
C13   C     C_2   0.249787 0.086884 0.922760 -0.107013
C14   C     C_2   0.295266 0.522286 0.037783 -0.165388
C15   C     C_2   0.704785 0.520468 0.962784 -0.164860
C16   C     C_2   0.795250 0.022243 0.037773 -0.165747
C17   C     C_2   0.204794 0.020444 0.962789 -0.164907
C18   C     C_2   0.303790 0.545750 0.961387 -0.162232
C19   C     C_2   0.695967 0.545013 0.038943 -0.162183
C20   C     C_2   0.803777 0.045706 0.961377 -0.161917
C21   C     C_2   0.195975 0.044986 0.038949 -0.162267
C22   C     C_2   0.518797 0.839543 0.587789 -0.110938
C23   C     C_R   0.772387 0.542549 0.853462 0.566235
C24   C     C_2   0.545618 0.828352 0.434542 -0.106133
C25   C     C_2   0.018764 0.339293 0.587769 -0.112241
C26   C     C_2   0.046367 0.328810 0.434602 -0.095183
C27   C     C_2   0.570195 0.745695 0.481176 -0.161585
C28   C     C_2   0.545674 0.741439 0.555309 -0.143561
C29   C     C_2   0.069929 0.244968 0.481058 -0.164947
C30   C     C_2   0.045384 0.241000 0.555206 -0.148198
C31   C     C_2   0.254504 0.612115 0.569376 -0.091942
C32   C     C_2   0.757081 0.555725 0.413444 -0.110871
C33   C     C_2   0.745816 0.065949 0.583431 -0.100851
C34   C     C_R   0.227594 0.542850 0.146547 0.556832
C35   C     C_2   0.257023 0.055395 0.413376 -0.109760
C36   C     C_2   0.256689 0.604756 0.413742 -0.100493
C37   C     C_2   0.778308 0.520895 0.565650 -0.092434
C38   C     C_2   0.738225 0.069528 0.427897 -0.090719
C39   C     C_2   0.278287 0.021599 0.565658 -0.104533
C40   C     C_R   0.471490 0.821965 0.853284 0.539459
C41   C     C_R   0.527594 0.822679 0.147406 0.550484
C42   C     C_R   0.971488 0.321966 0.853286 0.539831
C43   C     C_R   0.027594 0.322678 0.147406 0.550403
C44   C     C_2   0.216713 0.681074 0.450455 -0.163585
C45   C     C_R   0.494706 0.060559 0.070821 -0.081862
C46   C     C_2   0.831425 0.523871 0.518910 -0.165798
C47   C     C_2   0.682114 0.063167 0.471675 -0.152817
C48   C     C_2   0.331301 0.023023 0.518778 -0.163397
C49   C     C_2   0.227837 0.699279 0.526031 -0.153181
C50   C     C_2   0.820305 0.563444 0.444960 -0.147296
C51   C     C_2   0.686724 0.086425 0.547426 -0.162626
C52   C     C_2   0.320291 0.062590 0.444806 -0.144058
C53   C     C_R   0.260808 0.635530 0.851295 0.554844
C54   C     C_R   0.739031 0.635762 0.148661 0.555330
C55   C     C_R   0.760806 0.135524 0.851293 0.552497
C56   C     C_R   0.521252 0.052293 0.924519 -0.087959
C57   C     C_R   0.239032 0.135757 0.148663 0.555352
C58   C     C_R   0.291622 0.997014 0.640119 0.568093
C59   C     C_R   0.726155 0.042377 0.353670 0.546585
C60   C     C_R   0.791659 0.496844 0.640159 0.572879
C61   C     C_R   0.229056 0.548497 0.350138 0.549417
C62   C     C_R   0.473092 0.824836 0.649574 0.543942
C63   C     C_R   0.563330 0.819412 0.359754 0.568681
C64   C     C_R   0.973088 0.324795 0.649578 0.544205
C65   C     C_R   0.063542 0.319442 0.359689 0.574175
C66   C     C_R   0.261597 0.642047 0.643958 0.546639
C67   C     C_R   0.994675 0.560550 0.070833 -0.081833
C68   C     C_R   0.740405 0.632721 0.352344 0.545796
C69   C     C_R   0.759807 0.134013 0.647630 0.548744
C70   C     C_R   0.240409 0.132624 0.352319 0.545669
C71   C     C_R   0.497372 0.832999 0.075858 -0.002727
C72   C     C_R   0.497445 0.828795 0.926562 0.003087
C73   C     C_R   0.997368 0.332994 0.075860 -0.002490
C74   C     C_R   0.997440 0.328800 0.926565 0.003127
C75   C     C_R   0.499103 0.945408 0.037086 0.025203
C76   C     C_R   0.506109 0.942220 0.961873 0.024511
C77   C     C_R   0.999085 0.445405 0.037092 0.025324
C78   C     C_R   0.021220 0.552311 0.924531 -0.087875
C79   C     C_R   0.006090 0.442227 0.961879 0.024386
C80   C     C_R   0.491529 0.720224 0.966527 -0.149927
C81   C     C_R   0.489417 0.722660 0.039489 -0.154315
C82   C     C_R   0.991535 0.220225 0.966526 -0.149875
C83   C     C_R   0.989423 0.222655 0.039488 -0.154200
C84   C     C_R   0.005864 0.668699 0.032308 -0.125687
Cr1   Cr    Cr6+3 0.230530 0.836340 0.748870 1.013689
Cr2   Cr    Cr6+3 0.614360 0.677860 0.250770 1.016808
Cr3   Cr    Cr6+3 0.885640 0.177860 0.749230 1.017724
Cr4   Cr    Cr6+3 0.114360 0.177860 0.250770 1.014516
Cr5   Cr    Cr6+3 0.769470 0.836340 0.251130 1.017819
Cr6   Cr    Cr6+3 0.730530 0.336340 0.748870 1.014793
Cr7   Cr    Cr6+3 0.269470 0.336340 0.251130 1.016404
Cr8   Cr    Cr6+3 0.387420 0.989430 0.750820 1.015724
Cr9   Cr    Cr6+3 0.612580 0.989430 0.249180 1.012755
Cr10  Cr    Cr6+3 0.887420 0.489430 0.750820 1.018009
Cr11  Cr    Cr6+3 0.112580 0.489430 0.249180 1.013759
Cr12  Cr    Cr6+3 0.385640 0.677860 0.749230 1.019430
H1    H     H_    0.485161 0.631667 0.941545 0.136705
H2    H     H_    0.863699 0.611362 0.419035 0.157308
H3    H     H_    0.642408 0.132303 0.571835 0.153253
H4    H     H_    0.363785 0.110109 0.418817 0.155685
H5    H     H_    0.305328 0.569353 0.435936 0.113780
H6    H     H_    0.724368 0.538265 0.549893 0.104503
H7    H     H_    0.791491 0.084014 0.447018 0.098397
H8    H     H_    0.224464 0.040225 0.549980 0.099880
H9    H     H_    0.274548 0.525875 0.549864 0.098981
H10   H     H_    0.714873 0.500518 0.436192 0.098676
H11   H     H_    0.788308 0.013237 0.560491 0.113052
H12   H     H_    0.486026 0.635593 0.067493 0.137003
H13   H     H_    0.214742 0.000447 0.436230 0.090164
H14   H     H_    0.481014 0.068418 0.126653 0.131983
H15   H     H_    0.534464 0.052604 0.868313 0.128211
H16   H     H_    0.980985 0.568396 0.126667 0.131745
H17   H     H_    0.034434 0.552635 0.868325 0.129037
H18   H     H_    0.003390 0.756089 0.059042 0.106507
H19   H     H_    0.032202 0.748071 0.930396 0.110121
H20   H     H_    0.503445 0.256094 0.059022 0.106717
H21   H     H_    0.532260 0.248050 0.930377 0.109914
H22   H     H_    0.325084 0.447624 0.061134 0.153679
H23   H     H_    0.985175 0.131668 0.941542 0.136756
H24   H     H_    0.675042 0.444713 0.940242 0.151914
H25   H     H_    0.825063 0.947576 0.061124 0.153538
H26   H     H_    0.175054 0.944685 0.940247 0.151867
H27   H     H_    0.196053 0.580475 0.942610 0.113317
H28   H     H_    0.803714 0.582081 0.057755 0.111661
H29   H     H_    0.696044 0.080456 0.942599 0.113297
H30   H     H_    0.303719 0.082073 0.057761 0.111676
H31   H     H_    0.602777 0.671053 0.462649 0.134623
H32   H     H_    0.543596 0.651840 0.580821 0.156791
H33   H     H_    0.101563 0.169237 0.462343 0.133134
H34   H     H_    0.986042 0.135584 0.067489 0.137011
H35   H     H_    0.043023 0.151367 0.580662 0.156827
H36   H     H_    0.511291 0.902080 0.450580 0.098074
H37   H     H_    0.524913 0.930876 0.565298 0.089918
H38   H     H_    0.013028 0.403765 0.450800 0.102678
H39   H     H_    0.025056 0.430652 0.565410 0.098544
H40   H     H_    0.356472 0.539838 0.939408 0.150905
H41   H     H_    0.643165 0.538416 0.060813 0.154326
H42   H     H_    0.856460 0.039787 0.939399 0.151040
H43   H     H_    0.143173 0.038382 0.060819 0.154284
H44   H     H_    0.222312 0.664768 0.053632 0.113170
H45   H     H_    0.170289 0.722503 0.426968 0.153308
H46   H     H_    0.777764 0.664701 0.945317 0.112829
H47   H     H_    0.722309 0.164745 0.053621 0.113259
H48   H     H_    0.277765 0.164690 0.945322 0.112917
H49   H     H_    0.885102 0.510275 0.537093 0.131890
H50   H     H_    0.629420 0.048651 0.450794 0.149025
H51   H     H_    0.384894 0.008120 0.536841 0.131826
H52   H     H_    0.208123 0.784675 0.547293 0.150474
O1    O     O_R   0.215090 0.709860 0.828130 -0.520286
O2    O     O_R   0.543740 0.718170 0.330000 -0.499358
O3    O     O_R   0.956260 0.218170 0.670000 -0.508512
O4    O     O_R   0.043740 0.218170 0.330000 -0.503436
O5    O     O_R   0.320940 0.626760 0.674370 -0.493349
O6    O     O_R   0.679060 0.626760 0.325630 -0.520287
O7    O     O_R   0.820940 0.126760 0.674370 -0.498534
O8    O     O_R   0.179060 0.126760 0.325630 -0.521842
O9    O     O_3   0.334530 0.834540 0.749640 -0.266600
O10   O     O_3   0.665470 0.834540 0.250360 -0.266047
O11   O     O_3   0.834530 0.334540 0.749640 -0.265520
O12   O     O_R   0.784910 0.709860 0.171870 -0.520366
O13   O     O_3   0.165470 0.334540 0.250360 -0.264428
O14   O     O_R   0.236990 0.958390 0.823710 -0.492530
O15   O     O_R   0.763010 0.958390 0.176290 -0.496002
O16   O     O_R   0.736990 0.458390 0.823710 -0.493166
O17   O     O_R   0.263010 0.458390 0.176290 -0.496975
O18   O     O_R   0.332380 0.074750 0.830850 -0.506187
O19   O     O_R   0.667620 0.074750 0.169150 -0.509396
O20   O     O_R   0.832380 0.574750 0.830850 -0.506446
O21   O     O_R   0.167620 0.574750 0.169150 -0.511405
O22   O     O_R   0.445800 0.917770 0.825070 -0.504916
O23   O     O_R   0.715090 0.209860 0.828130 -0.522396
O24   O     O_R   0.554200 0.917770 0.174930 -0.502364
O25   O     O_R   0.945800 0.417770 0.825070 -0.504765
O26   O     O_R   0.054200 0.417770 0.174930 -0.502825
O27   O     O_R   0.456410 0.716580 0.829970 -0.523778
O28   O     O_R   0.543590 0.716580 0.170030 -0.519300
O29   O     O_R   0.956410 0.216580 0.829970 -0.523545
O30   O     O_R   0.043590 0.216580 0.170030 -0.519374
O31   O     O_R   0.321080 0.625290 0.822650 -0.492883
O32   O     O_R   0.678920 0.625290 0.177350 -0.495286
O33   O     O_R   0.821080 0.125290 0.822650 -0.494011
O34   O     O_R   0.284910 0.209860 0.171870 -0.519984
O35   O     O_R   0.178920 0.125290 0.177350 -0.495667
O36   O     O_R   0.214930 0.711450 0.668160 -0.523552
O37   O     O_R   0.785070 0.711450 0.331840 -0.510102
O38   O     O_R   0.714930 0.211450 0.668160 -0.523125
O39   O     O_R   0.285070 0.211450 0.331840 -0.510011
O40   O     O_R   0.236850 0.959870 0.675420 -0.504651
O41   O     O_R   0.763150 0.959870 0.324580 -0.493754
O42   O     O_R   0.736850 0.459870 0.675420 -0.498773
O43   O     O_R   0.263150 0.459870 0.324580 -0.498889
O44   O     O_R   0.332230 0.076350 0.670880 -0.499429
O45   O     O_R   0.445660 0.919250 0.676780 -0.523111
O46   O     O_R   0.667770 0.076350 0.329120 -0.522691
O47   O     O_R   0.832230 0.576350 0.670880 -0.502369
O48   O     O_R   0.167770 0.576350 0.329120 -0.522667
O49   O     O_R   0.554340 0.919250 0.323220 -0.506988
O50   O     O_R   0.945660 0.419250 0.676780 -0.521533
O51   O     O_R   0.054340 0.419250 0.323220 -0.501409
O52   O     O_R   0.456260 0.718170 0.670000 -0.508115

loop_
_geom_bond_atom_site_label_1
_geom_bond_atom_site_label_2
_ccdc_geom_bond_type
C44   C49   S    
C43   C73   S    
C31   C66   S    
C43   O30   A    
Cr10  O11   S    
C56   C76   A    
Cr12  O27   S    
C64   O50   A    
C80   H1    S    
Cr3   O3    S    
Cr4   O4    S    
C14   C18   S    
C2    C84   A    
Cr9   O46   S    
C67   C77   A    
C24   C27   D    
C6    H28   S    
C75   C76   A    
C12   O19   A    
C40   O22   A    
C39   H8    S    
Cr9   O24   S    
C32   C68   S    
C15   C19   S    
C6    C19   D    
C69   O7    A    
C70   O8    A    
Cr4   O8    S    
C5    C53   S    
Cr11  O26   S    
C6    C54   S    
C68   O6    A    
C10   C15   D    
Cr2   O2    S    
C10   H46   S    
C37   H6    S    
C9    H44   S    
C46   H49   S    
C22   C62   S    
C42   O29   A    
Cr4   O13   S    
C48   H51   S    
C15   H24   S    
C30   H35   S    
C2    H19   S    
C13   H48   S    
C20   H42   S    
Cr6   O11   S    
Cr11  O51   S    
C66   O36   A    
C65   O51   A    
C27   H31   S    
C29   H33   S    
C35   C70   S    
Cr8   O22   S    
C44   H45   S    
C14   H22   S    
C33   H11   S    
Cr6   O23   S    
C18   H40   S    
C7    C55   S    
C34   O17   A    
C40   C72   S    
C56   H15   S    
C35   H13   S    
C33   C69   S    
C41   C71   S    
C27   C28   S    
Cr1   O40   S    
Cr12  O9    S    
C81   H12   S    
C67   C84   A    
C32   H10   S    
C4    C56   A    
C53   O1    A    
Cr1   O14   S    
C31   H9    S    
C54   O12   A    
Cr9   O10   S    
Cr1   O9    S    
C82   H23   S    
C31   C49   D    
C53   O31   A    
C55   O23   A    
C57   O34   A    
C46   C50   S    
C77   C79   A    
C59   O46   A    
C51   H3    S    
C41   O24   A    
C50   H2    S    
C42   C74   S    
C22   H37   S    
C58   O40   A    
Cr10  O47   S    
Cr5   O10   S    
C83   H34   S    
Cr8   O45   S    
Cr10  O20   S    
C45   H14   S    
Cr4   O35   S    
C47   C51   S    
C5    C18   D    
Cr6   O38   S    
C39   C58   S    
Cr7   O43   S    
C3    C45   A    
C17   C21   S    
C33   C51   D    
C63   O49   A    
C49   H52   S    
Cr6   O16   S    
Cr8   O9    S    
Cr10  O50   S    
C25   C64   S    
Cr9   O49   S    
C9    C14   D    
C63   O2    A    
C38   H7    S    
C26   H38   S    
Cr8   O18   S    
C8    C57   S    
Cr3   O29   S    
C23   O20   A    
Cr11  O21   S    
C11   C16   D    
C24   H36   S    
Cr12  O5    S    
C16   C20   S    
Cr2   O32   S    
C8    C21   D    
C55   O33   A    
C72   C76   A    
C36   H5    S    
C7    H29   S    
Cr2   O10   S    
C61   O48   A    
C32   C50   D    
C38   C47   D    
C34   O21   A    
C70   O39   A    
C8    H30   S    
C41   O28   A    
C68   O37   A    
C7    C20   D    
C24   C63   S    
C74   C79   A    
C58   O44   A    
C9    C34   S    
Cr3   O7    S    
C4    H21   S    
C36   C44   D    
C78   H17   S    
C1    C13   S    
C21   H43   S    
C3    C4    A    
C57   O35   A    
C2    C78   A    
Cr5   O12   S    
C23   O16   A    
Cr6   O42   S    
C25   C30   D    
Cr12  O52   S    
C16   H25   S    
Cr7   O39   S    
C84   H18   S    
Cr11  O48   S    
C78   C79   A    
C26   C65   S    
Cr5   O37   S    
Cr7   O17   S    
C80   C81   A    
C42   O25   A    
Cr3   O33   S    
C40   O27   A    
C11   C12   S    
Cr4   O30   S    
C36   C61   S    
C10   C23   S    
Cr1   O36   S    
C66   O5    A    
C3    H20   S    
C5    H27   S    
C52   H4    S    
C13   C17   D    
C45   C75   A    
C65   O4    A    
Cr11  O13   S    
Cr2   O6    S    
C62   O52   A    
C72   C80   A    
C12   O15   A    
C71   C75   A    
C1    O18   A    
Cr3   O11   S    
C17   H26   S    
C43   O26   A    
C54   O32   A    
Cr5   O15   S    
Cr2   O28   S    
Cr12  O31   S    
Cr5   O41   S    
C64   O3    A    
C25   H39   S    
Cr1   O1    S    
C47   H50   S    
C37   C60   S    
C59   O41   A    
C1    O14   A    
Cr10  O25   S    
C29   C30   S    
C38   C59   S    
Cr8   O44   S    
C67   H16   S    
C48   C52   S    
Cr9   O19   S    
C26   C29   D    
C60   O42   A    
C82   C83   A    
Cr7   O34   S    
C35   C52   D    
C61   O43   A    
C73   C77   A    
Cr7   O13   S    
C22   C28   D    
C19   H41   S    
C62   O45   A    
C37   C46   D    
C11   H47   S    
C69   O38   A    
C73   C83   A    
C74   C82   A    
C28   H32   S    
C60   O47   A    
C39   C48   D    
C71   C81   A    
