data_mof_unit_674.cif
_audit_creation_date              2012-12-10T18:01:44-0500
_audit_creation_method            fapswitch 2.2
_symmetry_space_group_name_H-M    P1
_symmetry_Int_Tables_number       1
_space_group_crystal_system       triclinic
_cell_length_a                    10.823158
_cell_length_b                    9.643705
_cell_length_c                    19.306619
_cell_angle_alpha                 90.001061
_cell_angle_beta                  92.350531
_cell_angle_gamma                 89.999285
_cell_volume                      2013.43946991

loop_
_atom_site_label
_atom_site_type_symbol
_atom_type_description
_atom_site_fract_x
_atom_site_fract_y
_atom_site_fract_z
_atom_type_partial_charge
C1    C     C_R   0.262481 0.500000 0.500493 0.731055
C2    C     C_R   0.737519 0.499999 0.499507 0.731055
C3    C     C_R   0.499913 0.500021 0.929699 0.439974
C4    C     C_R   0.500080 0.500011 0.070300 0.439974
C5    C     C_R   0.498872 0.500000 0.368037 0.800105
C6    C     C_R   0.501127 0.500000 0.631963 0.800104
C7    C     C_R   0.063900 0.374168 0.500665 -0.193678
C8    C     C_R   0.936099 0.625831 0.499333 -0.193672
C9    C     C_R   0.936098 0.374168 0.499274 -0.193679
C10   C     C_R   0.063902 0.625831 0.500726 -0.193673
C11   C     C_R   0.871538 0.499999 0.499165 -0.008134
C12   C     C_R   0.128462 0.500000 0.500834 -0.008134
C13   C     C_R   0.447095 0.074054 0.445521 0.404622
C14   C     C_R   0.552901 0.925947 0.554480 0.404595
C15   C     C_R   0.552900 0.074054 0.554481 0.404498
C16   C     C_R   0.447104 0.925947 0.445518 0.404469
C17   C     C_R   0.611986 0.500170 0.258886 0.125363
C18   C     C_R   0.388013 0.499893 0.741114 0.125362
C19   C     C_R   0.614516 0.500100 0.747208 0.158317
C20   C     C_R   0.385482 0.499858 0.252792 0.158319
C21   C     C_R   0.611611 0.500180 0.186345 -0.139823
C22   C     C_R   0.388385 0.499892 0.813655 -0.139820
C23   C     C_R   0.612261 0.500122 0.819506 -0.155259
C24   C     C_R   0.387734 0.499845 0.180493 -0.155258
C25   C     C_R   0.499948 0.500009 0.146747 -0.035059
C26   C     C_R   0.500047 0.500015 0.853252 -0.035060
C27   C     C_R   0.498403 0.500004 0.292346 0.007351
C28   C     C_R   0.501596 0.500000 0.707654 0.007353
Cu1   Cu    Cu3+1 0.500000 0.640660 0.500000 0.991413
Cu2   Cu    Cu3+1 0.500000 0.359340 0.500000 0.991437
H1    H     H_    0.111659 0.275689 0.501726 0.138331
H2    H     H_    0.888342 0.724310 0.498271 0.138327
H3    H     H_    0.888339 0.275691 0.498163 0.138337
H4    H     H_    0.111660 0.724308 0.501838 0.138333
H5    H     H_    0.698863 0.500302 0.160796 0.162166
H6    H     H_    0.301132 0.499818 0.839204 0.162164
H7    H     H_    0.699231 0.500194 0.849403 0.168915
H8    H     H_    0.300762 0.499735 0.150597 0.168914
N1    N     N_R   0.500000 0.852070 0.500000 -0.289958
N2    N     N_R   0.500000 0.147930 0.500000 -0.289959
N3    N     N_R   0.392091 0.499393 0.031943 -0.237943
N4    N     N_R   0.607902 0.500639 0.968056 -0.237943
N5    N     N_R   0.391981 0.499398 0.963056 -0.237700
N6    N     N_R   0.608012 0.500634 0.036943 -0.237700
O1    O     O_R   0.319640 0.618740 0.500000 -0.587514
O2    O     O_R   0.680360 0.381260 0.500000 -0.587503
O3    O     O_R   0.680360 0.618740 0.500000 -0.587477
O4    O     O_R   0.319640 0.381260 0.500000 -0.587466
O5    O     O_R   0.499980 0.618820 0.400140 -0.521881
O6    O     O_R   0.500020 0.381180 0.599860 -0.521866
O7    O     O_R   0.500020 0.618820 0.599860 -0.521834
O8    O     O_R   0.499980 0.381180 0.400140 -0.521820
C29   C     C_3   0.733694 0.500332 0.299949 -0.861479
H9    H     H_    0.740490 0.406527 0.333250 0.234942
H10   H     H_    0.813722 0.500436 0.265726 0.232210
H11   H     H_    0.740291 0.594158 0.333244 0.235081
C30   C     C_3   0.266306 0.499783 0.700051 -0.861478
H12   H     H_    0.259546 0.593587 0.666748 0.234964
H13   H     H_    0.259674 0.405956 0.666758 0.235060
H14   H     H_    0.186277 0.499722 0.734274 0.232209
C31   C     C_3   0.739287 0.500166 0.715204 -0.888789
H15   H     H_    0.791789 0.593836 0.732354 0.235307
H16   H     H_    0.791907 0.406606 0.732397 0.235266
H17   H     H_    0.733221 0.500101 0.657902 0.201548
C32   C     C_3   0.260711 0.499739 0.284797 -0.888784
H18   H     H_    0.208247 0.406035 0.267655 0.235323
H19   H     H_    0.266779 0.499831 0.342099 0.201547
H20   H     H_    0.208050 0.593266 0.267595 0.235247
O9    O     O_3   0.403147 0.142491 0.386697 -0.515471
C33   C     C_3   0.274297 0.164512 0.389197 -0.190847
H21   H     H_    0.255316 0.276879 0.386812 0.178980
H22   H     H_    0.228110 0.119244 0.342182 0.150128
H23   H     H_    0.230288 0.121864 0.435861 0.084813
O10   O     O_3   0.596833 0.857514 0.613309 -0.515485
C34   C     C_3   0.725678 0.835455 0.610811 -0.190790
H24   H     H_    0.771875 0.880731 0.657821 0.150111
H25   H     H_    0.769695 0.878069 0.564144 0.084825
H26   H     H_    0.744634 0.723084 0.613209 0.178980
O11   O     O_3   0.596819 0.142488 0.613313 -0.515517
C35   C     C_3   0.725651 0.164630 0.610804 -0.190646
H27   H     H_    0.744554 0.277009 0.613275 0.178975
H28   H     H_    0.771902 0.119258 0.657774 0.150034
H29   H     H_    0.769653 0.122167 0.564097 0.084901
O12   O     O_3   0.403201 0.857516 0.386681 -0.515530
C36   C     C_3   0.274374 0.835336 0.389188 -0.190584
H30   H     H_    0.228112 0.880719 0.342223 0.150016
H31   H     H_    0.230364 0.877763 0.435900 0.084914
H32   H     H_    0.255496 0.722951 0.386703 0.178973

loop_
_geom_bond_atom_site_label_1
_geom_bond_atom_site_label_2
_ccdc_geom_bond_type
C3    N4    A    
C4    C25   S    
Cu1   O5    S    
C29   H9    S    
C2    O2    A    
C3    N5    A    
Cu1   O3    S    
C14   O10   S    
Cu2   O4    S    
C36   H30   S    
C30   H13   S    
C4    N3    A    
C16   O12   S    
C23   C26   A    
C31   H16   S    
C13   N2    A    
Cu2   O8    S    
C14   N1    A    
C5    C27   S    
O12   C36   S    
C15   O11   S    
C20   C24   A    
C32   H19   S    
C24   H8    S    
C5    O8    A    
C33   H21   S    
C6    O7    A    
C36   H31   S    
Cu2   O6    S    
C9    H3    S    
N3    N5    A    
C5    O5    A    
O9    C33   S    
C1    C12   S    
N4    N6    A    
C35   H29   S    
C2    C11   S    
C29   H10   S    
C7    C12   A    
C6    C28   S    
C7    H1    S    
O10   C34   S    
C17   C27   A    
C20   C32   S    
C18   C28   A    
C24   C25   A    
C35   H28   S    
C30   H14   S    
C4    N6    A    
C23   H7    S    
C17   C21   A    
Cu1   O1    S    
C8    H2    S    
C31   H17   S    
C19   C23   A    
C34   H24   S    
Cu1   Cu2   S    
C34   H25   S    
C18   C30   S    
C32   H20   S    
Cu1   N1    S    
C33   H23   S    
Cu2   N2    S    
C10   H4    S    
C6    O6    A    
C19   C28   A    
C9    C11   A    
C10   C12   A    
C17   C29   S    
C36   H32   S    
Cu1   O7    S    
C29   H11   S    
C7    C9    A    
C21   C25   A    
C18   C22   A    
Cu2   O2    S    
C3    C26   S    
C35   H27   S    
C1    O4    A    
C21   H5    S    
C20   C27   A    
C2    O3    A    
C22   H6    S    
C1    O1    A    
C30   H12   S    
C13   O9    S    
C19   C31   S    
C8    C11   A    
C31   H15   S    
C34   H26   S    
C15   N2    A    
C16   N1    A    
O11   C35   S    
C8    C10   A    
C32   H18   S    
C22   C26   A    
C13   C16   A    
C14   C15   A    
C33   H22   S    
