data_mof_unit_387.cif
_audit_creation_date              2012-12-10T20:51:41-0500
_audit_creation_method            fapswitch 2.2
_symmetry_space_group_name_H-M    P1
_symmetry_Int_Tables_number       1
_space_group_crystal_system       triclinic
_cell_length_a                    8.089286
_cell_length_b                    8.937285
_cell_length_c                    16.871193
_cell_angle_alpha                 89.530508
_cell_angle_beta                  93.482042
_cell_angle_gamma                 89.998191
_cell_volume                      1217.43126479

loop_
_atom_site_label
_atom_site_type_symbol
_atom_type_description
_atom_site_fract_x
_atom_site_fract_y
_atom_site_fract_z
_atom_type_partial_charge
C1    C     C_R   0.499977 0.217915 0.500001 0.941629
C2    C     C_R   0.500022 0.782079 0.499972 0.917534
C3    C     C_R   0.519501 0.501745 0.653920 0.893827
C4    C     C_R   0.480491 0.507438 0.346164 0.892545
C5    C     C_R   0.527698 0.526567 0.739403 -0.154597
C6    C     C_R   0.472206 0.540369 0.261194 -0.155855
C7    C     C_R   0.381621 0.551263 0.779340 0.499574
C8    C     C_R   0.617610 0.574736 0.222268 0.499514
C9    C     C_R   0.394018 0.581287 0.860055 -0.262278
C10   C     C_R   0.605196 0.609017 0.141758 -0.261135
C11   C     C_R   0.550144 0.592120 0.901163 0.261362
C12   C     C_R   0.449656 0.612475 0.099688 0.259753
C13   C     C_R   0.693718 0.571762 0.860909 -0.191098
C14   C     C_R   0.306102 0.587785 0.139526 -0.190575
C15   C     C_R   0.683042 0.538611 0.780613 -0.290900
C16   C     C_R   0.316870 0.551066 0.219707 -0.290166
C17   C     C_1   0.499989 0.065152 0.499981 -0.192889
C18   C     C_1   0.500014 0.934819 0.499970 -0.198831
H1    H     H_    0.718417 0.627674 0.112001 0.163611
H2    H     H_    0.280533 0.592172 0.890423 0.164058
H3    H     H_    0.814214 0.577832 0.892463 0.156839
H4    H     H_    0.185980 0.590197 0.107424 0.157919
H5    H     H_    0.796508 0.522194 0.750890 0.202794
H6    H     H_    0.203607 0.529253 0.248911 0.205849
N1    N     N_1   0.073640 0.500030 0.499990 -0.026640
N2    N     N_1   0.926360 0.499970 0.500010 -0.026662
N3    N     N_2   0.567481 0.606153 0.984320 -0.181487
N4    N     N_2   0.433785 0.621611 0.016206 -0.184299
O1    O     O_R   0.636850 0.285340 0.500000 -0.613019
O2    O     O_R   0.363150 0.714660 0.500000 -0.624951
O3    O     O_R   0.363100 0.285350 0.500000 -0.612302
O4    O     O_R   0.636900 0.714650 0.500000 -0.625297
O5    O     O_R   0.652140 0.498630 0.616140 -0.633448
O6    O     O_R   0.347860 0.501370 0.383860 -0.632613
O7    O     O_R   0.378390 0.498650 0.616130 -0.564599
O8    O     O_R   0.621610 0.501350 0.383870 -0.563819
Zn1   Zn    Zn3+2 0.682780 0.499990 0.500010 1.001239
Zn2   Zn    Zn3+2 0.317220 0.500010 0.499990 1.001807
O9    O     O_3   0.773140 0.562232 0.260777 -0.592136
C19   C     C_3   0.836472 0.706945 0.275950 -0.279921
H7    H     H_    0.750542 0.774778 0.310314 0.159462
H8    H     H_    0.863867 0.765872 0.219940 0.148570
H9    H     H_    0.954691 0.696242 0.312485 0.192984
O10   O     O_3   0.226275 0.534552 0.741262 -0.591252
C20   C     C_3   0.153718 0.677104 0.728974 -0.279579
H10   H     H_    0.236420 0.754556 0.697701 0.159099
H11   H     H_    0.119263 0.726477 0.785961 0.148430
H12   H     H_    0.038372 0.664499 0.690583 0.191951

loop_
_geom_bond_atom_site_label_1
_geom_bond_atom_site_label_2
_ccdc_geom_bond_type
C4    O8    A    
N2    Zn1   S    
C8    O9    S    
C3    O7    A    
N1    Zn2   S    
C2    C18   S    
C9    C11   A    
C9    H2    S    
C1    C17   S    
O3    Zn2   S    
C11   N3    S    
C10   H1    S    
C2    O2    A    
N3    N4    D    
C19   H9    S    
C14   H4    S    
C1    O1    A    
C17   C18   T    
C13   H3    S    
C16   H6    S    
C20   H10   S    
C11   C13   A    
C10   C12   A    
C12   N4    S    
C15   H5    S    
C19   H7    S    
C12   C14   A    
C14   C16   A    
C20   H11   S    
C13   C15   A    
C4    O6    A    
C5    C15   A    
C4    C6    S    
O4    Zn1   S    
C3    O5    A    
C6    C16   A    
C7    C9    A    
C1    O3    A    
O7    Zn2   S    
O10   C20   S    
O2    Zn2   S    
C2    O4    A    
C20   H12   S    
O1    Zn1   S    
O9    C19   S    
C5    C7    A    
O8    Zn1   S    
C6    C8    A    
C7    O10   S    
N1    N2    T    
O6    Zn2   S    
C8    C10   A    
O5    Zn1   S    
C19   H8    S    
C3    C5    S    
