data_mof_unit_4409.cif
_audit_creation_date              2012-12-10T20:47:08-0500
_audit_creation_method            fapswitch 2.2
_symmetry_space_group_name_H-M    P1
_symmetry_Int_Tables_number       1
_space_group_crystal_system       triclinic
_cell_length_a                    10.653381
_cell_length_b                    8.928516
_cell_length_c                    8.125112
_cell_angle_alpha                 90.078008
_cell_angle_beta                  89.999371
_cell_angle_gamma                 89.999803
_cell_volume                      772.850858997

loop_
_atom_site_label
_atom_site_type_symbol
_atom_type_description
_atom_site_fract_x
_atom_site_fract_y
_atom_site_fract_z
_atom_type_partial_charge
C1    C     C_R   0.500000 0.218082 0.499902 0.904730
C2    C     C_R   0.065782 0.363471 0.571025 0.093527
C3    C     C_R   0.127982 0.486735 0.499619 -0.090277
C4    C     C_R   0.872018 0.486731 0.499613 -0.090278
C5    C     C_R   0.064142 0.603972 0.424498 -0.204623
C6    C     C_R   0.935859 0.603970 0.424495 -0.204621
C7    C     C_1   0.500000 0.065235 0.499904 -0.199320
C8    C     C_1   0.500000 0.934800 0.500108 -0.198646
C9    C     C_R   0.500000 0.781925 0.500050 0.933398
C10   C     C_R   0.259908 0.496400 0.500002 0.859374
C11   C     C_R   0.740092 0.496396 0.500000 0.859375
C12   C     C_R   0.130870 0.239416 0.637696 -0.175684
C13   C     C_R   0.869128 0.239409 0.637682 -0.175681
C14   C     C_R   0.065319 0.118447 0.703947 -0.132825
C15   C     C_R   0.934678 0.118442 0.703938 -0.132819
C16   C     C_R   0.934216 0.363468 0.571020 0.093525
H1    H     H_    0.113980 0.696922 0.368742 0.152336
H2    H     H_    0.886021 0.696918 0.368737 0.152337
H3    H     H_    0.116043 0.023901 0.754154 0.143852
H4    H     H_    0.883954 0.023891 0.754136 0.143851
H5    H     H_    0.232223 0.233601 0.637150 0.144610
H6    H     H_    0.767775 0.233592 0.637127 0.144602
N1    N     N_1   0.500000 0.500000 0.073640 -0.030366
N2    N     N_1   0.500000 0.500000 0.926360 -0.030659
O1    O     O_R   0.500000 0.285350 0.636850 -0.628319
O2    O     O_R   0.500000 0.714650 0.636850 -0.613345
O3    O     O_R   0.500000 0.285360 0.363100 -0.609207
O4    O     O_R   0.500000 0.714640 0.363100 -0.615337
O5    O     O_R   0.316770 0.500000 0.636900 -0.620499
O6    O     O_R   0.683230 0.500000 0.636900 -0.620495
O7    O     O_R   0.316780 0.500000 0.363150 -0.613618
O8    O     O_R   0.683220 0.500000 0.363150 -0.613621
Zn1   Zn    Zn3+2 0.500000 0.500000 0.682780 0.982978
Zn2   Zn    Zn3+2 0.500000 0.500000 0.317220 0.991744

loop_
_geom_bond_atom_site_label_1
_geom_bond_atom_site_label_2
_ccdc_geom_bond_type
C4    C16   A    
N1    N2    T    
C2    C16   A    
O2    Zn1   S    
N2    Zn1   S    
N1    Zn2   S    
C2    C12   A    
C2    C3    A    
O7    Zn2   S    
O4    Zn2   S    
C7    C8    T    
C3    C10   S    
C4    C11   S    
C1    O1    A    
C10   O5    A    
C5    C6    A    
C13   H6    S    
C12   H5    S    
C12   C14   A    
C9    O2    A    
C10   O7    A    
C13   C15   A    
O3    Zn2   S    
C15   H4    S    
C6    H2    S    
C5    H1    S    
O5    Zn1   S    
C11   O6    A    
C4    C6    A    
C13   C16   A    
C1    O3    A    
C14   C15   A    
O6    Zn1   S    
C3    C5    A    
C1    C7    S    
C14   H3    S    
C9    O4    A    
O1    Zn1   S    
C8    C9    S    
C11   O8    A    
O8    Zn2   S    
