data_mof_unit_1985.cif
_audit_creation_date              2012-12-10T16:47:59-0500
_audit_creation_method            fapswitch 2.2
_symmetry_space_group_name_H-M    P1
_symmetry_Int_Tables_number       1
_space_group_crystal_system       triclinic
_cell_length_a                    7.779874
_cell_length_b                    8.574649
_cell_length_c                    10.710144
_cell_angle_alpha                 91.016006
_cell_angle_beta                  86.060803
_cell_angle_gamma                 93.46455
_cell_volume                      711.413589445

loop_
_atom_site_label
_atom_site_type_symbol
_atom_type_description
_atom_site_fract_x
_atom_site_fract_y
_atom_site_fract_z
_atom_type_partial_charge
C1    C     C_R   0.545598 0.794636 0.496866 0.972776
C2    C     C_2   0.569666 0.958016 0.494986 -0.368056
C3    C     C_3   0.205170 0.557526 0.108095 -0.289561
C4    C     C_2   0.430311 0.041959 0.505004 -0.374794
C5    C     C_R   0.501956 0.495713 0.736888 0.906428
C6    C     C_R   0.454395 0.205356 0.503121 0.952766
C7    C     C_R   0.498618 0.507843 0.262286 0.794896
C8    C     C_2   0.642862 0.508375 0.058953 -0.286561
C9    C     C_2   0.499446 0.538569 0.130212 0.385674
C10   C     C_2   0.647529 0.520481 0.924957 -0.118741
C11   C     C_2   0.505684 0.477661 0.867405 -0.250747
H1    H     H_    0.755936 0.464188 0.097243 0.140544
H2    H     H_    0.064229 0.696124 0.656500 0.339700
H3    H     H_    0.767588 0.559835 0.874076 0.182589
H4    H     H_    0.389250 0.428147 0.916675 0.164779
H5    H     H_    0.701421 0.008702 0.485362 0.183803
H6    H     H_    0.298555 0.991259 0.514643 0.185953
H7    H     H_    0.013353 0.382547 0.406079 0.136434
H8    H     H_    0.143219 0.612911 0.192764 0.200961
H9    H     H_    0.201226 0.428106 0.118120 0.128937
H10   H     H_    0.126577 0.581649 0.028781 0.181447
N1    N     N_2   0.950320 0.457950 0.466680 -0.078151
N2    N     N_2   0.049680 0.542050 0.533320 0.095749
O1    O     O_R   0.389250 0.738570 0.508180 -0.624075
O2    O     O_3   0.969966 0.640923 0.612606 -0.637242
O3    O     O_R   0.678390 0.711630 0.486820 -0.567762
O4    O     O_R   0.355470 0.513470 0.691600 -0.627090
O5    O     O_R   0.644610 0.486520 0.670240 -0.566505
O6    O     O_R   0.321610 0.288370 0.513180 -0.641303
O7    O     O_R   0.610750 0.261430 0.491820 -0.617169
O8    O     O_R   0.355390 0.513480 0.329760 -0.634241
O9    O     O_R   0.644530 0.486530 0.308400 -0.651259
O10   O     O_3   0.373597 0.626034 0.082300 -0.592680
Zn1   Zn    Zn3+2 0.306940 0.517990 0.514260 0.969282
Zn2   Zn    Zn3+2 0.693060 0.482010 0.485740 1.003218

loop_
_geom_bond_atom_site_label_1
_geom_bond_atom_site_label_2
_ccdc_geom_bond_type
C2    C4    D    
C3    H8    S    
C5    O5    A    
C2    H5    S    
C8    H1    S    
N2    Zn1   S    
O8    Zn1   S    
C3    H9    S    
C5    O4    A    
C9    O10   S    
N1    Zn2   S    
H2    O2    S    
O7    Zn2   S    
C4    H6    S    
C8    C10   S    
C6    O7    A    
C5    C11   S    
N2    O2    S    
O4    Zn1   S    
C1    O3    A    
C3    H10   S    
C7    O8    A    
C10   C11   D    
C3    O10   S    
O9    Zn2   S    
O3    Zn2   S    
C6    O6    A    
C1    O1    A    
C4    C6    S    
C1    C2    S    
C10   H3    S    
C7    C9    S    
N1    N2    D    
C7    O9    A    
H7    N1    S    
C11   H4    S    
O6    Zn1   S    
O1    Zn1   S    
O5    Zn2   S    
C8    C9    D    
