data_mof_unit_4920.cif
_audit_creation_date              2013-03-05T15:46:36-0500
_audit_creation_method            fapswitch 2.2
_symmetry_space_group_name_H-M    P1
_symmetry_Int_Tables_number       1
_space_group_crystal_system       triclinic
_cell_length_a                    17.295634
_cell_length_b                    24.249863
_cell_length_c                    14.891431
_cell_angle_alpha                 89.849295
_cell_angle_beta                  125.430815
_cell_angle_gamma                 90.098118
_cell_volume                      5089.09211097

loop_
_atom_site_label
_atom_site_type_symbol
_atom_site_description
_atom_site_fract_x
_atom_site_fract_y
_atom_site_fract_z
_atom_type_partial_charge
C1    C     C_R   0.355201 0.347166 0.908728 -0.124432
C2    C     C_R   0.644611 0.347496 0.092322 -0.101392
C3    C     C_R   0.855280 0.847178 0.908682 -0.140339
C4    C     C_R   0.191125 0.877556 0.092134 -0.086243
H1    H     H_    0.320315 0.333767 0.824533 0.126998
H2    H     H_    0.681173 0.334744 0.177236 0.117794
H3    H     H_    0.820331 0.833809 0.824459 0.103423
H4    H     H_    0.249671 0.874384 0.177724 0.099472
N1    N     N_R   0.394180 0.396910 0.943210 -0.049209
N2    N     N_R   0.605820 0.396910 0.056790 -0.050989
N3    N     N_R   0.894180 0.896910 0.943210 -0.047728
N4    N     N_R   0.105820 0.896910 0.056790 -0.046994
C5    C     C_R   0.443081 0.651861 0.091647 -0.131375
C6    C     C_R   0.596418 0.625165 0.906797 -0.120644
C7    C     C_R   0.921185 0.142254 0.092018 -0.119393
C8    C     C_R   0.096618 0.124950 0.906827 -0.111819
H5    H     H_    0.491059 0.665708 0.175757 0.093031
H6    H     H_    0.568194 0.629524 0.820902 0.094841
H7    H     H_    0.958785 0.156384 0.175798 0.090987
H8    H     H_    0.068481 0.129216 0.820933 0.097040
N5    N     N_R   0.450950 0.603070 0.056740 -0.039638
N6    N     N_R   0.549050 0.603070 0.943260 -0.043475
N7    N     N_R   0.950950 0.103070 0.056740 -0.040903
N8    N     N_R   0.049050 0.103070 0.943260 -0.045559
C9    C     C_R   0.480291 0.454199 0.249477 -0.088819
C10   C     C_R   0.452840 0.454098 0.696872 -0.083184
C11   C     C_R   0.983353 0.953663 0.252651 -0.071020
C12   C     C_R   0.949289 0.954396 0.695163 -0.035453
H9    H     H_    0.472474 0.411581 0.263400 0.150591
H10   H     H_    0.441383 0.411351 0.672763 0.160104
H11   H     H_    0.975388 0.910893 0.265129 0.155013
H12   H     H_    0.935260 0.911846 0.669937 0.150195
N9    N     N_R   0.525650 0.471570 0.206150 -0.057844
N10   N     N_R   0.474350 0.471570 0.793850 -0.055263
N11   N     N_R   0.025650 0.971570 0.206150 -0.059552
N12   N     N_R   0.974350 0.971570 0.793850 -0.057678
C13   C     C_R   0.232577 0.546358 0.753368 -0.128399
C14   C     C_R   0.753980 0.545851 0.303556 -0.158258
C15   C     C_R   0.730893 0.045809 0.744280 -0.121646
C16   C     C_R   0.252004 0.046014 0.304571 -0.153870
H13   H     H_    0.214199 0.588957 0.750467 0.111898
H14   H     H_    0.759961 0.587526 0.332272 0.110332
H15   H     H_    0.709881 0.087913 0.731353 0.100543
H16   H     H_    0.256622 0.087725 0.332453 0.113444
N13   N     N_R   0.319480 0.528420 0.793810 -0.042832
N14   N     N_R   0.680520 0.528420 0.206190 -0.041966
N15   N     N_R   0.819480 0.028420 0.793810 -0.044759
N16   N     N_R   0.180520 0.028420 0.206190 -0.041547
C17   C     C_R   0.478337 0.546326 0.245498 -0.134245
C18   C     C_R   0.448301 0.545608 0.695213 -0.150803
C19   C     C_R   0.986229 0.045565 0.255633 -0.121897
C20   C     C_R   0.946558 0.045738 0.694522 -0.140922
H17   H     H_    0.465925 0.589173 0.251466 0.100519
H18   H     H_    0.426642 0.587534 0.666989 0.102629
H19   H     H_    0.983489 0.087655 0.274624 0.091253
H20   H     H_    0.925548 0.087810 0.667139 0.096665
N17   N     N_R   0.525640 0.528390 0.206120 -0.046925
N18   N     N_R   0.474360 0.528390 0.793880 -0.046848
N19   N     N_R   0.025640 0.028390 0.206120 -0.047238
N20   N     N_R   0.974360 0.028390 0.793880 -0.045606
C21   C     C_R   0.230681 0.454158 0.748854 -0.058430
C22   C     C_R   0.756590 0.454229 0.303097 -0.108673
C23   C     C_R   0.730397 0.953801 0.745463 -0.062797
C24   C     C_R   0.254356 0.954635 0.305264 -0.126558
H21   H     H_    0.209190 0.411463 0.737600 0.094594
H22   H     H_    0.767817 0.411869 0.330700 0.094290
H23   H     H_    0.709445 0.911042 0.735331 0.095914
H24   H     H_    0.264193 0.912535 0.333919 0.102502
N21   N     N_R   0.319490 0.471590 0.793840 -0.041884
N22   N     N_R   0.680510 0.471590 0.206160 -0.044004
N23   N     N_R   0.819490 0.971590 0.793840 -0.045845
N24   N     N_R   0.180510 0.971590 0.206160 -0.044043
C25   C     C_R   0.351197 0.652265 0.908945 -0.140187
C26   C     C_R   0.689461 0.625673 0.091426 -0.105896
C27   C     C_R   0.828821 0.142425 0.908936 -0.139373
C28   C     C_R   0.189653 0.125421 0.091449 -0.104414
H25   H     H_    0.312804 0.666518 0.824681 0.101898
H26   H     H_    0.747914 0.631437 0.176671 0.106586
H27   H     H_    0.781666 0.157449 0.825682 0.098693
H28   H     H_    0.248191 0.130999 0.176737 0.106799
N25   N     N_R   0.394130 0.603080 0.943110 -0.041432
N26   N     N_R   0.605870 0.603080 0.056890 -0.044404
N27   N     N_R   0.894130 0.103080 0.943110 -0.041291
N28   N     N_R   0.105870 0.103080 0.056890 -0.045477
C29   C     C_R   0.443739 0.347400 0.091264 -0.049308
C30   C     C_R   0.555401 0.347411 0.909238 -0.109019
C31   C     C_R   0.943796 0.847388 0.091226 -0.030932
C32   C     C_R   0.098232 0.875410 0.908074 -0.075559
H29   H     H_    0.486962 0.334945 0.176548 0.147219
H30   H     H_    0.512560 0.335018 0.823922 0.156799
H31   H     H_    0.986916 0.834910 0.176496 0.149417
H32   H     H_    0.069344 0.868203 0.822730 0.144262
N29   N     N_R   0.450990 0.396900 0.056840 -0.054631
N30   N     N_R   0.549010 0.396900 0.943160 -0.053786
N31   N     N_R   0.950990 0.896900 0.056840 -0.057402
N32   N     N_R   0.049010 0.896900 0.943160 -0.058726
C33   C     C_R   0.386646 0.314246 0.999785 0.089108
C34   C     C_R   0.611625 0.314503 0.001566 0.078056
C35   C     C_R   0.886655 0.814275 0.999714 0.086964
C36   C     C_R   0.189875 0.864503 0.000347 0.078476
C37   C     C_R   0.380599 0.683868 0.000765 0.089781
C38   C     C_R   0.686011 0.639208 0.998186 0.075349
C39   C     C_R   0.838587 0.163397 0.000987 0.092503
C40   C     C_R   0.186298 0.138902 0.998223 0.081595
C41   C     C_R   0.447351 0.500672 0.272616 0.124506
C42   C     C_R   0.433052 0.499988 0.631305 0.114435
C43   C     C_R   0.953769 0.999753 0.280613 0.116358
C44   C     C_R   0.928517 0.000224 0.629397 0.118135
C45   C     C_R   0.174372 0.500753 0.723198 0.058764
C46   C     C_R   0.803728 0.500370 0.366674 0.076308
C47   C     C_R   0.673130 0.000212 0.715144 0.063473
C48   C     C_R   0.300432 0.000747 0.368977 0.081564
Ni1   Ni    Ni4+2 0.434860 0.434850 0.869700 0.253558
Ni2   Ni    Ni4+2 0.565140 0.434850 0.130300 0.230627
Ni3   Ni    Ni4+2 0.934860 0.934850 0.869700 0.244024
Ni4   Ni    Ni4+2 0.065140 0.934850 0.130300 0.245947
Ni5   Ni    Ni4+2 0.565130 0.565140 0.130240 0.219702
Ni6   Ni    Ni4+2 0.434870 0.565140 0.869760 0.224034
Ni7   Ni    Ni4+2 0.065130 0.065140 0.130240 0.229674
Ni8   Ni    Ni4+2 0.934870 0.065140 0.869760 0.226938
C49   C     C_R   0.022053 0.552305 0.622172 0.142645
C50   C     C_R   0.928620 0.551918 0.532003 0.134081
C51   C     C_R   0.520863 0.051969 0.619966 0.158913
C52   C     C_R   0.425936 0.052068 0.534025 0.158652
C53   C     C_R   0.071659 0.502614 0.666415 0.043672
C54   C     C_R   0.882840 0.501968 0.483075 0.036691
C55   C     C_R   0.570705 0.002051 0.660197 0.032327
C56   C     C_R   0.379192 0.002294 0.485350 0.027456
C57   C     C_R   0.018587 0.453545 0.636486 -0.165352
C58   C     C_R   0.923995 0.453146 0.544106 -0.180811
C59   C     C_R   0.517761 0.953102 0.632597 -0.160154
C60   C     C_R   0.421591 0.953186 0.544648 -0.164861
H33   H     H_    0.052339 0.414539 0.674209 0.131470
H34   H     H_    0.888307 0.413855 0.514065 0.132259
H35   H     H_    0.551945 0.913918 0.668260 0.132442
H36   H     H_    0.385467 0.913980 0.515311 0.136083
C61   C     C_3   0.941039 0.602339 0.483379 -0.461396
C62   C     C_3   0.043326 0.602670 0.581296 -0.464971
C63   C     C_3   0.435372 0.103327 0.484731 -0.451163
C64   C     C_3   0.539075 0.103074 0.577927 -0.472309
H37   H     H_    0.932604 0.594307 0.404613 0.207091
H38   H     H_    0.061603 0.638917 0.635794 0.205351
H39   H     H_    0.423182 0.096604 0.403567 0.198438
H40   H     H_    0.560111 0.138705 0.634455 0.223794
H41   H     H_    0.900376 0.638161 0.482101 0.207555
H42   H     H_    0.092372 0.594690 0.557292 0.211408
H43   H     H_    0.396558 0.138821 0.488180 0.231346
H44   H     H_    0.584301 0.095799 0.548329 0.206084
C65   C     C_R   0.299415 0.771893 0.905390 -0.272703
C66   C     C_R   0.846165 0.681660 0.092869 -0.255905
C67   C     C_R   0.674334 0.198337 0.905538 -0.282818
C68   C     C_R   0.346393 0.181502 0.092980 -0.253908
H45   H     H_    0.286014 0.757268 0.829039 0.167117
H46   H     H_    0.870514 0.660174 0.168708 0.160309
H47   H     H_    0.654845 0.179673 0.829201 0.154707
H48   H     H_    0.370704 0.160062 0.168850 0.162431
C69   C     C_R   0.607388 0.229215 0.907148 0.331402
C70   C     C_R   0.401742 0.223806 0.093683 0.363871
C71   C     C_R   0.256447 0.820725 0.905312 0.345878
C72   C     C_R   0.901617 0.723870 0.093520 0.362585
C73   C     C_R   0.637527 0.256940 0.005334 0.040336
C74   C     C_R   0.363327 0.255569 0.996717 0.004761
C75   C     C_R   0.266237 0.835866 0.003099 -0.007642
C76   C     C_R   0.863136 0.755663 0.996584 -0.008404
C77   C     C_R   0.718584 0.238469 0.105164 -0.127569
C78   C     C_R   0.286211 0.234464 0.896310 -0.113741
C79   C     C_R   0.338997 0.811860 0.103170 -0.161490
C80   C     C_R   0.785828 0.734682 0.896191 -0.182804
H49   H     H_    0.739113 0.254202 0.183938 0.149651
H50   H     H_    0.258221 0.254758 0.818540 0.141628
H51   H     H_    0.355128 0.825030 0.181499 0.132802
H52   H     H_    0.757734 0.755025 0.818439 0.131469
C81   C     C_R   0.383134 0.764647 0.103046 -0.128924
C82   C     C_R   0.734068 0.691296 0.895481 -0.148703
C83   C     C_R   0.784034 0.207293 0.103750 -0.182969
C84   C     C_R   0.234532 0.190986 0.895564 -0.157580
H53   H     H_    0.431015 0.744106 0.181069 0.119910
H54   H     H_    0.669988 0.679992 0.817177 0.116634
H55   H     H_    0.850401 0.198488 0.181773 0.122245
H56   H     H_    0.170570 0.179579 0.817232 0.121368
C85   C     C_R   0.356410 0.741383 0.003018 0.081822
C86   C     C_R   0.757979 0.669010 0.995285 0.087549
C87   C     C_R   0.765884 0.191800 0.002770 0.097845
C88   C     C_R   0.258331 0.168720 0.995351 0.083435
C89   C     C_R   0.411677 0.551555 0.477454 -0.177866
C90   C     C_R   0.412240 0.552225 0.386001 -0.178879
C91   C     C_R   0.901524 0.051514 0.471991 -0.170547
C92   C     C_R   0.907132 0.051405 0.383951 -0.172996
H57   H     H_    0.431057 0.589453 0.523772 0.135121
H58   H     H_    0.431185 0.590806 0.367324 0.134758
H59   H     H_    0.914606 0.090277 0.514131 0.135469
H60   H     H_    0.921871 0.090466 0.362087 0.132811
C93   C     C_R   0.403674 0.502894 0.332501 -0.033230
C94   C     C_R   0.399667 0.501884 0.515647 -0.036305
C95   C     C_R   0.907072 0.001341 0.337341 -0.033602
C96   C     C_R   0.893145 0.001747 0.513021 -0.034274
C97   C     C_R   0.369743 0.455191 0.353890 0.212474
C98   C     C_R   0.367390 0.454709 0.447117 0.214878
C99   C     C_R   0.873669 0.953274 0.358564 0.225212
C100  C     C_R   0.865866 0.953622 0.447764 0.230301
N33   N     N_R   0.510976 0.232294 0.810951 0.229498
O1    O     O_R   0.442251 0.240258 0.821583 -0.413882
O2    O     O_R   0.490227 0.220978 0.713879 -0.392749
N34   N     N_R   0.495607 0.233216 0.191043 0.224085
O3    O     O_R   0.564395 0.244716 0.182086 -0.437502
O4    O     O_R   0.515762 0.221991 0.287970 -0.381536
N35   N     N_R   0.204255 0.854048 0.807301 0.223718
O5    O     O_R   0.165387 0.831847 0.710650 -0.373885
O6    O     O_R   0.205678 0.907547 0.815135 -0.394834
N36   N     N_R   0.995655 0.733145 0.190727 0.222725
O7    O     O_R   0.064230 0.744898 0.181495 -0.416007
O8    O     O_R   0.016132 0.721688 0.287720 -0.372078
N37   N     N_R   0.332573 0.409838 0.277865 0.241352
O9    O     O_R   0.275219 0.419347 0.172496 -0.388582
O10   O     O_R   0.365013 0.360156 0.311620 -0.336946
N38   N     N_R   0.325863 0.409250 0.466922 0.242200
O11   O     O_R   0.362534 0.360166 0.486016 -0.326592
O12   O     O_R   0.259070 0.418351 0.480392 -0.390959
N39   N     N_R   0.840987 0.906929 0.285326 0.239754
O13   O     O_R   0.782304 0.914666 0.179505 -0.387570
O14   O     O_R   0.878776 0.858472 0.322018 -0.329682
N40   N     N_R   0.823194 0.908163 0.465996 0.237377
O15   O     O_R   0.858342 0.858755 0.483141 -0.332128
O16   O     O_R   0.755983 0.917360 0.478726 -0.405286

loop_
_geom_bond_atom_site_label_1
_geom_bond_atom_site_label_2
_geom_bond_distance
_ccdc_geom_bond_type
N13   Ni6   1.853970 S    
C28   C40   1.393491 A    
C65   C85   1.402839 A    
C32   N32   1.337157 A    
C99   N39   1.435809 S    
C50   C54   1.399099 A    
N40   O15   1.300470 A    
C31   H31   1.077441 S    
C91   C96   1.396064 A    
C70   N34   1.435665 S    
N33   O1    1.301703 A    
C6    H6    1.077525 S    
C90   C93   1.398310 A    
C3    N3    1.330727 A    
C89   C94   1.396437 A    
C96   C100  1.414698 A    
C98   N38   1.434999 S    
C64   H44   1.112584 S    
C10   C42   1.384537 A    
C77   H49   1.080125 S    
C43   C95   1.469272 S    
N34   O4    1.301483 A    
C9    C41   1.394708 A    
C51   C52   1.377409 A    
C66   C86   1.401096 A    
C2    H2    1.079803 S    
N37   O9    1.301330 A    
N22   Ni2   1.853973 S    
N10   Ni1   1.849946 S    
C80   C82   1.376356 A    
C63   H43   1.111883 S    
N9    Ni2   1.853929 S    
C18   H18   1.080360 S    
C66   C72   1.397688 A    
C13   H13   1.074717 S    
C1    H1    1.079800 S    
N6    N26   1.378764 A    
C61   H41   1.111794 S    
N38   O12   1.301262 A    
C14   H14   1.079607 S    
C59   H35   1.081524 S    
N7    Ni7   1.854380 S    
C17   H17   1.075622 S    
C6    C38   1.387364 A    
C54   C58   1.407649 A    
N3    N31   1.378762 A    
C72   C76   1.415309 A    
C3    C35   1.382614 A    
N18   Ni6   1.854646 S    
C17   N17   1.327091 A    
C22   N22   1.337488 A    
N11   N19   1.377876 A    
C69   C73   1.407786 A    
C4    H4    1.076625 S    
C65   H45   1.080965 S    
N5    Ni5   1.854380 S    
C20   N20   1.330365 A    
C74   C78   1.402129 A    
C63   H39   1.112360 S    
C10   N10   1.335380 A    
C32   H32   1.077023 S    
C92   C95   1.399721 A    
C78   C84   1.376948 A    
C31   N31   1.337679 A    
N19   Ni7   1.850664 S    
C66   H46   1.081900 S    
C33   C74   1.471886 S    
N32   Ni3   1.854261 S    
C67   H47   1.081031 S    
C68   C88   1.401035 A    
C14   C46   1.378506 A    
N3    Ni3   1.850753 S    
C4    N4    1.332228 A    
C82   H54   1.079538 S    
C91   H59   1.079960 S    
N2    Ni2   1.854810 S    
C8    H8    1.077656 S    
C52   C56   1.399193 A    
C7    N7    1.327319 A    
C21   C45   1.393296 A    
C99   C100  1.410889 A    
C8    N8    1.329390 A    
C71   N35   1.437622 S    
C27   C39   1.378804 A    
N33   O2    1.301514 A    
C82   C86   1.398529 A    
C44   C96   1.466087 S    
C58   H34   1.081219 S    
C29   N29   1.337981 A    
N16   N24   1.378118 A    
C56   C60   1.407944 A    
C25   N25   1.339638 A    
N30   Ni1   1.854261 S    
C8    C40   1.387679 A    
C62   H42   1.112354 S    
N2    N30   1.378763 A    
N16   Ni7   1.854396 S    
C95   C99   1.414137 A    
N37   O10   1.300422 A    
C9    H9    1.077150 S    
C68   C70   1.397851 A    
C28   N28   1.338780 A    
N8    Ni8   1.853881 S    
N14   N22   1.378118 A    
C22   H22   1.080632 S    
N13   N21   1.378116 A    
N35   O5    1.301643 A    
C18   N18   1.328871 A    
C68   H48   1.081889 S    
C12   H12   1.077098 S    
C1    N1    1.331298 A    
N38   O11   1.300629 A    
C42   C94   1.465780 S    
N1    N29   1.378762 A    
C62   H38   1.111979 S    
C1    C33   1.382936 A    
N39   O13   1.301266 A    
C29   H29   1.077467 S    
C79   H51   1.079224 S    
C19   H19   1.068282 S    
C11   N11   1.337129 A    
C15   H15   1.063342 S    
C52   C63   1.497982 S    
C11   H11   1.075825 S    
N25   Ni6   1.853626 S    
N14   Ni5   1.854396 S    
C38   C86   1.460355 S    
N27   Ni8   1.853626 S    
C90   H58   1.078569 S    
C75   C79   1.402460 A    
C23   H23   1.079518 S    
C49   C53   1.402191 A    
C21   H21   1.079602 S    
N39   O14   1.300650 A    
C84   H56   1.079574 S    
C51   C55   1.402978 A    
C22   C46   1.385831 A    
C11   C43   1.391324 A    
N31   Ni4   1.853761 S    
C60   H36   1.081106 S    
N21   Ni1   1.854399 S    
C84   C88   1.398721 A    
C30   N30   1.332675 A    
C61   H37   1.112527 S    
N23   Ni3   1.854399 S    
N11   Ni4   1.853929 S    
N40   O16   1.301376 A    
C65   C71   1.398772 A    
N15   N23   1.378116 A    
C49   C50   1.377917 A    
C32   C36   1.394516 A    
C67   C69   1.391818 A    
N7    N27   1.378761 A    
C46   C54   1.458961 S    
C57   H33   1.081649 S    
C15   N15   1.326537 A    
C76   C80   1.402024 A    
C45   C53   1.459916 S    
N15   Ni8   1.853970 S    
C40   C88   1.461286 S    
C7    H7    1.075934 S    
C78   H50   1.079610 S    
N36   O8    1.301515 A    
C4    C36   1.391723 A    
C30   H30   1.078542 S    
C39   C87   1.448489 S    
C69   N33   1.438234 S    
N17   Ni5   1.850664 S    
C13   N13   1.327559 A    
C59   C60   1.398630 A    
C2    N2    1.324308 A    
C24   H24   1.080476 S    
C18   C42   1.382986 A    
C34   C73   1.457714 S    
C97   N37   1.436957 S    
N10   N18   1.377878 A    
C57   C58   1.399894 A    
C26   N26   1.338494 A    
C80   H52   1.079608 S    
C21   N21   1.339043 A    
C16   N16   1.326015 A    
N6    Ni6   1.853881 S    
N9    N17   1.377876 A    
C41   C93   1.466393 S    
C83   C87   1.398623 A    
C13   C45   1.383013 A    
C67   C87   1.403666 A    
C17   C41   1.386525 A    
C28   H28   1.079790 S    
C50   C61   1.496725 S    
N5    N25   1.378761 A    
N12   N20   1.377878 A    
C49   C62   1.500599 S    
C83   H55   1.079976 S    
C63   C64   1.502347 S    
C89   H57   1.080227 S    
C5    H5    1.079972 S    
C77   C83   1.372611 A    
C72   N36   1.435981 S    
C61   C62   1.505021 S    
N24   Ni4   1.853973 S    
C3    H3    1.079805 S    
C79   C81   1.377741 A    
C26   C38   1.393103 A    
C92   H60   1.077959 S    
C100  N40   1.435845 S    
C6    N6    1.328855 A    
C64   H40   1.111399 S    
N8    N28   1.378764 A    
N1    Ni1   1.850753 S    
C91   C92   1.369567 A    
C5    N5    1.332090 A    
C14   N14   1.326913 A    
C47   C55   1.459171 S    
C15   C47   1.380269 A    
C16   C48   1.375719 A    
C27   N27   1.334115 A    
C89   C90   1.367586 A    
C94   C98   1.416049 A    
C27   H27   1.077604 S    
C2    C34   1.379230 A    
C12   C44   1.382363 A    
N28   Ni7   1.849570 S    
C93   C97   1.412967 A    
C51   C64   1.500057 S    
C25   C37   1.383310 A    
N20   Ni8   1.854646 S    
C36   C75   1.472583 S    
C71   C75   1.414466 A    
N29   Ni2   1.853761 S    
C24   N24   1.338464 A    
C23   C47   1.390747 A    
C97   C98   1.412284 A    
C30   C34   1.385458 A    
C37   C85   1.462845 S    
C55   C59   1.406751 A    
C48   C56   1.457158 S    
C24   C48   1.382572 A    
C29   C33   1.385857 A    
C70   C74   1.415371 A    
C81   C85   1.398567 A    
C35   C76   1.471143 S    
C31   C35   1.385681 A    
C53   C57   1.407767 A    
C16   H16   1.079536 S    
C19   N19   1.329300 A    
N34   O3    1.301407 A    
C12   N12   1.336075 A    
C19   C43   1.387663 A    
N36   O7    1.301733 A    
C26   H26   1.079593 S    
N35   O6    1.301798 A    
C25   H25   1.080448 S    
N4    N32   1.378763 A    
C20   C44   1.381904 A    
N26   Ni5   1.849570 S    
C7    C39   1.376536 A    
C81   H53   1.080111 S    
N12   Ni3   1.849946 S    
C5    C37   1.379661 A    
C23   N23   1.338583 A    
C73   C77   1.399395 A    
C20   H20   1.080038 S    
C9    N9    1.339212 A    
N4    Ni4   1.854810 S    
C10   H10   1.077738 S    
