data_mof_unit_2332.cif
_audit_creation_date              2012-10-26T18:52:10-0400
_audit_creation_method            fapswitch 2.2
_symmetry_space_group_name_H-M    P1
_symmetry_Int_Tables_number       1
_space_group_crystal_system       triclinic
_cell_length_a                    13.873789
_cell_length_b                    14.717479
_cell_length_c                    14.668455
_cell_angle_alpha                 115.484011
_cell_angle_beta                  106.058612
_cell_angle_gamma                 72.119738
_cell_volume                      2536.44617046

loop_
_atom_site_label
_atom_site_type_symbol
_atom_type_description
_atom_site_fract_x
_atom_site_fract_y
_atom_site_fract_z
_atom_type_partial_charge
C1    C     C_R   0.517088 0.118769 0.688545 0.539567
C2    C     C_R   0.597175 0.487429 0.903281 0.245215
C3    C     C_R   0.552808 0.378744 0.108339 -0.107020
C4    C     C_R   0.590232 0.592029 0.930847 -0.105102
C5    C     C_R   0.330102 0.295719 0.327374 -0.160539
C6    C     C_R   0.673981 0.701010 0.668183 -0.168456
C7    C     C_R   0.356779 0.212871 0.358232 0.042195
C8    C     C_R   0.644990 0.785714 0.639948 0.034328
C9    C     C_R   0.487279 0.285760 0.489703 0.040816
C10   C     C_R   0.513339 0.713802 0.509337 0.045949
C11   C     C_R   0.463949 0.372628 0.462071 0.001896
C12   C     C_R   0.485058 0.880901 0.311680 0.538112
C13   C     C_R   0.539344 0.624858 0.533896 0.005091
C14   C     C_R   0.383390 0.375695 0.378769 0.036172
C15   C     C_R   0.621356 0.620597 0.615808 0.029907
C16   C     C_R   0.687065 0.986946 0.504314 0.546164
C17   C     C_R   0.312977 0.013484 0.496356 0.550586
C18   C     C_R   0.517111 0.455626 0.513340 0.009786
C19   C     C_R   0.487316 0.541009 0.481092 0.021496
C20   C     C_R   0.407318 0.539119 0.396732 -0.112216
C21   C     C_R   0.599216 0.455889 0.595463 -0.130603
C22   C     C_R   0.356703 0.458108 0.346883 -0.126433
C23   C     C_R   0.553128 0.351030 0.932800 0.015711
C24   C     C_R   0.650299 0.536436 0.645223 -0.126401
C25   C     C_1   0.207541 0.022275 0.495593 -0.021654
C26   C     C_1   0.792658 0.979665 0.507368 -0.027450
C27   C     C_2   0.013246 0.037600 0.494991 -0.129619
C28   C     C_2   0.987255 0.966896 0.511874 -0.128313
C29   C     C_1   0.881557 0.973473 0.509767 -0.061067
C30   C     C_1   0.118790 0.029852 0.495236 -0.054125
C31   C     C_R   0.530113 0.184748 0.798003 -0.017285
C32   C     C_R   0.493515 0.811360 0.205207 -0.017617
C33   C     C_R   0.544853 0.210681 0.975461 -0.137259
C34   C     C_R   0.533560 0.631388 0.089231 0.017187
C35   C     C_R   0.546794 0.769773 0.045719 -0.133472
C36   C     C_R   0.536553 0.146215 0.872317 -0.132785
C37   C     C_R   0.517873 0.842770 0.138408 -0.132100
C38   C     C_R   0.536673 0.286981 0.828492 -0.105072
C39   C     C_R   0.493987 0.707612 0.176471 -0.108114
C40   C     C_3   0.657140 0.554277 0.290057 0.006503
C41   C     C_3   0.713998 0.471755 0.335084 -0.269024
C42   C     C_3   0.813670 0.497502 0.406151 -0.478214
C43   C     C_3   0.742354 0.373748 0.847237 -0.005502
C44   C     C_3   0.786287 0.292194 0.752109 -0.262943
C45   C     C_R   0.550552 0.313420 0.005874 -0.010051
C46   C     C_3   0.893220 0.232102 0.780639 -0.479292
C47   C     C_R   0.556104 0.664392 0.021232 -0.006025
C48   C     C_R   0.565366 0.453493 0.965674 -0.019507
C49   C     C_R   0.548706 0.523913 0.066169 -0.019082
C50   C     C_R   0.551854 0.482750 0.139626 0.254529
Cu1   Cu    Cu3+1 0.526370 0.916390 0.524860 0.923306
Cu2   Cu    Cu3+1 0.473630 0.083610 0.475140 0.930030
H1    H     H_    0.045032 0.903301 0.526448 0.135790
H2    H     H_    0.524743 0.316714 0.769706 0.185058
H3    H     H_    0.518085 0.922828 0.159306 0.127269
H4    H     H_    0.531857 0.067229 0.850543 0.129481
H5    H     H_    0.545529 0.180567 0.031364 0.104899
H6    H     H_    0.565494 0.795304 0.994805 0.105436
H7    H     H_    0.295677 0.460132 0.282518 0.107801
H8    H     H_    0.713011 0.532921 0.707917 0.115796
H9    H     H_    0.451436 0.724406 0.449248 0.128462
H10   H     H_    0.547532 0.276307 0.551417 0.122605
H11   H     H_    0.685370 0.848016 0.680389 0.127079
H12   H     H_    0.955458 0.101141 0.480305 0.130418
H13   H     H_    0.316286 0.150643 0.318055 0.126447
H14   H     H_    0.651212 0.631350 0.353352 0.177281
H15   H     H_    0.702458 0.554391 0.237945 0.120673
H16   H     H_    0.664288 0.465592 0.378988 0.189761
H17   H     H_    0.732033 0.395877 0.271940 0.148244
H18   H     H_    0.865150 0.503519 0.363865 0.145717
H19   H     H_    0.853536 0.435623 0.436302 0.147971
H20   H     H_    0.797091 0.571525 0.471906 0.158896
H21   H     H_    0.746772 0.335369 0.899713 0.141269
H22   H     H_    0.789932 0.433119 0.886574 0.129386
H23   H     H_    0.268415 0.297046 0.263399 0.089151
H24   H     H_    0.734442 0.237413 0.707422 0.174715
H25   H     H_    0.791311 0.330249 0.703092 0.152311
H26   H     H_    0.946583 0.285233 0.825116 0.145523
H27   H     H_    0.923252 0.174897 0.709804 0.161092
H28   H     H_    0.889954 0.190287 0.826888 0.147788
H29   H     H_    0.737014 0.698501 0.730795 0.088079
H30   H     H_    0.382073 0.599079 0.366510 0.115847
H31   H     H_    0.626413 0.394215 0.623029 0.137252
H32   H     H_    0.553094 0.349628 0.164955 0.126054
H33   H     H_    0.612407 0.616468 0.881037 0.124275
H34   H     H_    0.462726 0.688726 0.223985 0.178165
N1    N     N_R   0.433980 0.209250 0.437830 -0.231768
N2    N     N_R   0.566020 0.790750 0.562170 -0.238109
O1    O     O_R   0.534760 0.019630 0.662610 -0.502035
O2    O     O_3   0.639750 0.419656 0.816898 -0.606901
O3    O     O_R   0.465240 0.980370 0.337390 -0.502598
O4    O     O_R   0.490220 0.160840 0.620610 -0.506264
O5    O     O_R   0.509780 0.839160 0.379390 -0.508355
O6    O     O_R   0.663260 0.919400 0.523940 -0.498158
O7    O     O_R   0.336740 0.080600 0.476060 -0.492726
O8    O     O_R   0.618720 0.060610 0.481950 -0.500591
O9    O     O_R   0.381280 0.939390 0.518050 -0.496233
O10   O     O_3   0.555785 0.541295 0.243265 -0.604458

loop_
_geom_bond_atom_site_label_1
_geom_bond_atom_site_label_2
_ccdc_geom_bond_type
C43   H21   S    
C11   C18   A    
Cu1   O9    S    
C23   C45   A    
C20   H30   S    
C18   C21   A    
C33   C45   A    
C41   C42   S    
C12   O3    A    
C19   C20   A    
C1    C31   S    
C35   C47   A    
C10   N2    A    
C35   H6    S    
C41   H17   S    
C28   C29   S    
C35   C37   A    
C40   O10   S    
C46   H27   S    
C11   C14   A    
C42   H18   S    
C33   C36   A    
Cu2   O7    S    
C2    O2    S    
C18   C19   A    
C32   C39   A    
C44   H24   S    
C6    C15   A    
C7    N1    A    
C21   H31   S    
C40   H15   S    
C33   H5    S    
C17   O7    A    
C43   H22   S    
C6    H29   S    
C40   H14   S    
C12   C32   S    
C27   C30   S    
C3    C50   A    
C44   C46   S    
C41   H16   S    
C16   C26   S    
C16   O8    A    
C43   O2    S    
C50   O10   S    
C13   C19   A    
C9    H10   S    
C22   H7    S    
C46   H26   S    
C6    C8    A    
C4    H33   S    
C8    H11   S    
C2    C48   A    
C3    C45   A    
C34   C39   A    
C8    N2    A    
C5    H23   S    
C2    C4    A    
C43   C44   S    
C36   H4    S    
C7    H13   S    
C38   H2    S    
C24   H8    S    
C42   H20   S    
C15   C24   A    
C32   C37   A    
C9    C11   A    
C5    C14   A    
Cu1   O5    S    
C48   C49   A    
C20   C22   A    
C1    O4    A    
C13   C15   A    
C12   O5    A    
Cu2   O4    S    
C10   H9    S    
C3    H32   S    
C5    C7    A    
C25   C30   T    
C44   H25   S    
C34   C49   A    
C1    O1    A    
C23   C48   A    
Cu2   N1    S    
C10   C13   A    
Cu1   N2    S    
C28   H1    S    
C23   C38   A    
C16   O6    A    
C31   C38   A    
C17   C25   S    
C14   C22   A    
Cu1   Cu2   S    
Cu1   O1    S    
C46   H28   S    
C42   H19   S    
Cu2   O8    S    
C27   H12   S    
Cu1   O6    S    
C37   H3    S    
C26   C29   T    
C49   C50   A    
C21   C24   A    
C27   C28   D    
C31   C36   A    
Cu2   O3    S    
C40   C41   S    
C34   C47   A    
C39   H34   S    
C17   O9    A    
C9    N1    A    
C4    C47   A    
