data_mof_unit_217.cif
_audit_creation_date              2012-12-11T14:19:20-0500
_audit_creation_method            fapswitch 2.2
_symmetry_space_group_name_H-M    P1
_symmetry_Int_Tables_number       1
_space_group_crystal_system       triclinic
_cell_length_a                    19.415735
_cell_length_b                    7.246364
_cell_length_c                    17.71909
_cell_angle_alpha                 90.0
_cell_angle_beta                  107.665105
_cell_angle_gamma                 90.000048
_cell_volume                      2375.40860441

loop_
_atom_site_label
_atom_site_type_symbol
_atom_type_description
_atom_site_fract_x
_atom_site_fract_y
_atom_site_fract_z
_atom_type_partial_charge
O1    O     O_R   0.414820 0.494320 0.416790 -0.546776
O2    O     O_R   0.585180 0.994320 0.583210 -0.546776
O3    O     O_R   0.560270 0.819500 0.430140 -0.548293
O4    O     O_R   0.439730 0.319500 0.569860 -0.548291
C1    C     C_R   0.581402 0.655541 0.414959 0.710485
C2    C     C_R   0.418598 0.155541 0.585041 0.710494
O5    O     O_R   0.413840 0.823740 0.407440 -0.499193
O6    O     O_R   0.586160 0.323740 0.592560 -0.499190
O7    O     O_R   0.437710 0.998590 0.560350 -0.540319
O8    O     O_R   0.562290 0.498590 0.439650 -0.540322
C3    C     C_R   0.387330 0.655616 0.385267 0.755993
C4    C     C_R   0.612670 0.155615 0.614733 0.755989
O9    O     O_3   0.508000 0.662290 0.550200 -0.378714
O10   O     O_3   0.492000 0.162290 0.449800 -0.378719
V1    V     V_3+5 0.498520 0.935380 0.490690 1.463354
V2    V     V_3+5 0.501480 0.435380 0.509310 1.463357
C5    C     C_2   0.786535 0.272254 0.788437 -0.232150
C6    C     C_2   0.213460 0.772254 0.211571 -0.232154
C7    C     C_2   0.821708 0.113590 0.815582 -0.340088
C8    C     C_2   0.178290 0.613590 0.184420 -0.340089
H1    H     H_    0.807883 0.399620 0.818916 0.145827
H2    H     H_    0.192109 0.899624 0.181097 0.145829
H3    H     H_    0.803321 0.983795 0.785965 0.131097
H4    H     H_    0.196680 0.483792 0.214034 0.131100
C9    C     C_2   0.720943 0.290266 0.716997 0.385338
C10   C     C_2   0.279049 0.790261 0.283014 0.385338
C11   C     C_2   0.679198 0.143388 0.683913 -0.311497
C12   C     C_2   0.320802 0.643389 0.316087 -0.311498
H5    H     H_    0.693120 0.006548 0.708400 0.094791
H6    H     H_    0.306888 0.506555 0.291588 0.094791
C13   C     C_R   0.323977 0.300152 0.635778 -0.212853
C14   C     C_R   0.676022 0.800153 0.364220 -0.212856
C15   C     C_R   0.368818 0.148335 0.634106 -0.075296
C16   C     C_R   0.631181 0.648336 0.365893 -0.075296
C17   C     C_R   0.365499 0.990407 0.679125 -0.219285
C18   C     C_R   0.634502 0.490407 0.320877 -0.219288
C19   C     C_R   0.318789 0.984444 0.726081 0.090945
C20   C     C_R   0.681211 0.484443 0.273920 0.090945
C21   C     C_R   0.273588 0.136693 0.726783 0.056054
C22   C     C_R   0.726412 0.636694 0.273217 0.056056
C23   C     C_R   0.275952 0.294621 0.681092 0.088239
C24   C     C_R   0.724047 0.794622 0.318907 0.088239
C25   C     C_R   0.316584 0.829113 0.772586 -0.189835
C26   C     C_R   0.683418 0.329111 0.227416 -0.189837
C27   C     C_R   0.269475 0.823605 0.818682 -0.187534
C28   C     C_R   0.730526 0.323603 0.181320 -0.187535
C29   C     C_R   0.223607 0.973157 0.818988 0.088289
C30   C     C_R   0.776393 0.473156 0.181013 0.088289
C31   C     C_R   0.225919 0.130997 0.773234 0.056372
C32   C     C_R   0.774081 0.630997 0.226766 0.056373
C33   C     C_R   0.180679 0.283179 0.773887 0.089136
C34   C     C_R   0.819320 0.783180 0.226112 0.089136
C35   C     C_R   0.182893 0.438527 0.727390 -0.189456
C36   C     C_R   0.817106 0.938530 0.272608 -0.189458
C37   C     C_R   0.230068 0.444143 0.681375 -0.186419
C38   C     C_R   0.769930 0.944146 0.318622 -0.186421
C39   C     C_R   0.175664 0.967737 0.864402 -0.215756
C40   C     C_R   0.824337 0.467736 0.135600 -0.215757
C41   C     C_R   0.130714 0.119432 0.865990 -0.075545
C42   C     C_R   0.869286 0.619432 0.134010 -0.075545
C43   C     C_R   0.133935 0.277180 0.820799 -0.217556
C44   C     C_R   0.866064 0.777181 0.179199 -0.217557
H7    H     H_    0.325650 0.421928 0.600816 0.125343
H8    H     H_    0.674347 0.921930 0.399181 0.125343
H9    H     H_    0.400023 0.873158 0.678532 0.128138
H10   H     H_    0.599979 0.373157 0.321471 0.128137
H11   H     H_    0.351133 0.711373 0.773093 0.134869
H12   H     H_    0.648869 0.211370 0.226910 0.134869
H13   H     H_    0.268707 0.701785 0.853886 0.135617
H14   H     H_    0.731295 0.201782 0.146117 0.135618
H15   H     H_    0.174154 0.846076 0.899487 0.127694
H16   H     H_    0.825848 0.346074 0.100516 0.127694
H17   H     H_    0.099345 0.394372 0.821247 0.131319
H18   H     H_    0.900652 0.894374 0.178750 0.131320
H19   H     H_    0.148321 0.556236 0.726856 0.135251
H20   H     H_    0.851676 0.056240 0.273141 0.135252
H21   H     H_    0.230865 0.566001 0.646204 0.136504
H22   H     H_    0.769132 0.066004 0.353793 0.136504
O11   O     O_R   0.937810 0.773680 0.060480 -0.537701
O12   O     O_R   0.062190 0.273680 0.939520 -0.537701
O13   O     O_R   0.086190 0.439740 0.092580 -0.542741
O14   O     O_R   0.913810 0.939740 0.907420 -0.542741
C45   C     C_R   0.112285 0.608173 0.114963 0.756995
C46   C     C_R   0.887714 0.108173 0.885038 0.756996
O15   O     O_R   0.939760 0.444210 0.069890 -0.543339
O16   O     O_R   0.060240 0.944210 0.930110 -0.543338
O17   O     O_R   0.914790 0.269640 0.916760 -0.535977
O18   O     O_R   0.085210 0.769640 0.083240 -0.535977
C47   C     C_R   0.919043 0.612377 0.084846 0.698527
C48   C     C_R   0.080957 0.112377 0.915154 0.698528
O19   O     O_3   0.992050 0.601530 0.949880 -0.380168
O20   O     O_3   0.007950 0.101530 0.050120 -0.380169
V3    V     V_3+5 0.001480 0.328340 0.009300 1.397304
V4    V     V_3+5 0.998520 0.828340 0.990700 1.397305
O21   O     O_3   0.701707 0.463723 0.684751 -0.630526
H23   H     H_    0.738000 0.554854 0.714249 0.273538
O22   O     O_3   0.298273 0.963709 0.315277 -0.630528
H24   H     H_    0.261973 0.054836 0.285788 0.273540

loop_
_geom_bond_atom_site_label_1
_geom_bond_atom_site_label_2
_ccdc_geom_bond_type
O4    V2    S    
O14   V4    S    
C11   H5    S    
O21   H23   S    
O1    C3    A    
C46   O17   A    
O2    C4    A    
C2    O7    A    
O22   H24   S    
C21   C23   A    
C42   C47   S    
O5    C3    A    
C17   C19   A    
C37   H21   S    
C18   H10   S    
C39   C41   A    
C17   H9    S    
C40   C42   A    
C38   H22   S    
C42   C44   A    
C27   C29   A    
C23   C37   A    
O16   V4    S    
C24   C38   A    
O15   V3    S    
C8    H4    S    
C34   C36   A    
C31   C33   A    
C6    C10   S    
C32   C34   A    
C13   C15   A    
C16   C18   A    
C22   C24   A    
C45   O18   A    
O6    V2    S    
C35   H19   S    
O13   C45   A    
C26   C28   A    
C28   C30   A    
C35   C37   A    
C36   C38   A    
C41   C43   A    
C28   H14   S    
C4    C11   S    
C27   H13   S    
C13   H7    S    
C14   H8    S    
O11   V4    S    
C29   C31   A    
O16   C48   A    
O15   C47   A    
C5    C7    D    
O5    V1    S    
C43   H17   S    
C5    H1    S    
C33   C35   A    
C41   C48   S    
C14   C16   A    
C19   C25   A    
C7    H3    S    
C20   C26   A    
C29   C39   A    
O13   V3    S    
O6    C4    A    
C1    C16   S    
O1    V2    S    
C39   H15   S    
O2    V1    S    
C25   C27   A    
C36   H20   S    
O4    C2    A    
C21   C31   A    
C9    O21   S    
O14   C46   A    
C26   H12   S    
C7    C46   S    
O3    V1    S    
C13   C23   A    
C6    H2    S    
O3    C1    A    
O9    V2    S    
C30   C40   A    
C9    C11   D    
C10   C12   D    
C2    C15   S    
C5    C9    S    
C12   H6    S    
O7    V1    S    
C1    O8    A    
C19   C21   A    
O8    V2    S    
C18   C20   A    
C20   C22   A    
C33   C43   A    
C40   H16   S    
C3    C12   S    
C22   C32   A    
O17   V3    S    
C30   C32   A    
O20   V3    S    
C15   C17   A    
C6    C8    D    
O12   C48   A    
O11   C47   A    
C10   O22   S    
C25   H11   S    
C8    C45   S    
O18   V4    S    
C14   C24   A    
O10   V1    S    
C44   H18   S    
C34   C44   A    
O12   V3    S    
O19   V4    S    
