data_mof_unit_252.cif
_audit_creation_date              2012-12-10T17:05:24-0500
_audit_creation_method            fapswitch 2.2
_symmetry_space_group_name_H-M    P1
_symmetry_Int_Tables_number       1
_space_group_crystal_system       triclinic
_cell_length_a                    10.182488
_cell_length_b                    10.701807
_cell_length_c                    15.380612
_cell_angle_alpha                 89.898718
_cell_angle_beta                  69.795288
_cell_angle_gamma                 90.716451
_cell_volume                      1572.74913271

loop_
_atom_site_label
_atom_site_type_symbol
_atom_type_description
_atom_site_fract_x
_atom_site_fract_y
_atom_site_fract_z
_atom_type_partial_charge
C1    C     C_R   0.497693 0.736529 0.505093 0.917942
C2    C     C_R   0.678992 0.667583 0.055100 0.133683
C3    C     C_R   0.556503 0.597603 0.099528 0.087780
C4    C     C_R   0.412858 0.501372 0.675212 0.875461
C5    C     C_R   0.765485 0.701071 0.104642 -0.233033
C6    C     C_R   0.740255 0.654978 0.194394 0.104135
C7    C     C_R   0.544532 0.533573 0.180624 -0.286668
C8    C     C_2   0.588458 0.068767 0.530505 -0.156885
C9    C     C_2   0.500275 0.130393 0.498909 -0.335265
C10   C     C_2   0.594780 0.934123 0.526889 -0.163966
C11   C     C_2   0.487049 0.867216 0.521451 -0.340874
C12   C     C_R   0.406246 0.567187 0.915615 0.047646
C13   C     C_2   0.046186 0.429924 0.551220 -0.146085
C14   C     C_2   0.911062 0.412064 0.532283 -0.084628
C15   C     C_R   0.499523 0.262983 0.500107 0.935703
C16   C     C_R   0.586807 0.514367 0.325907 0.873367
C17   C     C_R   0.360070 0.519077 0.775177 -0.082473
C18   C     C_R   0.633017 0.562066 0.230359 -0.090091
C19   C     C_R   0.170671 0.579569 0.913381 0.216051
C20   C     C_R   0.218073 0.542299 0.820979 -0.265430
C21   C     C_R   0.454289 0.534749 0.822074 -0.273155
C22   C     C_3   0.890576 0.629858 0.507331 -0.166704
C23   C     C_R   0.261714 0.575153 0.964013 0.116280
C24   C     C_3   0.833014 0.675096 0.608414 -0.315551
C25   C     C_3   0.902092 0.798263 0.620238 -0.961569
C26   C     C_3   0.823148 0.717727 0.247925 -0.444910
C27   C     C_3   0.770805 0.850968 0.275412 -0.326288
C28   C     C_3   0.867232 0.923529 0.314792 -0.881546
C29   C     C_3   0.086873 0.786586 0.924052 -0.822743
C30   C     C_3   0.244295 0.629055 0.211785 -0.412143
C31   C     C_3   0.284711 0.763764 0.227673 -0.314108
C32   C     C_3   0.223066 0.799444 0.329536 -0.913581
C33   C     C_R   0.498843 0.599285 0.961156 0.058031
C34   C     C_R   0.452529 0.590781 0.058682 0.037924
C35   C     C_R   0.305516 0.594278 0.109702 0.069374
C36   C     C_R   0.212555 0.590287 0.060209 -0.267738
C37   C     C_R   0.628944 0.657454 0.913391 -0.220193
C38   C     C_R   0.710640 0.703182 0.962557 -0.253966
H1    H     H_    0.101195 0.598662 0.096539 0.165657
H2    H     H_    0.464605 0.461586 0.205852 0.156218
H3    H     H_    0.800772 0.760848 0.926725 0.153387
H4    H     H_    0.146603 0.545954 0.782692 0.164087
H5    H     H_    0.565081 0.521826 0.785704 0.160498
H6    H     H_    0.660823 0.679930 0.840299 0.149434
H7    H     H_    0.015566 0.784664 0.606148 0.278856
H8    H     H_    0.889225 0.870565 0.572109 0.255669
H9    H     H_    0.853230 0.831573 0.692483 0.256446
H10   H     H_    0.718325 0.688243 0.630097 0.241537
H11   H     H_    0.852240 0.604906 0.655768 0.213496
H12   H     H_    0.848493 0.768652 0.076056 0.169735
H13   H     H_    0.002037 0.652218 0.476334 0.145883
H14   H     H_    0.849641 0.688262 0.463847 0.176302
H15   H     H_    0.874281 0.875353 0.376777 0.246762
H16   H     H_    0.973684 0.932831 0.261941 0.262478
H17   H     H_    0.825198 0.018478 0.335103 0.262288
H18   H     H_    0.765799 0.903447 0.214244 0.219902
H19   H     H_    0.663610 0.846501 0.327621 0.226549
H20   H     H_    0.821437 0.666460 0.310318 0.230227
H21   H     H_    0.934878 0.722698 0.202775 0.197633
H22   H     H_    0.973981 0.625069 0.919686 0.230654
H23   H     H_    0.662081 0.117743 0.555853 0.163864
H24   H     H_    0.992702 0.845389 0.945287 0.219770
H25   H     H_    0.141036 0.801180 0.848364 0.248497
H26   H     H_    0.155965 0.819806 0.961810 0.257121
H27   H     H_    0.107228 0.795425 0.353073 0.252009
H28   H     H_    0.260370 0.735175 0.372491 0.285685
H29   H     H_    0.256295 0.896210 0.338868 0.251702
H30   H     H_    0.400070 0.775283 0.205283 0.232363
H31   H     H_    0.245539 0.829214 0.186250 0.218745
H32   H     H_    0.128132 0.622257 0.236410 0.185332
H33   H     H_    0.274084 0.562784 0.256537 0.203981
H34   H     H_    0.429689 0.085193 0.469415 0.144452
H35   H     H_    0.690755 0.890530 0.525863 0.174104
H36   H     H_    0.386008 0.907723 0.530861 0.157150
H37   H     H_    0.059820 0.379035 0.608478 0.153906
H38   H     H_    0.146620 0.514385 0.433342 0.173179
H39   H     H_    0.856131 0.323348 0.552332 0.134363
N1    N     N_2   0.148330 0.498670 0.499030 -0.199590
N2    N     N_2   0.852680 0.498640 0.499000 -0.099722
N3    N     N_2   0.050588 0.655206 0.944526 -0.319113
O1    O     O_R   0.386950 0.680940 0.500010 -0.619600
O2    O     O_R   0.613110 0.680900 0.499990 -0.638795
O3    O     O_R   0.322330 0.500030 0.632270 -0.610545
O4    O     O_R   0.548480 0.499990 0.632240 -0.626846
O5    O     O_R   0.386890 0.319100 0.500010 -0.607402
O6    O     O_R   0.613050 0.319060 0.499990 -0.609398
O7    O     O_R   0.451520 0.500010 0.367760 -0.618669
O8    O     O_R   0.677670 0.499970 0.367730 -0.620364
Zn1   Zn    Zn3+2 0.349000 0.500030 0.500020 0.923608
Zn2   Zn    Zn3+2 0.651000 0.499970 0.499980 0.912738

loop_
_geom_bond_atom_site_label_1
_geom_bond_atom_site_label_2
_ccdc_geom_bond_type
C29   H25   S    
C35   C36   A    
C1    C11   S    
C9    H34   S    
C30   H33   S    
C32   H29   S    
C4    O3    A    
C12   C23   A    
C26   C27   S    
C30   C35   S    
C5    C6    A    
C32   H28   S    
H38   N1    S    
C22   N2    S    
C3    C7    A    
C30   C31   S    
C10   H35   S    
C1    O1    A    
C17   C20   A    
C34   C35   A    
C14   H39   S    
N2    Zn2   S    
C21   H5    S    
C19   C20   A    
C8    C9    D    
C16   O7    A    
C7    H2    S    
C26   H21   S    
C25   H9    S    
C8    H23   S    
C15   O5    A    
O1    Zn1   S    
C29   H26   S    
C13   C14   S    
O4    Zn2   S    
C6    C18   A    
C30   H32   S    
C28   H17   S    
N1    Zn1   S    
C31   H30   S    
O3    Zn1   S    
C24   H10   S    
C13   H37   S    
C24   C25   S    
C38   H3    S    
O6    Zn2   S    
C28   H16   S    
C27   H18   S    
C3    C34   A    
C1    O2    A    
C12   C21   A    
C17   C21   A    
C19   C23   A    
C37   C38   A    
C2    C38   A    
C31   C32   S    
C4    O4    A    
C7    C18   A    
C33   C34   A    
C14   N2    D    
C26   H20   S    
C15   O6    A    
C4    C17   S    
C16   C18   S    
O8    Zn2   S    
O7    Zn1   S    
C27   H19   S    
C22   C24   S    
C5    H12   S    
C2    C5    A    
C25   H7    S    
C22   H14   S    
C24   H11   S    
C29   H24   S    
H22   N3    S    
O5    Zn1   S    
C36   H1    S    
C11   H36   S    
C20   H4    S    
C28   H15   S    
O2    Zn2   S    
C37   H6    S    
C2    C3    A    
C9    C15   S    
C6    C26   S    
C29   N3    S    
C19   N3    S    
C33   C37   A    
C10   C11   D    
C13   N1    D    
C31   H31   S    
C8    C10   S    
C23   C36   A    
C27   C28   S    
C16   O8    A    
C32   H27   S    
C12   C33   A    
C25   H8    S    
C22   H13   S    
