data_mof_unit_1366.cif
_audit_creation_date              2013-03-05T16:08:30-0500
_audit_creation_method            fapswitch 2.2
_symmetry_space_group_name_H-M    P1
_symmetry_Int_Tables_number       1
_space_group_crystal_system       triclinic
_cell_length_a                    14.804217
_cell_length_b                    6.927703
_cell_length_c                    13.502804
_cell_angle_alpha                 90.001286
_cell_angle_beta                  99.783579
_cell_angle_gamma                 89.998954
_cell_volume                      1364.69684241

loop_
_atom_site_label
_atom_site_type_symbol
_atom_site_description
_atom_site_fract_x
_atom_site_fract_y
_atom_site_fract_z
_atom_type_partial_charge
O1    O     O_R   0.586930 0.505770 0.416350 -0.597814
O2    O     O_R   0.413070 0.005770 0.583650 -0.597814
O3    O     O_R   0.397900 0.173100 0.389630 -0.584175
O4    O     O_R   0.602100 0.673100 0.610370 -0.584194
C1    C     C_R   0.364285 0.345429 0.362806 0.970813
C2    C     C_R   0.635715 0.845429 0.637192 0.970774
O5    O     O_R   0.585280 0.175870 0.404330 -0.594751
O6    O     O_R   0.414720 0.675870 0.595670 -0.594767
O7    O     O_R   0.601790 0.008380 0.598460 -0.590799
O8    O     O_R   0.398210 0.508380 0.401540 -0.590795
C3    C     C_R   0.614662 0.344719 0.382787 0.952606
C4    C     C_R   0.385337 0.844724 0.617212 0.952628
O9    O     O_3   0.505200 0.340120 0.563670 -0.269443
O10   O     O_3   0.494800 0.840120 0.436330 -0.269420
V1    V     V_3+5 0.499040 0.064180 0.488190 1.178891
V2    V     V_3+5 0.500960 0.564180 0.511810 1.178859
C5    C     C_R   0.321291 0.998567 0.759596 0.139368
C6    C     C_R   0.678709 0.498578 0.240417 0.139210
C7    C     C_R   0.318911 0.852112 0.687691 -0.198209
C8    C     C_R   0.681082 0.352096 0.312302 -0.198047
C9    C     C_R   0.253034 0.705151 0.688307 -0.140408
C10   C     C_R   0.746956 0.205130 0.311672 -0.140184
H1    H     H_    0.249702 0.586060 0.635988 0.107635
H2    H     H_    0.750286 0.086026 0.363979 0.107596
C11   C     C_R   0.186593 0.717509 0.751694 -0.089646
C12   C     C_R   0.813398 0.217503 0.248287 -0.089807
H3    H     H_    0.134337 0.607036 0.746744 0.107477
H4    H     H_    0.865653 0.107026 0.253228 0.107486
C13   C     C_R   0.184609 0.876446 0.816653 -0.252597
C14   C     C_R   0.815390 0.376463 0.183349 -0.252671
C15   C     C_R   0.256504 0.009508 0.822792 0.155358
C16   C     C_R   0.743502 0.509550 0.177229 0.155203
C17   C     C_3   0.256509 0.225246 0.820813 0.177392
C18   C     C_3   0.743518 0.725291 0.179271 0.177613
C19   C     C_3   0.327618 0.212631 0.751183 -0.573887
C20   C     C_3   0.672394 0.712627 0.248882 -0.573945
H5    H     H_    0.189792 0.288557 0.785754 0.048434
H6    H     H_    0.810226 0.788589 0.214366 0.048340
H7    H     H_    0.396678 0.267407 0.784657 0.242418
H8    H     H_    0.603338 0.767433 0.215415 0.242512
C21   C     C_1   0.783440 0.877128 0.782908 -0.191627
C22   C     C_1   0.216564 0.377128 0.217087 -0.191706
C23   C     C_1   0.716158 0.860139 0.716865 -0.216160
C24   C     C_1   0.283844 0.360139 0.283131 -0.216057
O11   O     O_R   0.101720 0.231700 0.098560 -0.581867
O12   O     O_R   0.898280 0.731700 0.901440 -0.581702
O13   O     O_R   0.914700 0.558980 0.095690 -0.604555
O14   O     O_R   0.085300 0.058980 0.904310 -0.604782
C25   C     C_R   0.885461 0.389713 0.117350 0.965995
C26   C     C_R   0.114538 0.889707 0.882650 0.965812
O15   O     O_R   0.102080 0.561590 0.110390 -0.595672
O16   O     O_R   0.897920 0.061590 0.889610 -0.595743
O17   O     O_R   0.086950 0.728940 0.916330 -0.581884
O18   O     O_R   0.913050 0.228940 0.083670 -0.581951
C27   C     C_R   0.136100 0.391915 0.137454 1.016463
C28   C     C_R   0.863903 0.891915 0.862542 1.016825
O19   O     O_3   0.994770 0.394510 0.936380 -0.281789
O20   O     O_3   0.005230 0.894510 0.063620 -0.281754
V3    V     V_3+5 0.000970 0.670520 0.011800 1.205801
V4    V     V_3+5 0.999030 0.170520 0.988200 1.205645
N1    N     N_R   0.293907 0.310565 0.918386 0.263007
O21   O     O_R   0.316116 0.492343 0.923728 -0.368926
O22   O     O_R   0.298756 0.211226 0.000968 -0.389849
N2    N     N_R   0.706138 0.810678 0.081715 0.263024
O23   O     O_R   0.683457 0.992217 0.076483 -0.368791
O24   O     O_R   0.702017 0.711846 0.999042 -0.390241
H9    H     H_    0.301570 0.264039 0.673673 0.172619
H10   H     H_    0.698434 0.763967 0.326408 0.172627

loop_
_geom_bond_atom_site_label_1
_geom_bond_atom_site_label_2
_geom_bond_distance
_ccdc_geom_bond_type
O4    V2    1.976154 S    
O5    C3    1.298127 A    
C20   H10   1.110757 S    
C21   C28   1.466411 S    
C12   C14   1.411124 A    
O9    V2    1.699646 S    
O12   V3    1.985316 S    
C11   H3    1.082181 S    
O16   V4    1.976116 S    
C19   H7    1.111979 S    
O1    C3    1.296901 A    
C19   H9    1.110753 S    
O6    C4    1.298136 A    
O2    C4    1.296897 A    
N2    O23   1.300518 A    
C6    C20   1.491418 S    
C2    O7    1.308001 A    
O5    V1    2.000576 S    
O7    V1    1.977505 S    
O3    V1    1.976157 S    
C1    O8    1.307998 A    
O11   V4    1.985313 S    
O1    V2    2.000626 S    
O8    V2    1.977504 S    
C14   C16   1.399847 A    
O2    V1    2.000647 S    
C21   C23   1.224477 T    
O11   C27   1.294579 A    
C22   C24   1.224477 T    
C17   N1    1.464160 S    
C2    C23   1.466480 S    
C4    C7    1.481007 S    
O14   C26   1.300402 A    
C17   C19   1.528464 S    
C14   C25   1.480838 S    
C8    C10   1.410844 A    
C18   N2    1.464116 S    
O14   V4    2.000737 S    
O20   V4    2.161024 S    
C6    C8    1.400579 A    
C13   C26   1.480820 S    
O9    V1    2.160956 S    
C9    H1    1.081801 S    
O17   V3    2.000873 S    
N1    O21   1.300420 A    
C5    C15   1.389945 A    
O10   V2    2.160993 S    
C3    C8    1.481006 S    
O19   V3    2.160986 S    
C26   O17   1.295078 A    
C6    C16   1.389958 A    
C15   C17   1.494815 S    
O13   V3    2.000774 S    
C25   O18   1.295087 A    
O3    C1    1.320163 A    
C20   H8    1.111979 S    
O15   V3    1.976117 S    
C18   C20   1.528473 S    
C11   C13   1.411125 A    
O13   C25   1.300400 A    
O4    C2    1.320165 A    
C10   C12   1.411906 A    
C10   H2    1.081799 S    
O12   C28   1.294584 A    
N2    O24   1.302113 A    
N1    O22   1.301931 A    
C9    C11   1.411913 A    
O10   V1    1.699618 S    
O19   V4    1.698974 S    
O18   V4    2.000851 S    
O6    V2    2.000539 S    
C5    C19   1.491480 S    
O15   C27   1.306274 A    
C5    C7    1.400598 A    
O20   V3    1.698948 S    
C13   C15   1.399818 A    
C12   H4    1.082178 S    
C1    C24   1.466480 S    
C17   H5    1.110454 S    
O16   C28   1.306272 A    
C16   C18   1.494845 S    
C7    C9    1.410858 A    
C22   C27   1.466409 S    
C18   H6    1.110440 S    
