data_mof_unit_2113.cif
_audit_creation_date              2012-12-11T18:34:56-0500
_audit_creation_method            fapswitch 2.2
_symmetry_space_group_name_H-M    P1
_symmetry_Int_Tables_number       1
_space_group_crystal_system       triclinic
_cell_length_a                    8.230162
_cell_length_b                    14.281202
_cell_length_c                    22.8209
_cell_angle_alpha                 93.131304
_cell_angle_beta                  89.427867
_cell_angle_gamma                 91.47152
_cell_volume                      2677.30416662

loop_
_atom_site_label
_atom_site_type_symbol
_atom_type_description
_atom_site_fract_x
_atom_site_fract_y
_atom_site_fract_z
_atom_type_partial_charge
Ba1   Ba    Ba6+2 0.846250 0.544220 0.470860 1.663493
Ba2   Ba    Ba6+2 0.343570 0.455860 0.529140 1.667496
Br1   Br    Br    0.173428 0.748858 0.744177 -0.636750
C1    C     C_3   0.605531 0.887428 0.324946 0.010269
C2    C     C_R   0.077000 0.574953 0.937400 -0.037078
C3    C     C_R   0.029628 0.569130 0.877648 0.612562
C4    C     C_3   0.075852 0.741911 0.306042 0.335863
C5    C     C_R   0.000641 0.401749 0.879715 0.583808
C6    C     C_R   0.041931 0.405581 0.939885 -0.018479
C7    C     C_R   0.081109 0.492675 0.968776 -0.053560
C8    C     C_R   0.119373 0.661303 0.966718 -0.065980
C9    C     C_R   0.165247 0.665777 0.025736 -0.075274
C10   C     C_R   0.168160 0.584222 0.057776 -0.018479
C11   C     C_R   0.124797 0.497446 0.029264 -0.050704
C12   C     C_3   0.545558 0.785818 0.313857 0.399041
C13   C     C_R   0.045415 0.323974 0.971823 -0.075280
C14   C     C_R   0.085958 0.328823 0.031330 -0.076098
C15   C     C_R   0.126133 0.415329 0.060864 -0.026550
C16   C     C_3   0.052786 0.767697 0.243040 -0.311609
C17   C     C_R   0.168394 0.421373 0.121090 0.589371
C18   C     C_R   0.213588 0.587722 0.117588 0.576801
C19   C     C_2   0.807051 0.429042 0.770262 -0.093154
C20   C     C_3   0.780351 0.401548 0.706017 -0.089662
C21   C     C_1   0.000782 0.515042 0.684251 0.026196
C22   C     C_2   0.047763 0.519547 0.740288 -0.059722
C23   C     C_3   0.517145 0.319848 0.354776 0.293644
C24   C     C_2   0.943659 0.477480 0.787270 0.218752
C25   C     C_R   0.402367 0.555421 0.229889 -0.104708
C26   C     C_R   0.443378 0.562461 0.289496 -0.037933
C27   C     C_R   0.193349 0.480712 0.314739 0.029775
C28   C     C_3   0.228341 0.750753 0.661197 0.468926
C29   C     C_R   0.150031 0.473879 0.254790 -0.096809
C30   C     C_R   0.253415 0.512569 0.211537 0.211844
C31   C     C_2   0.874289 0.463214 0.665365 -0.267077
C32   C     C_R   0.690954 0.935501 0.533152 -0.050039
C33   C     C_R   0.504346 0.802905 0.501594 0.032900
C34   C     C_3   0.506562 0.294226 0.289342 -0.367380
C35   C     C_R   0.359224 0.772178 0.475075 -0.259854
C36   C     C_R   0.258117 0.834957 0.449876 0.023625
C37   C     C_R   0.304956 0.929330 0.448587 -0.152576
C38   C     C_R   0.451596 0.961714 0.474662 0.000181
C39   C     C_R   0.550544 0.899320 0.503500 -0.030721
C40   C     C_3   0.231509 0.853260 0.642794 -0.023862
C41   C     C_R   0.638684 0.091990 0.501862 -0.017734
C42   C     C_R   0.736316 0.030806 0.532197 0.010009
C43   C     C_R   0.683683 0.187865 0.502155 0.036984
C44   C     C_R   0.819566 0.222106 0.533125 -0.270880
C45   C     C_3   0.045412 0.204270 0.694892 0.318362
C46   C     C_R   0.922791 0.161457 0.559067 -0.012962
C47   C     C_R   0.880562 0.065654 0.559684 -0.139935
C48   C     C_R   0.498651 0.056044 0.472625 -0.039891
C49   C     C_3   0.021010 0.256651 0.411848 0.309909
C50   C     C_3   0.016797 0.150701 0.399860 -0.382402
C51   C     C_3   0.677517 0.656305 0.640870 0.264955
C52   C     C_3   0.694067 0.679391 0.706471 -0.352894
C53   C     C_3   0.417431 0.930854 0.716742 -0.174308
C54   C     C_3   0.572352 0.956818 0.229813 -0.212509
C55   C     C_3   0.081312 0.165452 0.753980 -0.314993
C56   C     C_3   0.548332 0.212263 0.699709 0.321815
C57   C     C_3   0.618745 0.180169 0.756437 -0.434888
C58   C     C_R   0.337481 0.527196 0.331325 -0.292072
H1    H     H_    0.489357 0.763930 0.355706 -0.100597
H2    H     H_    0.585914 0.598709 0.634021 0.091508
H3    H     H_    0.695617 0.889466 0.361052 0.106620
H4    H     H_    0.790495 0.734255 0.714525 0.163515
H5    H     H_    0.725881 0.616040 0.729324 0.089737
H6    H     H_    0.577274 0.705254 0.724986 0.139084
H7    H     H_    0.450466 0.781806 0.279654 -0.005678
H8    H     H_    0.502925 0.932103 0.340104 0.019627
H9    H     H_    0.393998 0.337466 0.371339 0.019068
H10   H     H_    0.600434 0.381918 0.361311 0.060022
H11   H     H_    0.421401 0.233348 0.281426 0.133807
H12   H     H_    0.127723 0.891843 0.663148 0.117765
H13   H     H_    0.461809 0.354392 0.265932 0.076101
H14   H     H_    0.628569 0.275900 0.271644 0.127632
H15   H     H_    0.039116 0.702707 0.214528 0.122824
H16   H     H_    0.036506 0.281687 0.700589 0.035169
H17   H     H_    0.927964 0.172386 0.679287 -0.055997
H18   H     H_    0.192495 0.200187 0.773023 0.152190
H19   H     H_    0.977730 0.177732 0.784549 0.128049
H20   H     H_    0.099765 0.088707 0.748564 0.102086
H21   H     H_    0.646903 0.219576 0.666305 -0.056721
H22   H     H_    0.465619 0.155600 0.681686 0.107300
H23   H     H_    0.213943 0.853222 0.594517 0.057013
H24   H     H_    0.691041 0.116448 0.747151 0.080293
H25   H     H_    0.519131 0.163730 0.787711 0.134150
H26   H     H_    0.985356 0.685955 0.315310 0.117576
H27   H     H_    0.699302 0.235790 0.776797 0.132672
H28   H     H_    0.086197 0.264267 0.054132 0.122423
H29   H     H_    0.015871 0.255813 0.950931 0.120647
H30   H     H_    0.197531 0.733740 0.046352 0.121639
H31   H     H_    0.486680 0.582532 0.197885 0.107135
H32   H     H_    0.117967 0.725915 0.943997 0.134811
H33   H     H_    0.168058 0.546774 0.751860 0.143500
H34   H     H_    0.898934 0.280028 0.425048 -0.003665
H35   H     H_    0.726976 0.399257 0.802814 0.097193
H36   H     H_    0.037154 0.438411 0.241898 0.117270
H37   H     H_    0.371347 0.532043 0.377095 0.081368
H38   H     H_    0.199955 0.714827 0.310975 -0.069777
H39   H     H_    0.853376 0.450478 0.618708 0.074969
H40   H     H_    0.322887 0.698809 0.475066 0.078621
H41   H     H_    0.227258 0.977107 0.427384 0.073366
H42   H     H_    0.960788 0.018678 0.580455 0.068413
H43   H     H_    0.852524 0.295961 0.532973 0.054202
H44   H     H_    0.766045 0.890905 0.557601 0.101948
H45   H     H_    0.108035 0.274630 0.447705 0.071822
H46   H     H_    0.422754 0.100826 0.448560 0.095697
H47   H     H_    0.940939 0.808606 0.239232 0.162344
H48   H     H_    0.158884 0.810126 0.228219 0.117900
H49   H     H_    0.348542 0.720147 0.652400 0.050318
H50   H     H_    0.482454 0.881980 0.631724 0.214694
H51   H     H_    0.515599 0.985410 0.718419 0.089939
H52   H     H_    0.460073 0.869905 0.739924 0.146396
H53   H     H_    0.308183 0.960356 0.739091 0.140568
H54   H     H_    0.776339 0.970642 0.282461 0.208516
H55   H     H_    0.643361 0.978584 0.191010 0.118173
H56   H     H_    0.922486 0.130351 0.366754 0.126952
H57   H     H_    0.505358 0.018224 0.248579 0.104006
H58   H     H_    0.484544 0.900464 0.214878 0.124214
H59   H     H_    0.988523 0.114669 0.440615 0.063952
H60   H     H_    0.137091 0.127402 0.383030 0.117152
H61   H     H_    0.795390 0.633660 0.622577 0.041112
N1    N     N_R   0.992505 0.483088 0.849093 -0.428213
N2    N     N_R   0.209738 0.507193 0.149325 -0.423933
N3    N     N_2   0.383340 0.903496 0.656154 -0.444359
N4    N     N_2   0.681823 0.923594 0.272919 -0.404311
O1    O     O_2   0.901900 0.448470 0.362340 -0.460386
O2    O     O_2   0.256420 0.166368 0.547140 -0.475821
O3    O     O_3   0.172854 0.181058 0.656057 -0.574124
O4    O     O_3   0.142240 0.449440 0.433360 -0.495227
O5    O     O_3   0.549340 0.612930 0.525560 -0.487380
O6    O     O_2   0.396530 0.270940 0.479440 -0.463915
O7    O     O_3   0.575884 0.243088 0.383151 -0.648513
O8    O     O_2   0.467421 0.477016 0.707896 -0.484232
O9    O     O_3   0.457213 0.293764 0.711592 -0.559049
O10   O     O_2   0.018919 0.640930 0.851431 -0.540163
O11   O     O_2   0.973051 0.325526 0.854457 -0.626009
O12   O     O_3   0.629392 0.736814 0.614268 -0.659996
O13   O     O_2   0.171003 0.349837 0.148066 -0.597729
O14   O     O_2   0.256487 0.662862 0.141349 -0.620813
O15   O     O_3   0.645560 0.619080 0.391970 -0.467197
O16   O     O_2   0.782806 0.557851 0.291171 -0.505083
O17   O     O_3   0.068011 0.298594 0.360323 -0.628601
O18   O     O_3   0.676309 0.729626 0.294868 -0.591512
O19   O     O_2   0.793170 0.729090 0.520590 -0.439137
O20   O     O_3   0.052800 0.667320 0.419180 -0.490044
O21   O     O_2   0.919144 0.833059 0.447440 -0.480522
O22   O     O_3   0.051878 0.821393 0.343647 -0.608382
O23   O     O_2   0.287790 0.551560 0.637690 -0.475238
O24   O     O_3   0.047460 0.550640 0.566640 -0.462176
O25   O     O_3   0.544140 0.380990 0.608030 -0.458566
O26   O     O_3   0.106884 0.702552 0.627824 -0.634588
O27   O     O_3   0.640350 0.387150 0.474440 -0.477695
O28   O     O_3   0.136890 0.332750 0.580830 -0.473417
P1    P     P_3+3 0.074990 0.420800 0.372080 0.990475
P2    P     P_3+3 0.618830 0.715330 0.538180 0.979858
P3    P     P_3+3 0.068952 0.789559 0.416250 0.966106
P4    P     P_3+3 0.114710 0.579280 0.627920 1.018019
P5    P     P_3+3 0.119955 0.210201 0.585588 0.968739
P6    P     P_3+3 0.637290 0.614937 0.315394 0.951291
P7    P     P_3+3 0.578210 0.270708 0.458785 0.937105
P8    P     P_3+3 0.562234 0.390559 0.684463 0.980326

loop_
_geom_bond_atom_site_label_1
_geom_bond_atom_site_label_2
_ccdc_geom_bond_type
Ba2   O24   S    
C34   H13   S    
C13   H29   S    
C23   H10   S    
C38   C39   A    
C11   C15   A    
C9    H30   S    
Ba1   O19   S    
C58   H37   S    
C56   H21   S    
C40   N3    S    
C57   H27   S    
C50   H59   S    
C44   C46   A    
O20   P3    S    
C51   O12   S    
C49   C50   S    
C25   C26   A    
H54   N4    S    
C4    H38   S    
C17   O13   D    
C16   H15   S    
C6    C13   A    
C56   H22   S    
C2    C8    A    
C35   H40   S    
C35   C36   A    
C50   H56   S    
C51   H2    S    
C29   H36   S    
C49   H34   S    
Ba1   Ba2   S    
C45   H17   S    
Ba1   P1    S    
C32   C39   A    
O6    P7    D    
C3    O10   D    
C43   C44   A    
O19   P2    D    
C33   C39   A    
C40   H12   S    
C28   H49   S    
C4    H26   S    
C13   C14   A    
C43   P7    S    
H50   N3    S    
C30   N2    S    
Ba2   O6    S    
C53   H52   S    
O4    P1    S    
C54   H55   S    
O23   P4    D    
C15   C17   A    
C55   H19   S    
C54   H58   S    
C20   P8    S    
C16   H47   S    
C8    H32   S    
Ba2   O23   S    
C51   H61   S    
C49   H45   S    
C56   C57   S    
Ba2   O28   S    
C10   C11   A    
C36   P3    S    
C40   H23   S    
Ba1   O20   S    
C3    N1    Am   
C27   P1    S    
C1    H8    S    
C52   H4    S    
C41   C43   A    
C14   C15   A    
C26   P6    S    
C26   C58   A    
C16   H48   S    
O26   P4    S    
C49   O17   S    
C14   H28   S    
C21   C22   D    
Ba1   O4    S    
C7    C11   A    
C55   H20   S    
O1    P1    D    
C54   N4    S    
C57   H25   S    
C5    C6    A    
C21   C31   D    
O8    P8    D    
O27   P7    S    
C5    O11   D    
C45   H16   S    
Ba1   P2    S    
Br1   C28   S    
C32   H44   S    
O15   P6    S    
C31   H39   S    
Ba2   P4    S    
C20   C31   S    
Ba2   O5    S    
C10   C18   A    
Ba1   O24   S    
C25   H31   S    
C53   N3    S    
C9    C10   A    
Ba1   O27   S    
C28   C40   S    
C55   H18   S    
C41   C48   A    
C37   C38   A    
C25   C30   A    
Ba2   O27   S    
C4    C16   S    
C19   C24   D    
C23   H9    S    
O9    P8    S    
C45   O3    S    
C27   C58   A    
O18   P6    S    
O21   P3    D    
O3    P5    S    
C52   H5    S    
O28   P5    S    
C41   C42   A    
C33   P2    S    
C4    O22   S    
C6    C7    A    
O12   P2    S    
Ba2   O25   S    
C51   C52   S    
O5    P2    S    
C24   N1    S    
C44   H43   S    
O24   P4    S    
C19   H35   S    
Ba1   O1    S    
O16   P6    D    
Ba1   O5    S    
O7    P7    S    
C52   H6    S    
C8    C9    A    
C5    N1    Am   
C45   C55   S    
C22   C24   S    
C1    H3    S    
C1    N4    S    
O17   P1    S    
C29   C30   A    
C1    C12   S    
C33   C35   A    
C2    C7    A    
C23   O7    S    
C50   H60   S    
C27   C29   A    
C28   O26   S    
C2    C3    A    
C42   C47   A    
C18   N2    Am   
C12   H7    S    
C56   O9    S    
O25   P8    S    
Ba2   O4    S    
C12   H1    S    
C53   H51   S    
C21   P4    S    
O22   P3    S    
C34   H14   S    
C17   N2    Am   
Ba1   O15   S    
C37   H41   S    
C12   O18   S    
C36   C37   A    
C57   H24   S    
C22   H33   S    
C23   C34   S    
C48   H46   S    
C46   C47   A    
C34   H11   S    
C53   H53   S    
C19   C20   S    
C46   P5    S    
C47   H42   S    
C18   O14   D    
C38   C48   A    
O2    P5    D    
C54   H57   S    
C32   C42   A    
