data_mof_unit_574.cif
_audit_creation_date              2012-12-11T15:08:54-0500
_audit_creation_method            fapswitch 2.2
_symmetry_space_group_name_H-M    P1
_symmetry_Int_Tables_number       1
_space_group_crystal_system       triclinic
_cell_length_a                    19.554868
_cell_length_b                    11.311178
_cell_length_c                    18.693711
_cell_angle_alpha                 89.999884
_cell_angle_beta                  89.813217
_cell_angle_gamma                 90.000234
_cell_volume                      4134.81365728

loop_
_atom_site_label
_atom_site_type_symbol
_atom_type_description
_atom_site_fract_x
_atom_site_fract_y
_atom_site_fract_z
_atom_type_partial_charge
C1    C     C_R   0.272588 0.043282 0.854102 0.531652
C2    C     C_3   0.688610 0.528330 0.956573 -0.235822
C3    C     C_R   0.226191 0.541938 0.354457 0.540223
C4    C     C_R   0.470425 0.823515 0.646385 0.544067
C5    C     C_R   0.529574 0.823515 0.353614 0.544067
C6    C     C_R   0.970425 0.323515 0.646385 0.544069
C7    C     C_R   0.029574 0.323515 0.353614 0.544065
C8    C     C_R   0.261470 0.641888 0.643184 0.541470
C9    C     C_R   0.738531 0.641884 0.356815 0.541469
C10   C     C_R   0.761469 0.141887 0.643185 0.541469
C11   C     C_R   0.238531 0.141884 0.356815 0.541467
C12   C     C_3   0.479601 0.916226 0.035682 -0.109377
C13   C     C_3   0.811391 0.028333 0.043427 -0.235823
C14   C     C_3   0.520399 0.916226 0.964318 -0.109377
C15   C     C_3   0.979601 0.416225 0.035682 -0.109377
C16   C     C_3   0.020399 0.416226 0.964318 -0.109377
C17   C     C_3   0.431928 0.818503 0.006420 -0.158164
C18   C     C_3   0.568072 0.818505 0.993581 -0.158163
C19   C     C_3   0.931928 0.318503 0.006420 -0.158164
C20   C     C_3   0.068072 0.318505 0.993581 -0.158163
C21   C     C_3   0.472699 0.820091 0.935928 0.057969
C22   C     C_3   0.527301 0.820091 0.064072 0.057970
C23   C     C_3   0.972699 0.320091 0.935928 0.057969
C24   C     C_3   0.188610 0.028330 0.956573 -0.235822
C25   C     C_3   0.027301 0.320091 0.064072 0.057970
C26   C     C_3   0.320824 0.553364 0.963019 -0.234157
C27   C     C_3   0.679177 0.553361 0.036982 -0.234154
C28   C     C_3   0.820824 0.053363 0.963019 -0.234157
C29   C     C_3   0.179177 0.053361 0.036982 -0.234154
C30   C     C_3   0.180145 0.523249 0.025995 -0.208358
C31   C     C_3   0.819857 0.523249 0.974006 -0.208359
C32   C     C_3   0.680145 0.023249 0.025995 -0.208358
C33   C     C_R   0.727413 0.043285 0.145898 0.531648
C34   C     C_3   0.319857 0.023249 0.974006 -0.208359
C35   C     C_3   0.240722 0.707363 0.056634 -0.257192
C36   C     C_3   0.759278 0.707361 0.943366 -0.257192
C37   C     C_3   0.740722 0.207363 0.056634 -0.257192
C38   C     C_3   0.259278 0.207361 0.943366 -0.257192
C39   C     C_3   0.240975 0.574419 0.070193 0.065802
C40   C     C_3   0.759026 0.574417 0.929808 0.065800
C41   C     C_3   0.740974 0.074419 0.070193 0.065802
C42   C     C_3   0.259026 0.074417 0.929808 0.065801
C43   C     C_3   0.254978 0.610069 0.932122 0.055216
C44   C     C_R   0.772588 0.543282 0.854102 0.531652
C45   C     C_3   0.745023 0.610068 0.067878 0.055219
C46   C     C_3   0.754978 0.110069 0.932122 0.055217
C47   C     C_3   0.245023 0.110068 0.067878 0.055219
C48   C     C_3   0.195365 0.524674 0.945119 -0.254228
C49   C     C_3   0.804637 0.524675 0.054882 -0.254226
C50   C     C_3   0.695365 0.024674 0.945119 -0.254228
C51   C     C_3   0.304637 0.024675 0.054882 -0.254226
C52   C     C_3   0.238720 0.725443 0.974713 -0.222954
C53   C     C_3   0.761280 0.725443 0.025287 -0.222952
C54   C     C_3   0.738720 0.225443 0.974713 -0.222954
C55   C     C_R   0.227413 0.543285 0.145898 0.531648
C56   C     C_3   0.261280 0.225443 0.025287 -0.222953
C57   C     C_3   0.497498 0.704634 0.460155 -0.253891
C58   C     C_3   0.502499 0.704635 0.539844 -0.253888
C59   C     C_3   0.997497 0.204634 0.460153 -0.253891
C60   C     C_3   0.002491 0.204631 0.539842 -0.253892
C61   C     C_R   0.444875 0.817190 0.862472 0.536996
C62   C     C_R   0.555125 0.817190 0.137528 0.536996
C63   C     C_R   0.944875 0.317190 0.862472 0.536996
C64   C     C_R   0.055125 0.317190 0.137528 0.536996
C65   C     C_3   0.566391 0.892732 0.471317 -0.223772
C66   C     C_3   0.519929 0.722812 0.964560 -0.112207
C67   C     C_3   0.433606 0.892729 0.528683 -0.223768
C68   C     C_3   0.066392 0.392727 0.471317 -0.223768
C69   C     C_3   0.933608 0.392734 0.528683 -0.223768
C70   C     C_3   0.445067 0.902597 0.446701 -0.260309
C71   C     C_3   0.554929 0.902601 0.553298 -0.260312
C72   C     C_3   0.945068 0.402600 0.446701 -0.260309
C73   C     C_3   0.054932 0.402588 0.553299 -0.260309
C74   C     C_3   0.508678 0.831089 0.430177 0.050711
C75   C     C_3   0.491319 0.831089 0.569823 0.050710
C76   C     C_3   0.008678 0.331089 0.430177 0.050710
C77   C     C_3   0.480071 0.722811 0.035440 -0.112207
C78   C     C_3   0.991319 0.331087 0.569822 0.050716
C79   C     C_3   0.185137 0.659935 0.457963 -0.265599
C80   C     C_3   0.814859 0.659940 0.542037 -0.265605
C81   C     C_3   0.685137 0.159936 0.457963 -0.265600
C82   C     C_3   0.314867 0.159935 0.542036 -0.265596
C83   C     C_3   0.183170 0.655799 0.538388 -0.246481
C84   C     C_3   0.816829 0.655799 0.461612 -0.246485
C85   C     C_3   0.683169 0.155799 0.538388 -0.246482
C86   C     C_3   0.316832 0.155797 0.461611 -0.246480
C87   C     C_3   0.237718 0.457412 0.475323 -0.225562
C88   C     C_3   0.019929 0.222812 0.964560 -0.112207
C89   C     C_3   0.762283 0.457414 0.524679 -0.225567
C90   C     C_3   0.737717 0.957412 0.475323 -0.225563
C91   C     C_3   0.262280 0.957416 0.524679 -0.225569
C92   C     C_3   0.311162 0.624763 0.442302 -0.026679
C93   C     C_3   0.688835 0.624762 0.557697 -0.026670
C94   C     C_3   0.811162 0.124761 0.442303 -0.026672
C95   C     C_3   0.188845 0.124782 0.557700 -0.026696
C96   C     C_3   0.240537 0.571474 0.429781 0.085378
C97   C     C_3   0.759462 0.571477 0.570220 0.085379
C98   C     C_3   0.740536 0.071474 0.429781 0.085379
C99   C     C_3   0.980071 0.222811 0.035440 -0.112207
C100  C     C_3   0.259465 0.071480 0.570220 0.085379
C101  C     C_3   0.253154 0.607637 0.567334 0.053246
C102  C     C_3   0.746846 0.607634 0.432666 0.053245
C103  C     C_3   0.753152 0.107636 0.567334 0.053246
C104  C     C_3   0.246847 0.107634 0.432666 0.053240
C105  C     C_3   0.255363 0.475594 0.554846 -0.259476
C106  C     C_3   0.744635 0.475591 0.445156 -0.259483
C107  C     C_3   0.755362 0.975593 0.554846 -0.259479
C108  C     C_3   0.244635 0.975593 0.445156 -0.259489
C109  C     C_R   0.262142 0.642079 0.854926 0.535480
C110  C     C_3   0.311391 0.528333 0.043427 -0.235823
C111  C     C_R   0.737859 0.642077 0.145074 0.535480
C112  C     C_R   0.762142 0.142079 0.854926 0.535480
C113  C     C_R   0.237859 0.142077 0.145074 0.535480
C114  C     C_3   0.313203 0.658736 0.522508 -0.185124
C115  C     C_3   0.686796 0.658732 0.477489 -0.185118
C116  C     C_3   0.813202 0.158736 0.522509 -0.185124
C117  C     C_3   0.186798 0.158733 0.477490 -0.185109
C118  C     C_R   0.273809 0.041941 0.645544 0.540226
C119  C     C_R   0.726191 0.041938 0.354457 0.540223
C120  C     C_R   0.773808 0.541940 0.645544 0.540224
Cr1   Cr    Cr6+3 0.229620 0.836040 0.749110 0.987329
Cr2   Cr    Cr6+3 0.613980 0.676590 0.250790 0.995495
Cr3   Cr    Cr6+3 0.886020 0.176590 0.749210 0.995496
Cr4   Cr    Cr6+3 0.113980 0.176590 0.250790 0.995495
Cr5   Cr    Cr6+3 0.770380 0.836040 0.250890 0.987329
Cr6   Cr    Cr6+3 0.729620 0.336040 0.749110 0.987329
Cr7   Cr    Cr6+3 0.270380 0.336040 0.250890 0.987329
Cr8   Cr    Cr6+3 0.387630 0.990680 0.750730 0.996371
Cr9   Cr    Cr6+3 0.612370 0.990680 0.249270 0.996372
Cr10  Cr    Cr6+3 0.887630 0.490680 0.750730 0.996372
Cr11  Cr    Cr6+3 0.112370 0.490680 0.249270 0.996372
Cr12  Cr    Cr6+3 0.386020 0.676590 0.749210 0.995495
H1    H     H_    0.377304 0.805526 0.017095 0.091285
H2    H     H_    0.712946 0.746247 0.919118 0.103686
H3    H     H_    0.232287 0.886521 0.548764 0.135644
H4    H     H_    0.307482 0.442028 0.566777 0.122967
H5    H     H_    0.692515 0.442027 0.433229 0.122969
H6    H     H_    0.807481 0.942030 0.566776 0.122966
H7    H     H_    0.192516 0.942029 0.433227 0.122970
H8    H     H_    0.317143 0.433950 0.053894 0.131203
H9    H     H_    0.682857 0.433948 0.946106 0.131202
H10   H     H_    0.817143 0.933950 0.053894 0.131203
H11   H     H_    0.182857 0.933948 0.946106 0.131202
H12   H     H_    0.352966 0.571801 0.074050 0.109838
H13   H     H_    0.787054 0.246250 0.080881 0.103685
H14   H     H_    0.647035 0.571798 0.925950 0.109839
H15   H     H_    0.852966 0.071800 0.074050 0.109838
H16   H     H_    0.147035 0.071798 0.925950 0.109838
H17   H     H_    0.365038 0.613564 0.955118 0.136537
H18   H     H_    0.634962 0.613562 0.044882 0.136536
H19   H     H_    0.865038 0.113565 0.955118 0.136537
H20   H     H_    0.134962 0.113562 0.044882 0.136536
H21   H     H_    0.332776 0.469547 0.934471 0.117970
H22   H     H_    0.667225 0.469543 0.065531 0.117969
H23   H     H_    0.832776 0.969547 0.934471 0.117970
H24   H     H_    0.212947 0.246247 0.919118 0.103686
H25   H     H_    0.167225 0.969544 0.065531 0.117969
H26   H     H_    0.665006 0.937701 0.046993 0.099388
H27   H     H_    0.334996 0.937702 0.953008 0.099387
H28   H     H_    0.165006 0.437701 0.046993 0.099388
H29   H     H_    0.834996 0.437702 0.953008 0.099387
H30   H     H_    0.708960 0.935955 0.925609 0.111105
H31   H     H_    0.291042 0.935955 0.074393 0.111104
H32   H     H_    0.208960 0.435955 0.925609 0.111105
H33   H     H_    0.791042 0.435955 0.074393 0.111104
H34   H     H_    0.370286 0.526125 0.369270 0.265056
H35   H     H_    0.273606 0.794913 0.958410 0.108958
H36   H     H_    0.368380 0.465358 0.454329 0.237827
H37   H     H_    0.629707 0.526120 0.630729 0.265049
H38   H     H_    0.631628 0.465345 0.545674 0.237831
H39   H     H_    0.870288 0.026109 0.369276 0.265055
H40   H     H_    0.868378 0.965355 0.454339 0.237825
H41   H     H_    0.129721 0.026191 0.630751 0.265051
H42   H     H_    0.131629 0.965383 0.545710 0.237843
H43   H     H_    0.726393 0.794911 0.041589 0.108958
H44   H     H_    0.773606 0.294913 0.958410 0.108958
H45   H     H_    0.226393 0.294911 0.041589 0.108958
H46   H     H_    0.185763 0.751850 0.960842 0.131061
H47   H     H_    0.814236 0.751852 0.039158 0.131060
H48   H     H_    0.685763 0.251850 0.960842 0.131061
H49   H     H_    0.622695 0.805528 0.982905 0.091284
H50   H     H_    0.314236 0.251852 0.039158 0.131060
H51   H     H_    0.633615 0.078285 0.035108 0.138052
H52   H     H_    0.366386 0.078286 0.964893 0.138051
H53   H     H_    0.133615 0.578285 0.035108 0.138052
H54   H     H_    0.866386 0.578286 0.964893 0.138051
H55   H     H_    0.149169 0.553667 0.915442 0.124916
H56   H     H_    0.850833 0.553670 0.084558 0.124915
H57   H     H_    0.649169 0.053667 0.915442 0.124916
H58   H     H_    0.350833 0.053670 0.084558 0.124915
H59   H     H_    0.530662 0.632925 0.439930 0.152960
H60   H     H_    0.877304 0.305526 0.017095 0.091285
H61   H     H_    0.469335 0.632924 0.560070 0.152961
H62   H     H_    0.030664 0.132927 0.439930 0.152952
H63   H     H_    0.969324 0.132927 0.560065 0.152946
H64   H     H_    0.446192 0.680607 0.444897 0.188248
H65   H     H_    0.553806 0.680613 0.555102 0.188242
H66   H     H_    0.946193 0.180608 0.444887 0.188249
H67   H     H_    0.053793 0.180592 0.555102 0.188264
H68   H     H_    0.606825 0.832143 0.460833 0.110957
H69   H     H_    0.393172 0.832141 0.539170 0.110954
H70   H     H_    0.106826 0.332139 0.460830 0.110961
H71   H     H_    0.122695 0.305528 0.982905 0.091284
H72   H     H_    0.893172 0.332146 0.539170 0.110956
H73   H     H_    0.599850 0.868650 0.583125 0.100142
H74   H     H_    0.400146 0.868644 0.416876 0.100145
H75   H     H_    0.099851 0.368626 0.583123 0.100156
H76   H     H_    0.900147 0.368649 0.416876 0.100143
H77   H     H_    0.464338 0.996779 0.065479 0.113532
H78   H     H_    0.535661 0.996780 0.934521 0.113532
H79   H     H_    0.964338 0.496779 0.065479 0.113532
H80   H     H_    0.035661 0.496780 0.934521 0.113532
H81   H     H_    0.453677 0.996115 0.430889 0.121970
H82   H     H_    0.195649 0.751025 0.081748 0.127776
H83   H     H_    0.546318 0.996119 0.569110 0.121972
H84   H     H_    0.953680 0.496119 0.430889 0.121970
H85   H     H_    0.046326 0.496106 0.569115 0.121967
H86   H     H_    0.423118 0.981073 0.551177 0.134572
H87   H     H_    0.576878 0.981077 0.448823 0.134574
H88   H     H_    0.923122 0.481080 0.551178 0.134572
H89   H     H_    0.076879 0.481074 0.448826 0.134569
H90   H     H_    0.132270 0.643741 0.439570 0.141818
H91   H     H_    0.867727 0.643752 0.560432 0.141821
H92   H     H_    0.632270 0.143743 0.439569 0.141818
H93   H     H_    0.804352 0.751024 0.918252 0.127777
H94   H     H_    0.367733 0.143738 0.560429 0.141815
H95   H     H_    0.198027 0.749618 0.439188 0.108114
H96   H     H_    0.801966 0.749623 0.560809 0.108110
H97   H     H_    0.698029 0.249619 0.439189 0.108112
H98   H     H_    0.301981 0.249620 0.560810 0.108108
H99   H     H_    0.166805 0.743722 0.557339 0.136869
H100  H     H_    0.833196 0.743720 0.442659 0.136875
H101  H     H_    0.666804 0.243722 0.557340 0.136870
H102  H     H_    0.333197 0.243720 0.442658 0.136873
H103  H     H_    0.141847 0.596237 0.556538 0.122369
H104  H     H_    0.695649 0.251025 0.081748 0.127776
H105  H     H_    0.858152 0.596235 0.443465 0.122368
H106  H     H_    0.641846 0.096237 0.556538 0.122371
H107  H     H_    0.358154 0.096235 0.443460 0.122369
H108  H     H_    0.685934 0.934435 0.474851 0.107576
H109  H     H_    0.314062 0.934438 0.525150 0.107582
H110  H     H_    0.185936 0.434435 0.474852 0.107575
H111  H     H_    0.814067 0.434446 0.525147 0.107581
H112  H     H_    0.718406 0.928486 0.590085 0.097015
H113  H     H_    0.281591 0.928485 0.409918 0.097015
H114  H     H_    0.218405 0.428491 0.590085 0.097013
H115  H     H_    0.304352 0.251024 0.918252 0.127777
H116  H     H_    0.781590 0.428484 0.409916 0.097013
H117  H     H_    0.317229 0.705715 0.408975 0.119601
H118  H     H_    0.682766 0.705717 0.591024 0.119589
H119  H     H_    0.817232 0.205712 0.408974 0.119598
H120  H     H_    0.182789 0.205744 0.591018 0.119614
H121  H     H_    0.535478 0.641794 0.935362 0.122208
H122  H     H_    0.464522 0.641793 0.064638 0.122208
H123  H     H_    0.035478 0.141794 0.935362 0.122208
H124  H     H_    0.964522 0.141793 0.064638 0.122208
H125  H     H_    0.304803 0.751531 0.524312 0.076419
H126  H     H_    0.287054 0.746250 0.080881 0.103685
H127  H     H_    0.695194 0.751528 0.475681 0.076414
H128  H     H_    0.804804 0.251533 0.524312 0.076413
H129  H     H_    0.195193 0.251528 0.475674 0.076419
H130  H     H_    0.362585 0.635217 0.546496 0.149353
H131  H     H_    0.637415 0.635208 0.453500 0.149356
H132  H     H_    0.862582 0.135216 0.546498 0.149355
H133  H     H_    0.137415 0.135200 0.453508 0.149353
H134  H     H_    0.267711 0.386516 0.451241 0.135654
H135  H     H_    0.732295 0.386512 0.548763 0.135651
H136  H     H_    0.767710 0.886515 0.451241 0.135656
N1    N     N_3   0.367138 0.542738 0.424051 -0.692079
N2    N     N_3   0.632860 0.542728 0.575947 -0.692066
N3    N     N_3   0.867138 0.042730 0.424056 -0.692078
N4    N     N_3   0.132866 0.042779 0.575968 -0.692094
O1    O     O_R   0.214130 0.708570 0.829890 -0.527131
O2    O     O_R   0.542830 0.717300 0.331620 -0.528794
O3    O     O_R   0.957170 0.217300 0.668380 -0.528792
O4    O     O_R   0.042830 0.217300 0.331620 -0.528795
O5    O     O_R   0.320870 0.624890 0.673130 -0.513127
O6    O     O_R   0.679130 0.624890 0.326870 -0.513128
O7    O     O_R   0.820870 0.124890 0.673130 -0.513129
O8    O     O_R   0.179130 0.124890 0.326870 -0.513126
O9    O     O_3   0.334430 0.834430 0.749680 -0.285273
O10   O     O_3   0.665570 0.834430 0.250320 -0.285271
O11   O     O_3   0.834430 0.334430 0.749680 -0.285273
O12   O     O_R   0.785870 0.708570 0.170110 -0.527132
O13   O     O_3   0.165570 0.334430 0.250320 -0.285271
O14   O     O_R   0.236050 0.959150 0.825270 -0.514858
O15   O     O_R   0.763950 0.959150 0.174730 -0.514856
O16   O     O_R   0.736050 0.459150 0.825270 -0.514858
O17   O     O_R   0.263950 0.459150 0.174730 -0.514856
O18   O     O_R   0.332100 0.076650 0.832310 -0.532697
O19   O     O_R   0.667900 0.076650 0.167690 -0.532695
O20   O     O_R   0.832100 0.576650 0.832310 -0.532697
O21   O     O_R   0.167900 0.576650 0.167690 -0.532695
O22   O     O_R   0.446500 0.918620 0.826240 -0.504507
O23   O     O_R   0.714130 0.208570 0.829890 -0.527131
O24   O     O_R   0.553500 0.918620 0.173760 -0.504507
O25   O     O_R   0.946500 0.418620 0.826240 -0.504507
O26   O     O_R   0.053500 0.418620 0.173760 -0.504507
O27   O     O_R   0.457310 0.715830 0.831280 -0.524628
O28   O     O_R   0.542690 0.715830 0.168720 -0.524629
O29   O     O_R   0.957310 0.215830 0.831280 -0.524628
O30   O     O_R   0.042690 0.215830 0.168720 -0.524629
O31   O     O_R   0.321000 0.623520 0.824130 -0.518805
O32   O     O_R   0.679000 0.623520 0.175870 -0.518805
O33   O     O_R   0.821000 0.123520 0.824130 -0.518805
O34   O     O_R   0.285870 0.208570 0.170110 -0.527131
O35   O     O_R   0.179000 0.123520 0.175870 -0.518805
O36   O     O_R   0.213990 0.710040 0.667000 -0.531712
O37   O     O_R   0.786010 0.710040 0.333000 -0.531713
O38   O     O_R   0.713990 0.210040 0.667000 -0.531713
O39   O     O_R   0.286010 0.210040 0.333000 -0.531713
O40   O     O_R   0.235920 0.960520 0.674260 -0.516058
O41   O     O_R   0.764080 0.960520 0.325740 -0.516056
O42   O     O_R   0.735920 0.460520 0.674260 -0.516053
O43   O     O_R   0.264080 0.460520 0.325740 -0.516057
O44   O     O_R   0.331960 0.078120 0.669410 -0.537350
O45   O     O_R   0.446360 0.919990 0.675230 -0.508036
O46   O     O_R   0.668040 0.078120 0.330590 -0.537350
O47   O     O_R   0.831960 0.578120 0.669410 -0.537350
O48   O     O_R   0.168040 0.578120 0.330590 -0.537349
O49   O     O_R   0.553640 0.919990 0.324770 -0.508036
O50   O     O_R   0.946360 0.419990 0.675230 -0.508037
O51   O     O_R   0.053640 0.419990 0.324770 -0.508035
O52   O     O_R   0.457170 0.717300 0.668380 -0.528795

loop_
_geom_bond_atom_site_label_1
_geom_bond_atom_site_label_2
_ccdc_geom_bond_type
C31   H29   S    
Cr12  O27   S    
C46   C112  S    
C111  O12   A    
C34   C42   S    
Cr7   O17   S    
Cr8   O22   S    
Cr2   O32   S    
C14   C21   S    
Cr3   O29   S    
C90   C107  S    
Cr2   O2    S    
Cr3   O7    S    
C9    O37   A    
C53   H47   S    
C11   O39   A    
Cr11  O21   S    
C54   H44   S    
C5    C74   S    
C36   C53   S    
C91   H109  S    
C89   C106  S    
H38   N2    S    
C62   O24   A    
C89   H111  S    
C91   C100  S    
C85   C103  S    
Cr4   O13   S    
Cr12  O9    S    
C59   C60   S    
C81   H97   S    
Cr11  O48   S    
H40   N3    S    
C1    O14   A    
C26   H17   S    
C7    O51   A    
Cr11  O13   S    
C19   C99   S    
C17   C21   S    
C120  O42   A    
C19   C23   S    
C116  H132  S    
Cr5   O12   S    
C36   C40   S    
C16   C20   S    
Cr6   O11   S    
C13   H10   S    
C51   H58   S    
C83   H103  S    
C17   H1    S    
C85   H101  S    
C9    O6    A    
Cr5   O37   S    
C11   O8    A    
Cr6   O42   S    
C55   O17   A    
C79   H90   S    
C104  C117  S    
Cr12  O52   S    
C66   C77   S    
C112  O23   A    
C67   H86   S    
C20   H71   S    
C95   H120  S    
C45   C111  S    
C48   H32   S    
C58   H61   S    
C107  H6    S    
C103  C116  S    
C114  H130  S    
C79   C96   S    
Cr8   O44   S    
H36   N1    S    
C80   H91   S    
C49   H56   S    
Cr1   O40   S    
Cr1   O14   S    
C84   H100  S    
C35   H82   S    
C88   C99   S    
C87   H134  S    
C2    C40   S    
C71   H73   S    
Cr10  O47   S    
C61   O22   A    
C81   C98   S    
C115  H127  S    
Cr10  O50   S    
Cr7   O43   S    
Cr5   O15   S    
C36   H93   S    
Cr6   O16   S    
C21   C66   S    
C50   H30   S    
C69   H88   S    
C84   C102  S    
Cr7   O13   S    
C84   H105  S    
C86   C104  S    
C8    O5    A    
Cr4   O8    S    
C95   N4    S    
C72   H76   S    
C95   C117  S    
C82   H94   S    
C28   C46   S    
C34   C51   S    
Cr10  O11   S    
C29   C47   S    
C30   C48   S    
C12   H77   S    
C43   C52   S    
C6    C78   S    
C24   H11   S    
C12   C22   S    
C92   C96   S    
C85   H106  S    
C50   H57   S    
C33   O15   A    
Cr12  O31   S    
C32   C41   S    
Cr11  O26   S    
C10   O7    A    
C34   H27   S    
C27   H22   S    
Cr8   O18   S    
C45   C53   S    
H37   N2    S    
Cr1   O9    S    
Cr2   O6    S    
Cr3   O3    S    
C88   H123  S    
Cr1   O1    S    
C10   O38   A    
C30   H53   S    
Cr4   O30   S    
C7    O4    A    
C65   H87   S    
C112  O33   A    
C106  H5    S    
H42   N4    S    
C18   H49   S    
Cr7   O34   S    
C65   C74   S    
C25   C64   S    
C3    O43   A    
C69   C72   S    
Cr9   O49   S    
C70   C74   S    
C99   H124  S    
C67   H69   S    
C87   C105  S    
C113  O34   A    
C2    C27   S    
C16   C23   S    
C23   C88   S    
H34   N1    S    
C67   C75   S    
C13   H15   S    
C93   C97   S    
C93   H118  S    
C53   H43   S    
C81   H92   S    
C118  O44   A    
C83   C101  S    
C18   C22   S    
C36   H2    S    
C108  H7    S    
C103  C107  S    
C7    C76   S    
C18   C66   S    
C67   C70   S    
C57   C58   S    
C83   H99   S    
C71   H83   S    
C30   C39   S    
C37   C41   S    
Cr9   O10   S    
C114  H125  S    
C109  O1    A    
Cr6   O38   S    
C55   O21   A    
C40   C44   S    
C38   C56   S    
C28   H19   S    
C5    O49   A    
C26   H21   S    
C43   C109  S    
C59   C76   S    
C117  H133  S    
C60   H63   S    
C47   C56   S    
C58   H65   S    
C61   O27   A    
C118  O40   A    
C24   C42   S    
C32   H51   S    
C80   C84   S    
C13   C41   S    
C15   C19   S    
C86   H102  S    
C10   C103  S    
C57   H59   S    
C52   H35   S    
C80   C97   S    
C20   C25   S    
C94   C98   S    
C59   H66   S    
C111  O32   A    
C31   C40   S    
C120  O47   A    
C24   C29   S    
C4    C75   S    
C102  C115  S    
H39   N3    S    
C25   C99   S    
C39   C55   S    
C9    C102  S    
C12   C17   S    
C28   H23   S    
C13   C28   S    
C51   H31   S    
C11   C104  S    
C8    C101  S    
C21   C61   S    
C117  H129  S    
C27   C45   S    
C23   C63   S    
C73   H75   S    
C101  C114  S    
C35   H126  S    
C31   C49   S    
C63   O25   A    
C57   H64   S    
C64   O30   A    
C6    O50   A    
C48   H55   S    
C94   C116  S    
C95   C100  S    
C87   H110  S    
C29   H25   S    
C82   C86   S    
C68   H70   S    
C108  H113  S    
C89   H135  S    
C90   H136  S    
C49   H33   S    
C65   H68   S    
C45   C49   S    
C60   C78   S    
C46   C54   S    
C17   C77   S    
C86   H107  S    
C3    O48   A    
C80   H96   S    
C110  H12   S    
Cr2   O10   S    
C72   H84   S    
C107  H112  S    
C100  C118  S    
C104  C108  S    
Cr6   O23   S    
C47   C113  S    
C70   H81   S    
C91   C108  S    
C22   C77   S    
C47   C51   S    
C8    O36   A    
C119  O46   A    
C33   C41   S    
C79   C83   S    
C20   C88   S    
C1    O18   A    
Cr2   O28   S    
C52   H46   S    
C15   C25   S    
C1    C42   S    
C91   H3    S    
Cr10  O20   S    
C35   C52   S    
C5    O2    A    
C106  H116  S    
C4    O45   A    
Cr11  O51   S    
C109  O31   A    
C62   O28   A    
C14   C18   S    
C35   C39   S    
C68   H89   S    
C38   H24   S    
C72   C76   S    
C94   H119  S    
C98   C119  S    
C92   H117  S    
C30   H28   S    
Cr12  O5    S    
C38   C42   S    
C38   H115  S    
C15   C16   S    
C93   C115  S    
C2    H14   S    
C15   H79   S    
C60   H67   S    
C39   C110  S    
C93   N2    S    
C73   C78   S    
C119  O41   A    
C34   H52   S    
C3    C96   S    
C43   C48   S    
C26   C110  S    
C116  H128  S    
C19   H60   S    
C69   C78   S    
Cr8   O9    S    
C79   H95   S    
C33   O19   A    
C58   C75   S    
C32   H26   S    
C56   H45   S    
C59   H62   S    
C101  C105  S    
C44   O16   A    
C14   H78   S    
Cr10  O25   S    
C16   H80   S    
Cr5   O41   S    
C24   H16   S    
Cr9   O24   S    
C68   C73   S    
C65   C71   S    
C89   C97   S    
C57   C74   S    
C22   C62   S    
C87   C96   S    
C73   H85   S    
C68   C76   S    
C6    O3    A    
C32   C50   S    
C115  H131  S    
C69   H72   S    
C105  H4    S    
C37   C54   S    
C26   C43   S    
C12   C14   S    
C63   O29   A    
Cr1   O36   S    
C64   O26   A    
C37   H104  S    
C44   O20   A    
C82   C100  S    
C77   H122  S    
H41   N4    S    
C82   H98   S    
C70   H74   S    
Cr7   O39   S    
C46   C50   S    
C90   H108  S    
Cr3   O33   S    
C97   C120  S    
C110  H8    S    
C66   H121  S    
Cr3   O11   S    
Cr9   O46   S    
C29   H20   S    
C71   C75   S    
C92   N1    S    
Cr4   O4    S    
C56   H50   S    
C94   N3    S    
C31   H54   S    
C113  O35   A    
C54   H48   S    
C102  C106  S    
C81   C85   S    
C105  H114  S    
Cr5   O10   S    
Cr9   O19   S    
Cr8   O45   S    
C4    O52   A    
C2    H9    S    
Cr4   O35   S    
C37   H13   S    
C92   C114  S    
C90   C98   S    
C27   H18   S    
