data_mof_unit_488.cif
_audit_creation_date              2012-12-10T19:05:19-0500
_audit_creation_method            fapswitch 2.2
_symmetry_space_group_name_H-M    P1
_symmetry_Int_Tables_number       1
_space_group_crystal_system       triclinic
_cell_length_a                    9.587221
_cell_length_b                    10.882069
_cell_length_c                    17.174799
_cell_angle_alpha                 92.166802
_cell_angle_beta                  85.376044
_cell_angle_gamma                 91.915321
_cell_volume                      1783.88718482

loop_
_atom_site_label
_atom_site_type_symbol
_atom_type_description
_atom_site_fract_x
_atom_site_fract_y
_atom_site_fract_z
_atom_type_partial_charge
C1    C     C_R   0.501505 0.737506 0.499467 0.839868
C2    C     C_R   0.346044 0.408122 0.771098 0.287905
C3    C     C_R   0.561488 0.407682 0.138725 -0.324302
C4    C     C_R   0.566756 0.404869 0.219307 0.601248
C5    C     C_R   0.497540 0.618401 0.231773 0.287454
C6    C     C_R   0.488992 0.619796 0.150983 0.625621
C7    C     C_R   0.517294 0.513462 0.104551 -0.252193
C8    C     C_2   0.437390 0.420136 0.981397 0.372144
C9    C     C_2   0.501520 0.513903 0.020222 0.613650
C10   C     C_R   0.530414 0.508715 0.265986 -0.320246
C11   C     C_R   0.375671 0.930518 0.498262 -0.010982
C12   C     C_R   0.481392 0.486180 0.649590 0.890512
C13   C     C_R   0.500696 0.870951 0.503696 -0.197759
C14   C     C_R   0.619940 0.941699 0.519157 -0.286975
C15   C     C_R   0.615949 0.069169 0.524677 0.656605
C16   C     C_R   0.493330 0.129258 0.509632 -0.192873
C17   C     C_R   0.369882 0.057528 0.503035 -0.253061
C18   C     C_3   0.262854 0.054702 0.442478 0.945988
C19   C     C_3   0.277825 0.915721 0.435198 0.269500
C20   C     C_R   0.935547 0.467184 0.434257 -0.068773
C21   C     C_R   0.918911 0.560277 0.558247 0.439825
C22   C     C_R   0.069231 0.555930 0.560196 0.493387
C23   C     C_R   0.497614 0.262350 0.501919 0.877795
C24   C     C_R   0.081707 0.470805 0.433446 -0.019529
C25   C     C_3   0.093936 0.359001 0.381371 0.408089
C26   C     C_3   0.934366 0.352329 0.384199 0.438894
C27   C     C_R   0.519018 0.501163 0.350316 0.963773
C28   C     C_R   0.472945 0.452362 0.733167 -0.384320
C29   C     C_R   0.595535 0.450379 0.774194 0.375613
C30   C     C_R   0.585147 0.428796 0.854362 0.394622
C31   C     C_R   0.451890 0.415512 0.895057 -0.189993
C32   C     C_R   0.332529 0.400333 0.853132 0.378803
Cu1   Cu    Cu3+1 0.359330 0.500020 0.500000 1.053119
Cu2   Cu    Cu3+1 0.640670 0.499980 0.500000 1.048183
H1    H     H_    0.717982 0.900079 0.523648 0.173139
H2    H     H_    0.332745 0.882305 0.379073 0.121591
H3    H     H_    0.143879 0.283424 0.408202 0.201268
H4    H     H_    0.890646 0.364205 0.327050 0.138107
H5    H     H_    0.588136 0.326219 0.103284 0.219487
N1    N     N_R   0.852130 0.499070 0.499500 -0.213955
N2    N     N_R   0.148040 0.499110 0.499500 -0.255261
O1    O     O_R   0.381190 0.680360 0.500000 -0.516832
O2    O     O_R   0.618770 0.680320 0.499990 -0.599312
O3    O     O_R   0.367430 0.500040 0.613600 -0.518471
O4    O     O_R   0.605020 0.500000 0.613590 -0.505074
O5    O     O_R   0.381230 0.319680 0.500010 -0.612863
O6    O     O_R   0.618810 0.319640 0.500000 -0.479126
O7    O     O_R   0.394980 0.500000 0.386410 -0.527275
O8    O     O_R   0.632570 0.499960 0.386400 -0.604401
O9    O     O_3   0.727102 0.467968 0.736210 -0.502646
C33   C     C_3   0.780807 0.352216 0.710962 -0.197770
H6    H     H_    0.698878 0.280855 0.697661 0.134537
H7    H     H_    0.847503 0.318613 0.755016 0.156846
H8    H     H_    0.848476 0.363537 0.656162 0.180559
F1    F     F_    0.448728 0.723485 0.118488 -0.582043
F2    F     F_    0.734133 0.132600 0.541988 -0.649040
O10   O     O_3   0.121561 0.085595 0.465595 -0.534597
C34   C     C_3   0.099931 0.127496 0.544173 -0.279598
H9    H     H_    0.162993 0.212643 0.555160 0.159573
H10   H     H_    0.121540 0.054276 0.584610 0.156696
H11   H     H_    0.988852 0.151138 0.556322 0.264665
F3    F     F_    0.312823 0.111628 0.374569 -0.649581
O11   O     O_3   0.155291 0.848036 0.460962 -0.556439
C35   C     C_3   0.088783 0.801410 0.395231 -0.203681
H12   H     H_    0.989288 0.753497 0.415160 0.146520
H13   H     H_    0.154729 0.732647 0.361289 0.191784
H14   H     H_    0.063039 0.876741 0.357210 0.197055
O12   O     O_3   0.840359 0.628089 0.614307 -0.532087
C36   C     C_3   0.867644 0.754642 0.602727 -0.205204
H15   H     H_    0.779083 0.806195 0.631911 0.173799
H16   H     H_    0.880039 0.776278 0.539878 0.154488
H17   H     H_    0.963093 0.788927 0.629795 0.180915
O13   O     O_3   0.138721 0.621611 0.616990 -0.551915
C37   C     C_3   0.086750 0.589847 0.693241 -0.167130
H18   H     H_    0.008214 0.655291 0.718631 0.180428
H19   H     H_    0.174391 0.598599 0.731532 0.183787
H20   H     H_    0.041235 0.494725 0.696221 0.178483
F4    F     F_    0.154253 0.386850 0.307947 -0.653360
F5    F     F_    0.601929 0.299707 0.252022 -0.611808
F6    F     F_    0.878581 0.252144 0.424322 -0.581834
O14   O     O_3   0.466489 0.722633 0.277509 -0.566244
C38   C     C_3   0.592228 0.791362 0.285664 -0.229429
H21   H     H_    0.667080 0.739446 0.317134 0.128045
H22   H     H_    0.568457 0.876658 0.320908 0.196771
H23   H     H_    0.641812 0.819476 0.227934 0.209916
F7    F     F_    0.554273 0.613549 0.980635 -0.603467
O15   O     O_3   0.204925 0.369299 0.892278 -0.549514
C39   C     C_3   0.112077 0.466771 0.889625 -0.239065
H24   H     H_    0.164760 0.559459 0.894085 0.144359
H25   H     H_    0.032968 0.460607 0.940214 0.192297
H26   H     H_    0.054970 0.457317 0.836019 0.203346
O16   O     O_3   0.235558 0.370421 0.728378 -0.575469
C40   C     C_3   0.233617 0.241003 0.719993 -0.291119
H27   H     H_    0.240373 0.195112 0.776384 0.196904
H28   H     H_    0.319493 0.210622 0.676859 0.145008
H29   H     H_    0.132224 0.210245 0.698093 0.159444
O17   O     O_3   0.368266 0.322039 0.019241 -0.580221
C41   C     C_3   0.249282 0.362454 0.066308 -0.143836
H30   H     H_    0.208421 0.451243 0.048768 0.135275
H31   H     H_    0.273034 0.370563 0.128478 0.197647
H32   H     H_    0.163850 0.291834 0.061960 0.210641
O18   O     O_3   0.706930 0.428042 0.892654 -0.528151
C42   C     C_3   0.730827 0.306492 0.913400 -0.298623
H33   H     H_    0.713546 0.237390 0.865316 0.142562
H34   H     H_    0.664320 0.281372 0.966563 0.181233
H35   H     H_    0.841437 0.301015 0.927079 0.197669

loop_
_geom_bond_atom_site_label_1
_geom_bond_atom_site_label_2
_ccdc_geom_bond_type
C27   O7    A    
C10   C27   S    
O15   C39   S    
C40   H27   S    
Cu1   O5    S    
O13   C37   S    
C6    F1    S    
O17   C41   S    
C11   C19   S    
C37   H19   S    
C12   C28   S    
Cu2   N1    S    
Cu1   O1    S    
C2    C32   A    
C28   C29   A    
C3    C7    A    
C19   H2    S    
C30   C31   A    
C20   N1    A    
C22   N2    A    
C34   H10   S    
C15   C16   A    
C17   C18   S    
C18   C19   S    
C36   H16   S    
C25   H3    S    
C1    O2    A    
C20   C24   A    
C19   O11   S    
C16   C17   A    
C37   H20   S    
C34   H11   S    
C3    H5    S    
C40   H28   S    
C23   O5    A    
C21   C22   A    
C24   N2    A    
Cu1   O3    S    
C36   H15   S    
O14   C38   S    
C29   O9    S    
C23   O6    A    
C37   H18   S    
C33   H6    S    
C35   H14   S    
C24   C25   S    
C4    F5    S    
C14   H1    S    
O12   C36   S    
O9    C33   S    
C34   H9    S    
C32   O15   S    
C26   F6    S    
C25   F4    S    
C33   H7    S    
C35   H13   S    
C36   H17   S    
C8    O17   S    
C29   C30   A    
C9    F7    S    
C5    O14   S    
C18   O10   S    
C31   C32   A    
C39   H26   S    
C30   O18   S    
Cu1   Cu2   S    
C8    C9    D    
C42   H34   S    
Cu2   O4    S    
C2    O16   S    
C39   H25   S    
C38   H21   S    
C40   H29   S    
C38   H22   S    
C21   O12   S    
C1    C13   S    
C4    C10   A    
C3    C4    A    
C38   H23   S    
C7    C9    S    
C11   C17   A    
Cu2   O8    S    
C8    C31   S    
C18   F3    S    
Cu2   O2    S    
C12   O4    A    
C6    C7    A    
C16   C23   S    
C41   H32   S    
C41   H31   S    
C33   H8    S    
C26   H4    S    
C15   F2    S    
C25   C26   S    
Cu1   N2    S    
C5    C10   A    
C12   O3    A    
C35   H12   S    
C11   C13   A    
O10   C34   S    
C5    C6    A    
C21   N1    A    
C20   C26   S    
O16   C40   S    
C42   H35   S    
O18   C42   S    
O11   C35   S    
C1    O1    A    
C39   H24   S    
C41   H30   S    
C42   H33   S    
Cu1   O7    S    
C14   C15   A    
C2    C28   A    
Cu2   O6    S    
C22   O13   S    
C13   C14   A    
C27   O8    A    
