data_mof_unit_1707.cif
_audit_creation_date              2012-12-10T17:57:27-0500
_audit_creation_method            fapswitch 2.2
_symmetry_space_group_name_H-M    P1
_symmetry_Int_Tables_number       1
_space_group_crystal_system       triclinic
_cell_length_a                    9.573407
_cell_length_b                    10.860366
_cell_length_c                    13.454011
_cell_angle_alpha                 91.160639
_cell_angle_beta                  73.31038
_cell_angle_gamma                 89.723012
_cell_volume                      1339.53916931

loop_
_atom_site_label
_atom_site_type_symbol
_atom_type_description
_atom_site_fract_x
_atom_site_fract_y
_atom_site_fract_z
_atom_type_partial_charge
C1    C     C_R   0.499890 0.737595 0.500388 0.857002
C2    C     C_R   0.437978 0.561364 0.977156 0.007509
C3    C     C_R   0.482746 0.567825 0.867533 -0.028491
C4    C     C_R   0.546151 0.543211 0.029302 0.075148
C5    C     C_R   0.694872 0.540986 0.970736 0.012616
C6    C     C_R   0.735145 0.575825 0.867505 -0.262447
C7    C     C_R   0.628631 0.597314 0.818816 0.602016
C8    C     C_R   0.512048 0.524064 0.136488 -0.257506
C9    C     C_R   0.768546 0.493821 0.123333 0.398359
C10   C     C_R   0.378878 0.551106 0.811487 -0.075230
C11   C     C_R   0.630276 0.936264 0.481878 0.647451
C12   C     C_R   0.422886 0.516384 0.698999 0.819572
C13   C     C_R   0.627131 0.063409 0.485345 -0.248650
C14   C     C_R   0.494409 0.128112 0.508470 -0.225860
C15   C     C_R   0.361758 0.062432 0.533799 0.408137
C16   C     C_R   0.365748 0.934788 0.530011 -0.274612
C17   C     C_R   0.499131 0.871228 0.503194 -0.220018
C18   C     C_R   0.907627 0.594822 0.544956 0.009196
C19   C     C_R   0.054894 0.593560 0.546978 -0.055442
C20   C     C_R   0.096329 0.409103 0.449747 0.015312
C21   C     C_R   0.949071 0.409033 0.448848 0.500849
C22   C     C_R   0.498013 0.262277 0.503763 0.885112
C23   C     C_R   0.577970 0.498882 0.299708 0.841552
C24   C     C_R   0.802598 0.510238 0.016854 -0.199973
C25   C     C_R   0.621884 0.504447 0.185177 -0.131253
C26   C     C_R   0.230712 0.566699 0.865317 -0.190350
C27   C     C_R   0.188100 0.588674 0.972285 -0.086070
C28   C     C_R   0.288368 0.577940 0.028841 -0.080729
Cu1   Cu    Cu3+1 0.359340 0.499980 0.500000 0.996457
Cu2   Cu    Cu3+1 0.640660 0.500020 0.500000 1.090817
H1    H     H_    0.729755 0.110644 0.468620 0.248763
H2    H     H_    0.263776 0.885246 0.549532 0.208842
H3    H     H_    0.840798 0.674263 0.576292 0.242722
H4    H     H_    0.094586 0.668960 0.584706 0.149313
H5    H     H_    0.170119 0.337149 0.408381 0.183304
H6    H     H_    0.848493 0.591390 0.825905 0.158230
H7    H     H_    0.913817 0.498738 0.969021 0.155878
H8    H     H_    0.400115 0.524473 0.183552 0.178461
H9    H     H_    0.148177 0.564813 0.824617 0.153125
H10   H     H_    0.246837 0.589045 0.111991 0.160568
H11   H     H_    0.076497 0.612190 0.012533 0.173347
N1    N     N_R   0.147940 0.499970 0.499970 -0.198520
N2    N     N_R   0.852060 0.500060 0.499990 -0.207848
O1    O     O_R   0.381250 0.680340 0.500010 -0.612177
O2    O     O_R   0.618820 0.680370 0.500010 -0.512689
O3    O     O_R   0.323240 0.499950 0.650980 -0.584818
O4    O     O_R   0.560810 0.499980 0.650980 -0.541739
O5    O     O_R   0.381180 0.319630 0.499990 -0.543912
O6    O     O_R   0.618750 0.319660 0.499990 -0.552688
O7    O     O_R   0.439190 0.500020 0.349020 -0.603273
O8    O     O_R   0.676760 0.500050 0.349020 -0.496242
Cl1   Cl    Cl    0.915346 0.460693 0.172755 -0.574355
Cl2   Cl    Cl    0.187055 0.132303 0.575380 -0.571418
Cl3   Cl    Cl    0.902083 0.293631 0.372053 -0.528528
F1    F     F_    0.663561 0.665170 0.732300 -0.684174
F2    F     F_    0.762002 0.877875 0.455837 -0.630645

loop_
_geom_bond_atom_site_label_1
_geom_bond_atom_site_label_2
_ccdc_geom_bond_type
C20   N1    A    
C22   O5    A    
Cu2   O8    S    
C9    C24   A    
C6    C7    A    
Cu1   N1    S    
C16   H2    S    
C27   H11   S    
Cu2   O2    S    
C23   O8    A    
C19   N1    A    
C7    F1    S    
Cu1   O3    S    
C4    C8    A    
C1    O2    A    
C10   C26   A    
C23   C25   S    
C24   H7    S    
C9    C25   A    
C3    C10   A    
C9    Cl1   S    
C13   C14   A    
C8    C25   A    
C11   C13   A    
C14   C22   S    
C26   C27   A    
Cu1   Cu2   S    
C5    C24   A    
C8    H8    S    
C22   O6    A    
C5    C6    A    
C2    C4    A    
C10   C12   S    
Cu2   O6    S    
C6    H6    S    
C2    C3    A    
C3    C7    A    
Cu1   O7    S    
C12   O4    A    
Cu1   O1    S    
C21   Cl3   S    
Cu2   N2    S    
C18   H3    S    
C26   H9    S    
C28   H10   S    
Cu1   O5    S    
C15   C16   A    
C15   Cl2   S    
Cu2   O4    S    
C4    C5    A    
C20   C21   A    
C12   O3    A    
C18   C19   A    
C27   C28   A    
C14   C15   A    
C11   C17   A    
C23   O7    A    
C2    C28   A    
C1    O1    A    
C18   N2    A    
C20   H5    S    
C1    C17   S    
C13   H1    S    
C21   N2    A    
C11   F2    S    
C16   C17   A    
C19   H4    S    
