data_mof_unit_3075.cif
_audit_creation_date              2012-12-10T22:11:15-0500
_audit_creation_method            fapswitch 2.2
_symmetry_space_group_name_H-M    P1
_symmetry_Int_Tables_number       1
_space_group_crystal_system       triclinic
_cell_length_a                    12.111053
_cell_length_b                    12.301395
_cell_length_c                    22.946511
_cell_angle_alpha                 90.926368
_cell_angle_beta                  90.863533
_cell_angle_gamma                 90.914125
_cell_volume                      3417.3529046

loop_
_atom_site_label
_atom_site_type_symbol
_atom_type_description
_atom_site_fract_x
_atom_site_fract_y
_atom_site_fract_z
_atom_type_partial_charge
C1    C     C_R   0.657659 0.998506 0.579153 0.870265
C2    C     C_R   0.342342 0.001493 0.420847 0.870264
C3    C     C_R   0.892789 0.776450 0.145378 -0.189573
C4    C     C_R   0.107211 0.223541 0.854626 -0.189572
C5    C     C_R   0.087576 0.892033 0.172591 -0.157720
C6    C     C_R   0.912421 0.107973 0.827405 -0.157727
C7    C     C_R   0.087990 0.810682 0.130389 -0.186673
C8    C     C_R   0.912007 0.189326 0.869606 -0.186676
C9    C     C_R   0.901744 0.128474 0.174775 -0.150494
C10   C     C_R   0.098254 0.871527 0.825227 -0.150486
C11   C     C_R   0.903575 0.211529 0.135216 -0.204933
C12   C     C_R   0.096422 0.788475 0.864787 -0.204939
C13   C     C_R   0.146753 0.908098 0.302435 -0.184218
C14   C     C_R   0.853255 0.091902 0.697561 -0.184214
C15   C     C_R   0.229586 0.907279 0.344639 -0.190738
C16   C     C_R   0.770422 0.092722 0.655356 -0.190740
C17   C     C_R   0.838653 0.101221 0.303536 -0.184384
C18   C     C_R   0.161344 0.898778 0.696463 -0.184376
C19   C     C_R   0.759646 0.099550 0.346344 -0.189183
C20   C     C_R   0.240351 0.900449 0.653655 -0.189180
C21   C     C_3   0.992671 0.007325 0.247887 -0.101258
C22   C     C_3   0.007328 0.992673 0.752113 -0.101258
C23   C     C_R   0.654019 0.001757 0.420410 0.870770
C24   C     C_R   0.345982 0.998243 0.579591 0.870772
C25   C     C_R   0.089648 0.004568 0.290983 0.124086
C26   C     C_R   0.910352 0.995431 0.709016 0.124085
C27   C     C_R   0.254842 0.001785 0.377169 -0.026042
C28   C     C_R   0.745161 0.998215 0.622830 -0.026045
C29   C     C_R   0.893594 0.005276 0.287795 0.121796
C30   C     C_R   0.106407 0.994722 0.712206 0.121792
C31   C     C_R   0.735546 0.002756 0.374993 -0.025184
C32   C     C_R   0.264456 0.997243 0.625008 -0.025189
C33   C     C_R   0.995524 0.106581 0.209056 0.100603
C34   C     C_R   0.004476 0.893417 0.790945 0.100595
C35   C     C_R   0.998905 0.275930 0.129039 -0.105584
C36   C     C_R   0.001098 0.724066 0.870960 -0.105580
C37   C     C_R   0.991249 0.912986 0.204127 0.121653
C38   C     C_R   0.008750 0.087013 0.795872 0.121653
C39   C     C_R   0.990953 0.751478 0.117294 -0.020309
C40   C     C_R   0.009046 0.248522 0.882706 -0.020310
C41   C     C_R   0.992929 0.663001 0.074940 0.879682
C42   C     C_R   0.007070 0.336999 0.925059 0.879699
C43   C     C_R   0.999174 0.355366 0.082664 0.899567
C44   C     C_R   0.000827 0.644632 0.917336 0.899600
C45   C     C_R   0.111458 0.096866 0.326802 -0.155700
C46   C     C_R   0.888540 0.903133 0.673198 -0.155702
C47   C     C_R   0.194773 0.096254 0.368513 -0.189965
C48   C     C_R   0.805224 0.903745 0.631487 -0.189956
C49   C     C_R   0.869689 0.908913 0.317841 -0.159240
C50   C     C_R   0.130316 0.091087 0.682162 -0.159238
C51   C     C_R   0.790244 0.907264 0.360347 -0.198239
C52   C     C_R   0.209762 0.092736 0.639657 -0.198238
C53   C     C_R   0.092527 0.168873 0.201257 -0.245547
C54   C     C_R   0.907478 0.831116 0.798740 -0.245546
C55   C     C_R   0.093304 0.257553 0.164413 -0.028593
C56   C     C_R   0.906706 0.742430 0.835580 -0.028610
C57   C     C_R   0.892464 0.857427 0.187877 -0.188349
C58   C     C_R   0.107535 0.142564 0.812127 -0.188347
H1    H     H_    0.210977 0.169230 0.394501 0.158086
H2    H     H_    0.789016 0.830768 0.605502 0.158088
H3    H     H_    0.914506 0.835115 0.309027 0.141603
H4    H     H_    0.085502 0.164885 0.690978 0.141603
H5    H     H_    0.168374 0.149932 0.224034 0.173484
H6    H     H_    0.831633 0.850052 0.775960 0.173506
H7    H     H_    0.814094 0.877169 0.206987 0.144920
H8    H     H_    0.185906 0.122815 0.793021 0.144917
H9    H     H_    0.162979 0.938457 0.181177 0.148514
H10   H     H_    0.837017 0.061554 0.818816 0.148510
H11   H     H_    0.827162 0.079345 0.177960 0.144349
H12   H     H_    0.172833 0.920659 0.822043 0.144347
H13   H     H_    0.126454 0.832247 0.280058 0.147533
H14   H     H_    0.873558 0.167753 0.719936 0.147531
H15   H     H_    0.859259 0.178918 0.284854 0.147081
H16   H     H_    0.140735 0.821081 0.715144 0.147081
H17   H     H_    0.773789 0.831951 0.382688 0.158608
H18   H     H_    0.226220 0.168050 0.617317 0.158609
H19   H     H_    0.816303 0.733238 0.134747 0.161073
H20   H     H_    0.183698 0.266745 0.865262 0.161076
H21   H     H_    0.164155 0.794606 0.107892 0.160517
H22   H     H_    0.835841 0.205409 0.892100 0.160518
H23   H     H_    0.830486 0.223452 0.108427 0.170621
H24   H     H_    0.169507 0.776557 0.891579 0.170620
H25   H     H_    0.273542 0.832572 0.351883 0.159285
H26   H     H_    0.726472 0.167430 0.648111 0.159288
H27   H     H_    0.718728 0.174529 0.357577 0.161234
H28   H     H_    0.281268 0.825469 0.642421 0.161236
H29   H     H_    0.064273 0.170269 0.321893 0.140318
H30   H     H_    0.935721 0.829729 0.678109 0.140316
O1    O     O_R   0.621380 0.090460 0.561410 -0.626585
O2    O     O_R   0.378620 0.909540 0.438590 -0.626584
O3    O     O_R   0.617150 0.909540 0.438590 -0.630050
O4    O     O_R   0.382850 0.090460 0.561410 -0.630048
O5    O     O_R   0.619720 0.093230 0.440890 -0.626316
O6    O     O_R   0.380280 0.906770 0.559110 -0.626314
O7    O     O_R   0.618800 0.906770 0.559110 -0.626770
O8    O     O_R   0.381200 0.093230 0.440890 -0.626770
O9    O     O_R   0.087590 0.627480 0.058790 -0.615208
O10   O     O_R   0.912410 0.372520 0.941210 -0.615207
O11   O     O_R   0.905660 0.383870 0.059980 -0.635025
O12   O     O_R   0.094340 0.616130 0.940020 -0.635029
O13   O     O_R   0.092570 0.390420 0.063230 -0.594636
O14   O     O_R   0.907430 0.609580 0.936770 -0.594640
O15   O     O_R   0.900680 0.620930 0.055550 -0.631536
O16   O     O_R   0.099320 0.379070 0.944450 -0.631534
Zn1   Zn    Zn3+2 0.501730 0.123520 0.501540 0.950372
Zn2   Zn    Zn3+2 0.498270 0.876480 0.498460 0.950374
Zn3   Zn    Zn3+2 0.125690 0.504390 0.002180 0.986939
Zn4   Zn    Zn3+2 0.874310 0.495610 0.997820 0.986928
C59   C     C_2   0.191728 0.331093 0.166448 0.922272
O17   O     O_2   0.284402 0.293183 0.169127 -0.637643
O18   O     O_R   0.178293 0.443839 0.167962 -0.798722
H31   H     H_    0.251335 0.485265 0.169896 0.339165
C60   C     C_2   0.808304 0.668863 0.833529 0.922281
O19   O     O_2   0.715624 0.706743 0.830819 -0.637656
O20   O     O_R   0.821769 0.556124 0.832034 -0.798735
H32   H     H_    0.748740 0.514679 0.830091 0.339173

loop_
_geom_bond_atom_site_label_1
_geom_bond_atom_site_label_2
_ccdc_geom_bond_type
C16   C28   A    
C9    C33   A    
O8    Zn1   S    
O13   Zn3   S    
C23   O3    A    
C5    C37   A    
C53   H5    S    
C17   C29   A    
O18   H31   S    
C5    H9    S    
C19   C31   A    
C43   O13   A    
C39   C41   S    
C29   C49   A    
C11   H23   S    
O11   Zn4   S    
C45   H29   S    
C43   O11   A    
C42   O10   A    
C21   C33   S    
O20   H32   S    
C22   C38   S    
C16   H26   S    
O10   Zn4   S    
C2    O2    A    
C32   C52   A    
O5    Zn1   S    
C38   C58   A    
C11   C35   A    
C58   H8    S    
O6    Zn2   S    
C4    C40   A    
C49   C51   A    
C20   H28   S    
C1    C28   S    
C50   C52   A    
C56   C60   S    
C6    C38   A    
O14   Zn4   S    
O15   Zn4   S    
C18   C30   A    
C12   C36   A    
C35   C43   S    
C18   C20   A    
C45   C47   A    
C30   C50   A    
C3    C39   A    
C18   H16   S    
C55   C59   S    
C17   H15   S    
O3    Zn2   S    
C13   C25   A    
C24   O4    A    
C48   H2    S    
C46   H30   S    
C53   C55   A    
C33   C53   A    
C22   C34   S    
C46   C48   A    
C49   H3    S    
C35   C55   A    
O2    Zn2   S    
C31   C51   A    
C5    C7    A    
C44   O14   A    
C15   H25   S    
C13   H13   S    
C19   H27   S    
C21   C29   S    
C2    O8    A    
C23   O5    A    
C23   C31   S    
C24   C32   S    
C4    H20   S    
C36   C56   A    
O7    Zn2   S    
C24   O6    A    
C15   C27   A    
C1    O7    A    
C12   H24   S    
C10   C34   A    
C14   C26   A    
C9    C11   A    
C2    C27   S    
C10   C12   A    
C10   H12   S    
C34   C54   A    
C13   C15   A    
C9    H11   S    
C14   C16   A    
C36   C44   S    
O1    Zn1   S    
C3    H19   S    
C25   C45   A    
C51   H17   S    
C7    H21   S    
C60   O19   D    
C20   C32   A    
C27   C47   A    
C21   C25   S    
C28   C48   A    
O12   Zn3   S    
C1    O1    A    
C22   C30   S    
C14   H14   S    
C57   H7    S    
C40   C42   S    
C52   H18   S    
C42   O16   A    
C6    C8    A    
C54   C56   A    
C59   O18   S    
C59   O17   D    
C44   O12   A    
C54   H6    S    
C50   H4    S    
C6    H10   S    
C17   C19   A    
C3    C57   A    
C41   O9    A    
C26   C46   A    
C47   H1    S    
O9    Zn3   S    
C41   O15   A    
O4    Zn1   S    
C21   C37   S    
C22   C26   S    
C4    C58   A    
C8    H22   S    
C7    C39   A    
C8    C40   A    
O16   Zn3   S    
C37   C57   A    
C60   O20   S    
