data_mof_unit_478.cif
_audit_creation_date              2012-12-11T15:18:31-0500
_audit_creation_method            fapswitch 2.2
_symmetry_space_group_name_H-M    P1
_symmetry_Int_Tables_number       1
_space_group_crystal_system       triclinic
_cell_length_a                    6.963111
_cell_length_b                    19.780333
_cell_length_c                    23.800908
_cell_angle_alpha                 93.373599
_cell_angle_beta                  91.222493
_cell_angle_gamma                 88.024765
_cell_volume                      3269.92444974

loop_
_atom_site_label
_atom_site_type_symbol
_atom_type_description
_atom_site_fract_x
_atom_site_fract_y
_atom_site_fract_z
_atom_type_partial_charge
O1    O     O_R   0.620100 0.812200 0.810870 -0.548067
O2    O     O_R   0.379900 0.187800 0.189130 -0.552880
O3    O     O_R   0.296960 0.671650 0.794750 -0.527381
O4    O     O_R   0.703040 0.328350 0.205250 -0.536505
O5    O     O_R   0.120160 0.687800 0.689130 -0.521236
O6    O     O_R   0.879840 0.312200 0.310870 -0.512650
C1    C     C_R   0.469587 0.645396 0.803160 0.816498
C2    C     C_R   0.530377 0.353520 0.195760 0.846165
O7    O     O_R   0.290810 0.810670 0.817290 -0.516913
O8    O     O_R   0.709190 0.189330 0.182710 -0.529004
O9    O     O_R   0.113980 0.827820 0.711840 -0.531491
O10   O     O_R   0.886020 0.172180 0.288160 -0.528896
C3    C     C_R   0.458700 0.831921 0.833972 0.748424
C4    C     C_R   0.541730 0.167635 0.166175 0.780344
O11   O     O_R   0.626290 0.672180 0.788160 -0.528180
O12   O     O_R   0.373710 0.327820 0.211840 -0.553632
O13   O     O_3   0.451520 0.755460 0.715370 -0.378323
O14   O     O_3   0.548480 0.244540 0.284630 -0.370314
V1    V     V_3+5 0.179200 0.748980 0.756420 1.510561
V2    V     V_3+5 0.820800 0.251020 0.243580 1.474696
O15   O     O_R   0.783880 0.828350 0.705250 -0.547622
O16   O     O_R   0.216120 0.171650 0.294750 -0.541093
C5    C     C_R   0.948857 0.852992 0.694874 0.729169
C6    C     C_R   0.051455 0.146988 0.305133 0.730164
O17   O     O_R   0.790030 0.689320 0.682700 -0.548263
O18   O     O_R   0.209970 0.310680 0.317300 -0.558297
C7    C     C_R   0.959242 0.667446 0.666386 0.740399
C8    C     C_R   0.040736 0.332281 0.333883 0.741056
V3    V     V_3+5 0.678400 0.751010 0.743570 1.442917
V4    V     V_3+5 0.321600 0.248990 0.256430 1.412933
O19   O     O_3   0.955950 0.744540 0.784620 -0.365837
O20   O     O_3   0.044050 0.255460 0.215380 -0.383406
C9    C     C_R   0.886337 0.433783 0.385391 0.446649
C10   C     C_R   0.113595 0.563223 0.617433 0.444387
C11   C     C_R   0.029745 0.381729 0.383230 -0.192485
C12   C     C_R   0.968708 0.615270 0.619022 -0.192999
C13   C     C_R   0.164698 0.377968 0.427717 -0.267267
C14   C     C_R   0.827959 0.616042 0.576000 -0.265950
C15   C     C_R   0.154701 0.424032 0.475133 0.033205
C16   C     C_R   0.835441 0.568521 0.529765 0.028634
C17   C     C_R   0.002012 0.473125 0.478813 -0.038534
C18   C     C_R   0.988263 0.519487 0.526273 -0.044231
C19   C     C_R   0.864700 0.476741 0.434522 -0.019235
C20   C     C_R   0.127956 0.517061 0.570013 -0.007426
C21   C     C_R   0.292767 0.421096 0.519221 0.456603
C22   C     C_R   0.695160 0.570193 0.486269 0.457981
C23   C     C_R   0.279892 0.468432 0.565717 -0.231038
C24   C     C_R   0.709572 0.523880 0.439529 -0.231003
H1    H     H_    0.391425 0.467841 0.598074 0.161377
H2    H     H_    0.597588 0.524814 0.407258 0.165859
C25   C     C_R   0.943349 0.915835 0.664007 -0.157140
C26   C     C_R   0.062330 0.085429 0.337743 -0.138421
C27   C     C_R   0.820761 0.031522 0.657778 0.483779
C28   C     C_R   0.226229 0.976878 0.350182 0.483670
C29   C     C_R   0.847254 0.973199 0.687749 -0.252229
C30   C     C_R   0.174877 0.030441 0.316668 -0.207136
C31   C     C_R   0.014782 0.917065 0.609296 -0.191978
C32   C     C_R   0.998388 0.086347 0.393477 -0.183138
C33   C     C_R   0.000620 0.976937 0.578538 0.026615
C34   C     C_R   0.064399 0.036135 0.430968 0.037086
C35   C     C_R   0.898881 0.033968 0.603603 -0.049809
C36   C     C_R   0.178248 0.980742 0.407681 -0.037665
C37   C     C_R   0.074858 0.981049 0.522785 -0.080813
C38   C     C_R   0.022130 0.038373 0.490327 -0.077110
C39   C     C_R   0.939702 0.096727 0.519817 0.445347
C40   C     C_R   0.207890 0.931809 0.499046 0.436019
C41   C     C_R   0.876034 0.093118 0.574610 -0.252606
C42   C     C_R   0.250462 0.930784 0.442225 -0.233105
H3    H     H_    0.808468 0.138223 0.594615 0.182121
H4    H     H_    0.347279 0.890762 0.425643 0.185751
H5    H     H_    0.901074 0.127524 0.406037 0.187048
H6    H     H_    0.068443 0.869383 0.590678 0.179391
H7    H     H_    0.228261 0.029927 0.274173 0.127429
H8    H     H_    0.788581 0.972341 0.729523 0.135844
C43   C     C_R   0.495648 0.579888 0.830671 -0.337616
C44   C     C_R   0.505542 0.414186 0.162250 -0.330128
C45   C     C_R   0.662369 0.469562 0.836315 0.442149
C46   C     C_R   0.431216 0.534428 0.157222 0.459297
C47   C     C_R   0.627081 0.529572 0.808337 0.264436
C48   C     C_R   0.474799 0.478471 0.189161 0.264959
C49   C     C_R   0.410407 0.570463 0.882733 0.454551
C50   C     C_R   0.483817 0.405842 0.103350 0.425041
C51   C     C_R   0.484319 0.518295 0.917266 -0.112518
C52   C     C_R   0.475502 0.463655 0.068821 -0.120308
C53   C     C_R   0.586686 0.463274 0.890421 -0.258746
C54   C     C_R   0.435978 0.528276 0.097309 -0.268597
C55   C     C_R   0.466503 0.520382 0.977467 -0.130588
C56   C     C_R   0.503541 0.460571 0.008090 -0.133977
C57   C     C_R   0.585607 0.402900 0.976902 0.406573
C58   C     C_R   0.442466 0.583203 0.008322 0.423683
C59   C     C_R   0.618436 0.403798 0.919018 0.419512
C60   C     C_R   0.407191 0.586410 0.065955 0.407286
C61   C     C_R   0.668495 0.062853 0.111225 0.423879
C62   C     C_R   0.341891 0.939474 0.886359 0.418796
C63   C     C_R   0.534517 0.118072 0.116835 -0.189640
C64   C     C_R   0.467368 0.881757 0.882850 -0.181755
C65   C     C_R   0.390545 0.125859 0.075428 -0.268122
C66   C     C_R   0.605600 0.872197 0.925577 -0.246868
C67   C     C_R   0.376268 0.079767 0.028289 0.026994
C68   C     C_R   0.619259 0.918477 0.972527 0.025778
C69   C     C_R   0.505614 0.023109 0.023600 -0.059066
C70   C     C_R   0.491915 0.975756 0.976719 -0.056718
C71   C     C_R   0.648482 0.013597 0.065891 -0.043455
C72   C     C_R   0.351545 0.985870 0.933954 -0.038887
C73   C     C_R   0.231907 0.088788 0.986618 0.444149
C74   C     C_R   0.757875 0.908385 0.015512 0.452944
C75   C     C_R   0.223883 0.042394 0.939278 -0.265799
C76   C     C_R   0.768524 0.954940 0.062094 -0.245333
O21   O     O_3   0.779789 0.446314 0.337224 -0.550803
C77   C     C_3   0.856067 0.502364 0.311737 -0.191452
H9    H     H_    0.874172 0.489028 0.266188 0.168879
H10   H     H_    0.997992 0.519023 0.328988 0.064989
H11   H     H_    0.753345 0.546397 0.316330 0.182858
O22   O     O_3   0.241956 0.556765 0.662082 -0.579241
C78   C     C_3   0.149669 0.526063 0.705816 -0.280353
H12   H     H_    0.058581 0.564053 0.729628 0.201906
H13   H     H_    0.257697 0.507806 0.736554 0.136750
H14   H     H_    0.066928 0.481233 0.690322 0.140976
O23   O     O_3   0.693111 0.345617 0.891204 -0.519970
C79   C     C_3   0.539934 0.303045 0.875711 -0.172105
H15   H     H_    0.431052 0.328944 0.848739 0.110402
H16   H     H_    0.470445 0.284614 0.913334 0.165186
H17   H     H_    0.598153 0.258047 0.850839 0.149979
O24   O     O_3   0.365759 0.649319 0.092528 -0.514871
C80   C     C_3   0.177344 0.670913 0.077041 -0.143543
H18   H     H_    0.070923 0.631103 0.082410 0.081039
H19   H     H_    0.170458 0.686976 0.033075 0.174015
H20   H     H_    0.134627 0.715604 0.104878 0.159710
O25   O     O_3   0.456404 0.340258 0.082323 -0.522623
C81   C     C_3   0.263396 0.334118 0.065278 -0.188296
H21   H     H_    0.241783 0.281151 0.049247 0.173369
H22   H     H_    0.165714 0.345439 0.101320 0.103188
H23   H     H_    0.226828 0.367200 0.030240 0.122236
O26   O     O_3   0.259224 0.613471 0.899852 -0.525550
C82   C     C_3   0.086707 0.578941 0.890181 -0.182462
H24   H     H_    0.073388 0.538743 0.920513 0.122324
H25   H     H_    0.074158 0.556957 0.846095 0.150998
H26   H     H_    0.964415 0.615782 0.896493 0.148258
O27   O     O_3   0.504395 0.489899 0.246594 -0.542383
C83   C     C_3   0.357971 0.462546 0.277524 -0.151617
H27   H     H_    0.412572 0.415141 0.295681 0.184462
H28   H     H_    0.222217 0.453467 0.252953 0.075086
H29   H     H_    0.324565 0.498496 0.313740 0.133680
O28   O     O_3   0.744385 0.541893 0.764096 -0.559565
C84   C     C_3   0.642359 0.534596 0.712478 -0.212732
H30   H     H_    0.746212 0.528994 0.677899 0.135896
H31   H     H_    0.553469 0.580798 0.705303 0.200770
H32   H     H_    0.556595 0.488258 0.708815 0.122034
O29   O     O_3   0.803756 0.423567 0.816610 -0.518426
C85   C     C_3   0.736660 0.385530 0.768474 -0.122947
H33   H     H_    0.797845 0.404920 0.730158 0.126448
H34   H     H_    0.576864 0.384214 0.764207 0.075044
H35   H     H_    0.790984 0.332395 0.771001 0.158864
O30   O     O_3   0.404414 0.597178 0.185477 -0.505199
C86   C     C_3   0.213856 0.603990 0.204883 -0.116692
H36   H     H_    0.204132 0.583444 0.246977 0.122512
H37   H     H_    0.106425 0.579824 0.175359 0.083414
H38   H     H_    0.173632 0.658744 0.209662 0.151722
O31   O     O_3   0.646722 0.344697 0.001677 -0.511060
C87   C     C_3   0.840918 0.350000 0.017735 -0.145777
H39   H     H_    0.864508 0.395313 0.046789 0.090245
H40   H     H_    0.933235 0.350850 0.980237 0.144600
H41   H     H_    0.883509 0.304387 0.040540 0.155399
O32   O     O_3   0.474154 0.643477 0.983700 -0.524431
C88   C     C_3   0.668747 0.659699 0.992457 -0.182015
H42   H     H_    0.767919 0.616897 0.978571 0.089669
H43   H     H_    0.698305 0.675048 0.037422 0.164042
H44   H     H_    0.699286 0.703323 0.967188 0.167501
O33   O     O_3   0.808508 0.054442 0.152681 -0.561188
C89   C     C_3   0.983292 0.078635 0.134040 -0.196886
H45   H     H_    0.966869 0.131111 0.119660 0.147260
H46   H     H_    0.044793 0.044677 0.099711 0.123287
H47   H     H_    0.088464 0.079661 0.169728 0.152095
O34   O     O_3   0.205191 0.949244 0.844240 -0.557087
C90   C     C_3   0.288596 0.985008 0.801881 -0.255057
H48   H     H_    0.408717 0.955025 0.781412 0.119543
H49   H     H_    0.339521 0.035113 0.818685 0.138358
H50   H     H_    0.177726 0.994537 0.768893 0.167763
H51   H     H_    0.289499 0.168523 0.080242 0.174986
H52   H     H_    0.701768 0.827941 0.922149 0.174087
O35   O     O_3   0.111122 0.146353 0.991116 -0.565858
C91   C     C_3   0.917462 0.130537 0.979558 -0.267545
H53   H     H_    0.880210 0.080646 0.994870 0.131301
H54   H     H_    0.884955 0.132121 0.933773 0.160982
H55   H     H_    0.823766 0.169635 0.001607 0.185191
O36   O     O_3   0.875758 0.850603 0.014079 -0.562317
C92   C     C_3   0.056202 0.866900 0.993824 -0.264686
H56   H     H_    0.128127 0.905024 0.022613 0.142302
H57   H     H_    0.042378 0.885301 0.950583 0.159349
H58   H     H_    0.149966 0.820362 0.991543 0.183246
H59   H     H_    0.118396 0.051018 0.906232 0.173900
H60   H     H_    0.872153 0.944529 0.095292 0.176154
H61   H     H_    0.277157 0.338709 0.425241 0.186552
H62   H     H_    0.714306 0.654888 0.578191 0.188905
O37   O     O_3   0.448304 0.375499 0.513819 -0.549921
C93   C     C_3   0.459936 0.333953 0.560095 -0.274521
H63   H     H_    0.316708 0.316142 0.571698 0.116967
H64   H     H_    0.530910 0.360526 0.596911 0.134444
H65   H     H_    0.550565 0.288294 0.548313 0.184449
O38   O     O_3   0.537044 0.614340 0.491133 -0.551453
C94   C     C_3   0.558498 0.667140 0.454690 -0.258260
H66   H     H_    0.550570 0.648145 0.409803 0.133232
H67   H     H_    0.695170 0.693758 0.463662 0.136238
H68   H     H_    0.438585 0.704891 0.461679 0.183753
O39   O     O_3   0.724020 0.087266 0.682822 -0.557225
C95   C     C_3   0.524991 0.079412 0.673635 -0.293002
H69   H     H_    0.474803 0.032887 0.692140 0.133064
H70   H     H_    0.486877 0.078760 0.627952 0.135298
H71   H     H_    0.446880 0.123403 0.694621 0.170588
O40   O     O_3   0.342864 0.924160 0.328246 -0.557607
C96   C     C_3   0.229269 0.880467 0.293600 -0.247431
H72   H     H_    0.173355 0.905820 0.255782 0.148621
H73   H     H_    0.108612 0.860975 0.317311 0.136727
H74   H     H_    0.320395 0.836178 0.278697 0.173955
O41   O     O_3   0.927053 0.159608 0.497480 -0.565044
C97   C     C_3   0.102474 0.192043 0.508278 -0.278439
H75   H     H_    0.224473 0.163117 0.487735 0.149401
H76   H     H_    0.131744 0.200087 0.554312 0.135460
H77   H     H_    0.092303 0.242593 0.490347 0.175464
O42   O     O_3   0.308768 0.885911 0.530995 -0.565146
C98   C     C_3   0.469492 0.918054 0.556220 -0.246450
H78   H     H_    0.424765 0.961039 0.585815 0.135827
H79   H     H_    0.566867 0.935749 0.524000 0.143681
H80   H     H_    0.552541 0.880863 0.581009 0.169631

loop_
_geom_bond_atom_site_label_1
_geom_bond_atom_site_label_2
_ccdc_geom_bond_type
C21   O37   S    
C82   H26   S    
C51   C55   A    
C55   C56   A    
C6    C26   S    
C69   C70   A    
O11   V3    S    
C86   H37   S    
O13   V3    S    
C17   C18   A    
C40   C42   A    
C97   H77   S    
O4    C2    A    
V1    O19   S    
C61   C71   A    
C84   H30   S    
C53   C59   A    
C82   H24   S    
C23   H1    S    
O39   C95   S    
C16   C22   A    
C73   C75   A    
C61   O33   S    
C88   H42   S    
C43   C47   A    
C89   H46   S    
O16   C6    A    
O32   C88   S    
C11   C13   A    
C52   C54   A    
C39   O41   S    
C98   H80   S    
O3    C1    A    
C60   O24   S    
C70   C72   A    
C95   H70   S    
C32   H5    S    
C65   H51   S    
C89   H45   S    
O12   V4    S    
C78   H12   S    
C2    C44   S    
C34   C36   A    
C94   H66   S    
C21   C23   A    
O7    C3    A    
O34   C90   S    
C92   H58   S    
C40   O42   S    
C65   C67   A    
O5    C7    A    
C29   H8    S    
C27   C35   A    
O7    V1    S    
O6    C8    A    
C90   H48   S    
C8    C11   S    
O8    V2    S    
O38   C94   S    
C39   C41   A    
C85   H35   S    
C64   C66   A    
C80   H20   S    
C27   O39   S    
C83   H29   S    
O3    V1    S    
C71   C76   A    
C25   C31   A    
O18   C8    A    
C57   C59   A    
C19   C24   A    
C10   C12   A    
C51   C53   A    
C20   C23   A    
C15   C21   A    
C46   C54   A    
C16   C18   A    
C37   C40   A    
C62   C72   A    
C2    O12   A    
C37   C38   A    
C86   H38   S    
V3    O19   S    
C17   C19   A    
C88   H43   S    
C18   C20   A    
C94   H67   S    
C93   H65   S    
C68   C70   A    
O42   C98   S    
C84   H31   S    
C79   H16   S    
C34   C38   A    
C57   O31   S    
C90   H50   S    
C28   C30   A    
C27   C29   A    
O17   V3    S    
C58   C60   A    
C67   C73   A    
C22   C24   A    
C33   C35   A    
C3    C64   S    
C26   C30   A    
C9    C19   A    
O33   C89   S    
C52   C56   A    
C49   O26   S    
C10   C20   A    
C83   H27   S    
C74   O36   S    
C90   H49   S    
O8    C4    A    
C45   O29   S    
C95   H69   S    
C43   C49   A    
C1    C43   S    
C1    O11   A    
C28   C36   A    
C25   C29   A    
C78   H13   S    
O35   C91   S    
O15   V3    S    
C77   H9    S    
C58   O32   S    
C10   O22   S    
C41   H3    S    
C91   H55   S    
C13   H61   S    
C81   H22   S    
O41   C97   S    
C87   H41   S    
C96   H72   S    
C98   H78   S    
C9    C11   A    
C85   H34   S    
C35   C41   A    
C5    C25   S    
O31   C87   S    
O27   C83   S    
C78   H14   S    
O9    V1    S    
O10   V2    S    
O1    V3    S    
C45   C47   A    
C97   H75   S    
C50   O25   S    
C62   C64   A    
C24   H2    S    
C46   C48   A    
C77   H11   S    
O30   C86   S    
C26   C32   A    
C62   O34   S    
O14   V4    S    
C93   H64   S    
C96   H73   S    
C98   H79   S    
O18   V4    S    
C88   H44   S    
C50   C52   A    
O15   C5    A    
C80   H18   S    
C94   H68   S    
C59   O23   S    
C93   H63   S    
C81   H23   S    
O1    C3    A    
C66   H52   S    
C4    C63   S    
C84   H32   S    
C79   H15   S    
O25   C81   S    
V2    O20   S    
C82   H25   S    
C63   C65   A    
V4    O20   S    
C30   H7    S    
O16   V4    S    
C91   H54   S    
C67   C69   A    
C68   C74   A    
C46   O30   S    
C44   C48   A    
C83   H28   S    
O28   C84   S    
C97   H76   S    
C49   C51   A    
O23   C79   S    
C79   H17   S    
O22   C78   S    
O26   C82   S    
O5    V1    S    
C7    C12   S    
O17   C7    A    
C48   O27   S    
O6    V2    S    
O10   C6    A    
C33   C37   A    
C47   O28   S    
C36   C42   A    
O2    V4    S    
C38   C39   A    
C12   C14   A    
C81   H21   S    
C92   H56   S    
C13   C15   A    
C54   C60   A    
O29   C85   S    
C87   H39   S    
C14   C16   A    
C95   H71   S    
C61   C63   A    
C74   C76   A    
C44   C50   A    
C22   O38   S    
O9    C5    A    
O13   V1    S    
O14   V2    S    
C31   H6    S    
O2    C4    A    
C66   C68   A    
C77   H10   S    
C92   H57   S    
C31   C33   A    
C45   C53   A    
O37   C93   S    
O4    V2    S    
C14   H62   S    
C28   O40   S    
C96   H74   S    
C9    O21   S    
C56   C57   A    
C15   C17   A    
C69   C71   A    
O40   C96   S    
C55   C58   A    
C75   H59   S    
C86   H36   S    
C80   H19   S    
C42   H4    S    
C85   H33   S    
C76   H60   S    
C73   O35   S    
O36   C92   S    
O21   C77   S    
C32   C34   A    
C72   C75   A    
C91   H53   S    
C87   H40   S    
O24   C80   S    
C89   H47   S    
