data_mof_unit_1856.cif
_audit_creation_date              2012-10-26T19:20:14-0400
_audit_creation_method            fapswitch 2.2
_symmetry_space_group_name_H-M    P1
_symmetry_Int_Tables_number       1
_space_group_crystal_system       triclinic
_cell_length_a                    15.86368
_cell_length_b                    10.918187
_cell_length_c                    9.803068
_cell_angle_alpha                 90.910689
_cell_angle_beta                  89.811564
_cell_angle_gamma                 89.573294
_cell_volume                      1697.64569772

loop_
_atom_site_label
_atom_site_type_symbol
_atom_type_description
_atom_site_fract_x
_atom_site_fract_y
_atom_site_fract_z
_atom_type_partial_charge
C1    C     C_R   0.503100 0.265903 0.499206 0.555425
C2    C     C_2   0.479561 0.865483 0.502478 -0.006879
C3    C     C_2   0.498581 0.064998 0.389516 -0.172321
C4    C     C_R   0.340138 0.500234 0.500158 0.549058
C5    C     C_2   0.513200 0.134491 0.499854 -0.124965
C6    C     C_2   0.503779 0.593187 0.927827 0.112706
C7    C     C_2   0.473568 0.585263 0.072407 0.137454
C8    C     C_R   0.495902 0.734268 0.500835 0.560292
C9    C     C_R   0.659842 0.500083 0.499797 0.547852
C10   C     C_3   0.973027 0.387918 0.527493 0.047762
C11   C     C_3   0.028801 0.420534 0.404343 0.041474
C12   C     C_3   0.083172 0.500944 0.498939 0.037417
C13   C     C_1   0.250445 0.500583 0.500378 -0.040414
C14   C     C_1   0.749502 0.500072 0.499275 -0.044778
C15   C     C_3   0.028078 0.468124 0.623246 -0.117224
C16   C     C_3   0.063017 0.332449 0.295295 -0.404719
C17   C     C_3   0.550209 0.706489 0.887784 -0.331905
C18   C     C_3   0.413780 0.684040 0.121386 -0.342311
C19   C     C_3   0.567847 0.415784 0.108042 -0.091834
C20   C     C_3   0.651344 0.482326 0.081438 -0.396438
C21   C     C_3   0.938016 0.261723 0.561282 -0.272318
C22   C     C_3   0.006950 0.173383 0.606826 -0.445410
C23   C     C_3   0.970833 0.580952 0.594195 -0.117510
C24   C     C_3   0.938736 0.565594 0.235265 -0.406429
C25   C     C_3   0.061891 0.739758 0.439453 -0.272156
C26   C     C_3   0.992877 0.837765 0.438074 -0.445358
C27   C     C_3   0.422527 0.916156 0.614588 -0.398882
C28   C     C_3   0.916737 0.499825 0.498631 0.037517
C29   C     C_3   0.026875 0.612891 0.470162 0.047835
C30   C     C_3   0.972048 0.532426 0.375530 0.041952
C31   C     C_1   0.174910 0.500819 0.499968 -0.071383
C32   C     C_1   0.825020 0.500016 0.498970 -0.074077
C33   C     C_2   0.507050 0.931878 0.396295 -0.147838
Cu1   Cu    Cu3+1 0.500020 0.500020 0.638630 0.909477
Cu2   Cu    Cu3+1 0.499980 0.499980 0.361370 0.899232
H1    H     H_    0.533651 0.093924 0.594570 0.113165
H2    H     H_    0.584137 0.745092 0.977394 0.074782
H3    H     H_    0.598600 0.685163 0.808817 0.173876
H4    H     H_    0.504841 0.776664 0.852268 0.130158
H5    H     H_    0.363309 0.696664 0.044548 0.086794
H6    H     H_    0.382465 0.660906 0.218109 0.186101
H7    H     H_    0.447978 0.771723 0.134255 0.109473
H8    H     H_    0.658871 0.501562 0.971349 0.139567
H9    H     H_    0.654616 0.569916 0.140206 0.172861
H10   H     H_    0.705379 0.423419 0.111467 0.109963
H11   H     H_    0.580714 0.349319 0.188878 0.180995
H12   H     H_    0.460938 0.429590 0.881332 0.209199
H13   H     H_    0.550273 0.356083 0.020881 0.087226
H14   H     H_    0.053761 0.157415 0.524148 0.149619
H15   H     H_    0.039434 0.210154 0.698708 0.147385
H16   H     H_    0.978321 0.084196 0.632712 0.131189
H17   H     H_    0.890805 0.272379 0.644647 0.142237
H18   H     H_    0.905845 0.223173 0.469937 0.139896
H19   H     H_    0.991820 0.593193 0.168782 0.123008
H20   H     H_    0.906897 0.485077 0.188702 0.126338
H21   H     H_    0.892533 0.641965 0.244630 0.126694
H22   H     H_    0.945630 0.816868 0.358154 0.151231
H23   H     H_    0.945746 0.646566 0.672162 0.101158
H24   H     H_    0.960933 0.844238 0.538904 0.143956
H25   H     H_    0.021320 0.927923 0.415886 0.132308
H26   H     H_    0.108802 0.764704 0.518860 0.140381
H27   H     H_    0.094430 0.736349 0.338956 0.140118
H28   H     H_    0.378010 0.844666 0.648701 0.131496
H29   H     H_    0.460475 0.945439 0.703972 0.114115
H30   H     H_    0.383168 0.993548 0.578481 0.138799
H31   H     H_    0.052326 0.441965 0.724881 0.102737
H32   H     H_    0.538922 0.887214 0.310532 0.128008
H33   H     H_    0.484304 0.105610 0.291744 0.140203
H34   H     H_    0.010363 0.279821 0.249463 0.121347
H35   H     H_    0.095102 0.384991 0.214509 0.130079
H36   H     H_    0.109170 0.268377 0.340807 0.129261
N1    N     N_2   0.499090 0.498660 0.846910 -0.351679
N2    N     N_2   0.499070 0.498630 0.153040 -0.232974
O1    O     O_R   0.500010 0.321960 0.617040 -0.499260
O2    O     O_R   0.499990 0.321920 0.382900 -0.513052
O3    O     O_R   0.379090 0.500010 0.617050 -0.490606
O4    O     O_R   0.379060 0.499970 0.382910 -0.502641
O5    O     O_R   0.500010 0.678080 0.617100 -0.503055
O6    O     O_R   0.499990 0.678040 0.382960 -0.512967
O7    O     O_R   0.620940 0.500030 0.617090 -0.493264
O8    O     O_R   0.620910 0.499990 0.382950 -0.506527

loop_
_geom_bond_atom_site_label_1
_geom_bond_atom_site_label_2
_ccdc_geom_bond_type
C23   H23   S    
C12   C29   S    
C3    H33   S    
Cu2   O8    S    
C19   H11   S    
C7    N2    D    
C24   H20   S    
C6    N1    D    
Cu2   O2    S    
C1    C5    S    
C1    O1    A    
C23   C29   S    
C10   C15   S    
C18   H7    S    
C3    C33   S    
C24   H19   S    
C5    H1    S    
Cu1   Cu2   S    
C17   H4    S    
C4    C13   S    
C18   H5    S    
Cu1   O7    S    
C19   C20   S    
C11   C30   S    
C8    O6    A    
C2    C27   S    
C26   H24   S    
C20   H10   S    
C22   H15   S    
C15   C23   S    
C21   C22   S    
C8    O5    A    
C16   H36   S    
C20   H9    S    
C10   C21   S    
C25   C29   S    
C1    O2    A    
C28   C32   S    
C16   H35   S    
C10   C11   S    
C18   H6    S    
C19   H13   S    
C17   H2    S    
C25   C26   S    
C15   H31   S    
Cu2   O4    S    
C9    O7    A    
C9    C14   S    
C29   C30   S    
C27   H30   S    
C11   C16   S    
C12   C15   S    
C19   N2    S    
C7    C18   S    
C25   H26   S    
C23   C28   S    
C27   H28   S    
Cu1   O1    S    
C22   H14   S    
C2    C33   D    
C12   C31   S    
Cu1   N1    S    
C20   H8    S    
C33   H32   S    
C10   C28   S    
C6    C17   S    
Cu2   N2    S    
C13   C31   T    
C2    C8    S    
C16   H34   S    
C14   C32   T    
C3    C5    D    
C11   C12   S    
C6    C7    S    
C24   H21   S    
C28   C30   S    
C4    O4    A    
Cu1   O5    S    
C21   H18   S    
Cu2   O6    S    
C25   H27   S    
C26   H22   S    
C24   C30   S    
H12   N1    S    
C4    O3    A    
C27   H29   S    
C17   H3    S    
C9    O8    A    
C26   H25   S    
C21   H17   S    
Cu1   O3    S    
C22   H16   S    
