data_mof_unit_2881.cif
_audit_creation_date              2012-12-10T16:39:31-0500
_audit_creation_method            fapswitch 2.2
_symmetry_space_group_name_H-M    P1
_symmetry_Int_Tables_number       1
_space_group_crystal_system       triclinic
_cell_length_a                    16.909226
_cell_length_b                    16.934509
_cell_length_c                    16.877252
_cell_angle_alpha                 67.237662
_cell_angle_beta                  66.811305
_cell_angle_gamma                 66.748988
_cell_volume                      3925.28991328

loop_
_atom_site_label
_atom_site_type_symbol
_atom_type_description
_atom_site_fract_x
_atom_site_fract_y
_atom_site_fract_z
_atom_type_partial_charge
Br1   Br    Br    0.241480 0.075835 0.240997 -0.371636
Br2   Br    Br    0.778638 0.956137 0.780858 -0.281545
Br3   Br    Br    0.041921 0.220377 0.223149 -0.283438
Br4   Br    Br    0.957800 0.779289 0.776952 -0.297542
Br5   Br    Br    0.219127 0.222447 0.044265 -0.299273
Br6   Br    Br    0.760286 0.757463 0.923956 -0.372977
C1    C     C_R   0.328879 0.937638 0.460608 -0.018375
C2    C     C_R   0.320483 0.439610 0.986331 -0.018549
C3    C     C_R   0.521310 0.391552 0.059825 -0.051201
C4    C     C_R   0.968208 0.475318 0.593976 -0.053108
C5    C     C_R   0.031891 0.524896 0.405615 -0.052688
C6    C     C_R   0.040969 0.672773 0.554244 -0.025490
C7    C     C_R   0.959161 0.327363 0.445443 -0.024265
C8    C     C_R   0.470310 0.936875 0.469071 0.103199
C9    C     C_R   0.563267 0.966202 0.557531 0.102809
C10   C     C_R   0.994528 0.452479 0.450360 0.101332
C11   C     C_R   0.005546 0.547748 0.549238 0.101542
C12   C     C_R   0.442293 0.437884 0.032537 0.105565
C13   C     C_R   0.530803 0.531023 0.061385 0.105704
C14   C     C_R   0.970274 0.178328 0.434221 0.927021
C15   C     C_R   0.702770 0.966610 0.568985 -0.011882
C16   C     C_R   0.029847 0.821657 0.565716 0.849229
C17   C     C_R   0.177977 0.432573 0.974499 0.886655
C18   C     C_R   0.821005 0.563333 0.034119 0.902947
C19   C     C_R   0.436973 0.965649 0.178869 0.865813
C20   C     C_R   0.567414 0.025437 0.822045 0.926760
C21   C     C_R   0.564180 0.821504 0.031495 0.902600
C22   C     C_R   0.426203 0.166137 0.000653 0.922866
C23   C     C_R   0.005907 0.572521 0.830066 0.923816
C24   C     C_R   0.994513 0.427367 0.169695 0.898605
C25   C     C_R   0.834764 0.998409 0.573786 0.907212
C26   C     C_R   0.016940 0.432103 0.306712 -0.015520
C27   C     C_R   0.178729 0.968158 0.435821 0.914269
C28   C     C_R   0.420853 0.932878 0.420623 0.077586
C29   C     C_R   0.609077 0.981799 0.602049 0.079218
C30   C     C_R   0.990149 0.404060 0.400943 0.081061
C31   C     C_R   0.010064 0.596039 0.598696 0.075463
C32   C     C_R   0.397766 0.391922 0.017247 0.075767
C33   C     C_R   0.579194 0.580341 0.065526 0.078115
C34   C     C_R   0.275757 0.954591 0.404340 -0.192015
C35   C     C_R   0.746593 0.983534 0.615281 -0.194838
C36   C     C_R   0.005000 0.386182 0.259435 -0.197643
C37   C     C_R   0.983522 0.567802 0.692937 -0.017383
C38   C     C_R   0.995528 0.613637 0.740257 -0.195600
C39   C     C_R   0.384723 0.254524 0.015405 -0.186134
C40   C     C_R   0.595555 0.724774 0.044670 -0.186418
C41   C     C_R   0.609859 0.015208 0.731137 -0.205914
C42   C     C_R   0.405353 0.950990 0.276224 -0.179975
C43   C     C_R   0.723534 0.595259 0.048343 -0.187848
C44   C     C_R   0.268812 0.390522 0.984538 -0.203287
C45   C     C_R   0.028598 0.728976 0.605916 -0.191859
C46   C     C_R   0.971574 0.271034 0.393896 -0.207718
C47   C     C_R   0.465965 0.034997 0.705352 -0.104158
C48   C     C_R   0.430821 0.298542 0.032211 -0.012651
C49   C     C_R   0.557512 0.905506 0.300084 -0.104536
C50   C     C_R   0.078973 0.692370 0.460190 -0.100318
C51   C     C_R   0.921043 0.307886 0.539452 -0.102429
C52   C     C_R   0.699165 0.444016 0.092974 -0.096906
C53   C     C_R   0.294584 0.534166 0.964770 -0.102373
C54   C     C_R   0.292782 0.934601 0.552864 -0.112680
C55   C     C_R   0.749537 0.932818 0.492652 -0.098435
C56   C     C_R   0.506858 0.252290 0.065822 -0.092611
C57   C     C_R   0.447075 0.708281 0.063998 -0.100755
C58   C     C_R   0.057500 0.502425 0.262857 -0.095242
C59   C     C_R   0.539256 0.672098 0.061045 -0.021639
C60   C     C_R   0.943004 0.497469 0.736762 -0.094886
C61   C     C_R   0.313100 0.976978 0.312589 0.206952
C62   C     C_R   0.703711 0.991149 0.701754 0.219788
C63   C     C_R   0.999317 0.299744 0.300170 0.223149
C64   C     C_R   0.000940 0.700132 0.699639 0.214654
C65   C     C_R   0.298257 0.297113 0.008371 0.208908
C66   C     C_R   0.687469 0.687104 0.022525 0.203794
C67   C     C_R   0.703582 0.922326 0.445331 -0.147263
C68   C     C_R   0.335897 0.955719 0.594219 -0.161917
C69   C     C_R   0.935309 0.451156 0.688172 -0.148323
C70   C     C_R   0.560879 0.013255 0.679363 -0.018742
C71   C     C_R   0.064982 0.548908 0.311436 -0.142134
C72   C     C_R   0.405966 0.665092 0.042762 -0.172044
C73   C     C_R   0.554137 0.298288 0.076057 -0.145659
C74   C     C_R   0.607697 0.906238 0.349728 -0.142485
C75   C     C_R   0.422344 0.007745 0.669760 -0.160895
C76   C     C_R   0.330424 0.578131 0.991371 -0.161295
C77   C     C_R   0.649615 0.394065 0.091994 -0.140531
C78   C     C_R   0.923635 0.356545 0.589155 -0.144534
C79   C     C_R   0.076417 0.643709 0.410450 -0.137513
C80   C     C_R   0.749324 0.895579 0.365645 0.564403
C81   C     C_R   0.462279 0.927582 0.331246 -0.023061
C82   C     C_R   0.289542 0.980573 0.674630 0.570036
C83   C     C_R   0.895153 0.381040 0.732155 0.557524
C84   C     C_R   0.105168 0.618988 0.267482 0.558994
C85   C     C_R   0.325866 0.711195 0.017975 0.617218
C86   C     C_R   0.633564 0.252854 0.102606 0.565850
C87   C     C_R   0.701694 0.888974 0.317590 0.583710
C88   C     C_R   0.331344 0.010330 0.709899 0.567178
C89   C     C_R   0.290706 0.669117 0.988428 0.618386
C90   C     C_R   0.681533 0.300402 0.109177 0.585345
C91   C     C_R   0.889294 0.334239 0.683095 0.566388
C92   C     C_R   0.668355 0.538862 0.071086 -0.020734
C93   C     C_R   0.110932 0.665880 0.316517 0.578198
C94   C     C_R   0.562687 0.927561 0.432123 -0.058815
C95   C     C_R   0.470697 0.976003 0.593594 -0.053359
C96   C     C_R   0.962484 0.427864 0.544497 -0.054574
C97   C     C_R   0.037539 0.572411 0.455094 -0.053851
C98   C     C_R   0.406431 0.530222 0.022748 -0.053030
C99   C     C_R   0.567535 0.438874 0.070673 -0.056024
C100  C     C_R   0.609996 0.938570 0.478363 -0.053969
C101  C     C_R   0.425768 0.955912 0.552416 -0.051448
C102  C     C_R   0.447651 0.575333 0.042513 -0.054836
F1    F     F_    0.283831 0.038352 0.785145 -0.582093
F2    F     F_    0.284845 0.798507 0.016733 -0.561265
F3    F     F_    0.138182 0.642845 0.176795 -0.608776
F4    F     F_    0.862239 0.357047 0.822909 -0.604097
F5    F     F_    0.747580 0.866590 0.239182 -0.587482
F6    F     F_    0.149315 0.733792 0.271807 -0.594203
F7    F     F_    0.851127 0.266162 0.727801 -0.594533
F8    F     F_    0.759651 0.254732 0.131486 -0.586336
F9    F     F_    0.215799 0.716372 0.960473 -0.566790
F10   F     F_    0.202159 0.981753 0.715827 -0.582487
F11   F     F_    0.839952 0.878500 0.332598 -0.594927
F12   F     F_    0.666444 0.162547 0.119576 -0.595074
H1    H     H_    0.423975 0.072808 0.753312 0.222429
H2    H     H_    0.406098 0.770967 0.078423 0.231870
H3    H     H_    0.087502 0.518725 0.191061 0.209533
H4    H     H_    0.913140 0.481037 0.808559 0.212440
H5    H     H_    0.593533 0.888602 0.237306 0.217526
H6    H     H_    0.111839 0.744668 0.424945 0.211844
H7    H     H_    0.888149 0.255610 0.574704 0.215347
H8    H     H_    0.761543 0.408034 0.110123 0.220675
H9    H     H_    0.246657 0.575672 0.927392 0.222209
H10   H     H_    0.230058 0.920507 0.593579 0.228374
H11   H     H_    0.822027 0.911625 0.470657 0.210794
H12   H     H_    0.528594 0.180171 0.087272 0.211366
O1    O     O_R   0.982940 0.138950 0.510160 -0.627894
O2    O     O_R   0.982940 0.510160 0.138950 -0.638514
O3    O     O_R   0.861050 0.017060 0.489840 -0.637638
O4    O     O_R   0.138950 0.982940 0.510160 -0.647066
O5    O     O_R   0.867700 0.025880 0.612340 -0.563694
O6    O     O_R   0.132300 0.974120 0.387660 -0.560650
O7    O     O_R   0.025880 0.612340 0.867700 -0.562822
O8    O     O_R   0.974120 0.387660 0.132300 -0.570441
O9    O     O_R   0.612340 0.867700 0.025880 -0.566049
O10   O     O_R   0.387660 0.132300 0.974120 -0.562376
O11   O     O_R   0.387660 0.974120 0.132300 -0.572195
O12   O     O_R   0.017060 0.861050 0.489840 -0.654303
O13   O     O_R   0.612340 0.025880 0.867700 -0.551550
O14   O     O_R   0.132300 0.387660 0.974120 -0.563428
O15   O     O_R   0.867700 0.612340 0.025880 -0.560392
O16   O     O_R   0.974120 0.132300 0.387660 -0.553480
O17   O     O_R   0.025880 0.867700 0.612340 -0.578019
O18   O     O_R   0.138950 0.510160 0.982940 -0.648888
O19   O     O_R   0.861050 0.489840 0.017060 -0.650245
O20   O     O_R   0.510160 0.982940 0.138950 -0.660598
O21   O     O_R   0.489840 0.017060 0.861050 -0.634158
O22   O     O_R   0.489840 0.861050 0.017060 -0.649266
O23   O     O_R   0.510160 0.138950 0.982940 -0.636841
O24   O     O_R   0.017060 0.489840 0.861050 -0.640791
Zn1   Zn    Zn3+2 0.004880 0.004880 0.583590 1.154012
Zn2   Zn    Zn3+2 0.995120 0.995120 0.416410 1.156931
Zn3   Zn    Zn3+2 0.004880 0.583590 0.004880 1.159317
Zn4   Zn    Zn3+2 0.995120 0.416410 0.995120 1.141777
Zn5   Zn    Zn3+2 0.583590 0.004880 0.004880 1.153805
Zn6   Zn    Zn3+2 0.416410 0.995120 0.995120 1.164259

loop_
_geom_bond_atom_site_label_1
_geom_bond_atom_site_label_2
_ccdc_geom_bond_type
C95   C101  A    
C57   C59   A    
C52   H8    S    
C49   C74   A    
C39   C65   A    
C78   C96   A    
C58   C71   A    
C84   C93   A    
C71   C84   A    
C52   C92   A    
C53   C76   A    
C44   C65   A    
O14   Zn4   S    
O15   Zn3   S    
C6    C45   A    
C93   F6    S    
Br4   C64   S    
C50   C79   A    
C22   C39   S    
C75   C95   A    
O23   Zn5   S    
O9    Zn5   S    
C83   F4    S    
C19   O20   A    
C78   C91   A    
C26   C30   A    
C9    C100  A    
C47   C75   A    
Br3   C63   S    
C41   C70   A    
Br2   C62   S    
C2    C53   A    
C7    C51   A    
C60   C69   A    
C4    C11   A    
C3    C99   A    
C86   C90   A    
C72   C102  A    
C3    C73   A    
C6    C31   A    
C46   C63   A    
C5    C71   A    
Br1   C61   S    
C68   C101  A    
C49   H5    S    
C24   O2    A    
C43   C66   A    
C22   O23   A    
C1    C34   A    
C14   O16   A    
C38   C64   A    
C80   F11   S    
C45   C64   A    
C50   H6    S    
C14   O1    A    
C25   O5    A    
O11   Zn6   S    
C15   C55   A    
O20   Zn5   S    
C79   C97   A    
C13   C102  A    
C21   O22   A    
O2    Zn3   S    
C43   C92   A    
C16   O17   A    
O7    Zn3   S    
O3    Zn2   S    
C74   C94   A    
C33   C59   A    
C19   O11   A    
C2    C32   A    
C84   F3    S    
C9    C29   A    
C51   H7    S    
C35   C62   A    
C23   O7    A    
C17   O14   A    
C82   C88   A    
C29   C70   A    
C51   C78   A    
C27   C34   S    
C24   O8    A    
O18   Zn3   S    
C56   H12   S    
C56   C73   A    
O24   Zn4   S    
C26   C58   A    
C7    C30   A    
C25   O3    A    
C54   H10   S    
C69   C83   A    
C17   C44   S    
C12   C98   A    
C48   C56   A    
C55   C67   A    
C34   C61   A    
C36   C63   A    
C89   F9    S    
C77   C99   A    
C83   C91   A    
C31   C37   A    
C20   O13   A    
Br6   C66   S    
C37   C38   A    
C8    C28   A    
C79   C93   A    
C18   O19   A    
C7    C46   A    
C4    C69   A    
O6    Zn2   S    
C32   C48   A    
C4    C96   A    
C27   O6    A    
C11   C97   A    
C42   C81   A    
O16   Zn2   S    
C9    C95   A    
C19   C42   S    
C73   C86   A    
C6    C50   A    
C13   C33   A    
C20   C41   S    
C40   C59   A    
C23   O24   A    
C15   C35   A    
O4    Zn1   S    
C13   C99   A    
C21   C40   S    
C10   C96   A    
C8    C101  A    
C17   O18   A    
C39   C48   A    
C23   C38   S    
C1    C28   A    
C60   H4    S    
C47   C70   A    
C91   F7    S    
C11   C31   A    
O12   Zn2   S    
C2    C44   A    
C1    C54   A    
C98   C102  A    
C57   H2    S    
C41   C62   A    
C85   F2    S    
C18   C43   S    
C53   H9    S    
C76   C98   A    
C76   C89   A    
C25   C35   S    
C40   C66   A    
O22   Zn6   S    
C90   F8    S    
C33   C92   A    
C18   O15   A    
O10   Zn6   S    
C8    C94   A    
C15   C29   A    
C72   C85   A    
C58   H3    S    
C88   F1    S    
C94   C100  A    
O5    Zn1   S    
O21   Zn6   S    
C14   C46   S    
C82   F10   S    
O19   Zn4   S    
C80   C87   A    
C12   C32   A    
Br5   C65   S    
C47   H1    S    
C52   C77   A    
C10   C30   A    
C75   C88   A    
C27   O4    A    
C67   C100  A    
O13   Zn5   S    
C37   C60   A    
C77   C90   A    
C54   C68   A    
C21   O9    A    
C86   F12   S    
O1    Zn1   S    
C28   C81   A    
C42   C61   A    
C49   C81   A    
C67   C80   A    
C5    C10   A    
C55   H11   S    
C85   C89   A    
C3    C12   A    
C22   O10   A    
C87   F5    S    
C16   O12   A    
C26   C36   A    
C24   C36   S    
C20   O21   A    
C5    C97   A    
C68   C82   A    
C74   C87   A    
O17   Zn1   S    
O8    Zn4   S    
C16   C45   S    
C57   C72   A    
