data_mof_unit_2894.cif
_audit_creation_date              2012-10-26T20:20:46-0400
_audit_creation_method            fapswitch 2.2
_symmetry_space_group_name_H-M    P1
_symmetry_Int_Tables_number       1
_space_group_crystal_system       triclinic
_cell_length_a                    8.849491
_cell_length_b                    10.752301
_cell_length_c                    9.594779
_cell_angle_alpha                 89.836335
_cell_angle_beta                  97.844795
_cell_angle_gamma                 91.923543
_cell_volume                      903.911100424

loop_
_atom_site_label
_atom_site_type_symbol
_atom_type_description
_atom_site_fract_x
_atom_site_fract_y
_atom_site_fract_z
_atom_type_partial_charge
C1    C     C_R   0.497237 0.262741 0.499868 0.592118
C2    C     C_R   0.638189 0.070741 0.523710 0.227766
C3    C     C_R   0.502697 0.871255 0.499215 -0.031223
C4    C     C_R   0.497303 0.128746 0.500783 -0.031223
C5    C     C_R   0.405212 0.419946 0.062567 0.076642
C6    C     C_R   0.594788 0.580054 0.937433 0.076642
C7    C     C_R   0.405389 0.419912 0.913942 0.081712
C8    C     C_R   0.594607 0.580090 0.086057 0.081705
C9    C     C_1   0.970394 0.437897 0.310516 0.276732
C10   C     C_1   0.029606 0.562109 0.689482 0.276722
C11   C     C_1   0.213648 0.119083 0.463718 0.280203
C12   C     C_R   0.502762 0.737259 0.500131 0.592112
C13   C     C_1   0.786354 0.880920 0.536291 0.280189
C14   C     C_3   0.177932 0.841252 0.314634 -0.067965
C15   C     C_3   0.822129 0.158792 0.685271 -0.067869
C16   C     C_1   0.304516 0.333575 0.123434 0.259723
C17   C     C_1   0.695486 0.666424 0.876566 0.259723
C18   C     C_1   0.304939 0.333685 0.827895 0.254873
C19   C     C_1   0.695039 0.666329 0.172102 0.254868
C20   C     C_R   0.204683 0.498901 0.464393 0.551793
C21   C     C_R   0.795316 0.501101 0.535606 0.551760
C22   C     C_2   0.040157 0.487335 0.446142 -0.051615
C23   C     C_2   0.959842 0.512670 0.553857 -0.051648
C24   C     C_R   0.358839 0.058995 0.479954 -0.062883
C25   C     C_R   0.641162 0.941007 0.520046 -0.062863
C26   C     C_R   0.361812 0.929261 0.476268 0.227766
Cu1   Cu    Cu3+1 0.500000 0.500020 0.640660 1.024123
Cu2   Cu    Cu3+1 0.500000 0.499980 0.359340 1.024119
H1    H     H_    0.132286 0.928693 0.266141 0.147085
H2    H     H_    0.269807 0.807597 0.257147 0.126947
H3    H     H_    0.084409 0.769342 0.301822 0.174569
H4    H     H_    0.730199 0.192152 0.742890 0.126788
H5    H     H_    0.868162 0.071447 0.733660 0.147258
H6    H     H_    0.915383 0.230938 0.698038 0.174462
N1    N     N_R   0.500040 0.500030 0.852080 -0.269889
N2    N     N_1   0.776062 0.736159 0.239658 -0.311140
N3    N     N_R   0.499960 0.499970 0.147920 -0.269894
N4    N     N_1   0.915288 0.398555 0.202568 -0.253022
N5    N     N_1   0.084712 0.601451 0.797431 -0.253038
N6    N     N_1   0.097281 0.166731 0.450569 -0.215465
N7    N     N_1   0.902722 0.833272 0.549446 -0.215480
N8    N     N_1   0.223326 0.263347 0.170286 -0.281231
N9    N     N_1   0.776679 0.736650 0.829716 -0.281220
N10   N     N_1   0.223898 0.263866 0.760340 -0.311151
O1    O     O_R   0.499990 0.319660 0.618740 -0.512597
O2    O     O_3   0.772692 0.142096 0.540191 -0.539065
O3    O     O_R   0.500010 0.680340 0.381260 -0.512618
O4    O     O_R   0.499990 0.319630 0.381170 -0.481542
O5    O     O_R   0.500010 0.680370 0.618830 -0.481552
O6    O     O_R   0.274840 0.500010 0.591370 -0.489904
O7    O     O_R   0.725160 0.499990 0.408630 -0.489892
O8    O     O_R   0.274830 0.499980 0.353800 -0.506673
O9    O     O_R   0.725170 0.500020 0.646200 -0.506674
O10   O     O_3   0.227304 0.857914 0.459730 -0.539062

loop_
_geom_bond_atom_site_label_1
_geom_bond_atom_site_label_2
_ccdc_geom_bond_type
C2    C4    A    
Cu1   O9    S    
C1    O4    A    
C5    N3    A    
C10   C23   S    
C15   H6    S    
Cu1   O6    S    
C21   O7    A    
C14   H3    S    
C7    C18   S    
C13   C25   S    
Cu1   O1    S    
C13   N7    T    
C12   O5    A    
C15   H4    S    
C20   O8    A    
C2    O2    S    
C21   O9    A    
Cu2   O8    S    
C1    O1    A    
Cu2   N3    S    
C14   H2    S    
C12   O3    A    
C26   O10   S    
Cu2   O3    S    
C9    N4    T    
C14   O10   S    
C20   C22   S    
C2    C25   A    
C18   N10   T    
C19   N2    T    
C21   C23   S    
C11   N6    T    
C4    C24   A    
Cu2   O7    S    
C9    C22   S    
C1    C4    S    
C8    N3    A    
C14   H1    S    
C8    C19   S    
C16   N8    T    
C11   C24   S    
C3    C25   A    
C6    N1    A    
C20   O6    A    
C17   N9    T    
C5    C7    A    
C6    C17   S    
C22   C23   D    
Cu2   O4    S    
C5    C16   S    
C6    C8    A    
C3    C12   S    
C15   O2    S    
Cu1   N1    S    
C7    N1    A    
C15   H5    S    
C3    C26   A    
Cu1   O5    S    
C24   C26   A    
C10   N5    T    
Cu1   Cu2   S    
