data_mof_unit_1857.cif
_audit_creation_date              2012-12-10T18:18:18-0500
_audit_creation_method            fapswitch 2.2
_symmetry_space_group_name_H-M    P1
_symmetry_Int_Tables_number       1
_space_group_crystal_system       triclinic
_cell_length_a                    14.186963
_cell_length_b                    14.936493
_cell_length_c                    15.609336
_cell_angle_alpha                 86.628011
_cell_angle_beta                  68.184276
_cell_angle_gamma                 89.459638
_cell_volume                      3065.19777435

loop_
_atom_site_label
_atom_site_type_symbol
_atom_type_description
_atom_site_fract_x
_atom_site_fract_y
_atom_site_fract_z
_atom_type_partial_charge
C1    C     C_R   0.502898 0.672872 0.492812 1.011140
C2    C     C_R   0.497099 0.327133 0.507205 1.011670
C3    C     C_R   0.379479 0.485535 0.103544 -0.213680
C4    C     C_R   0.620205 0.506698 0.896814 -0.197702
C5    C     C_R   0.305657 0.473117 0.065450 0.080431
C6    C     C_R   0.694074 0.519828 0.934634 0.079978
C7    C     C_R   0.445585 0.178566 0.593195 0.381797
C8    C     C_R   0.554511 0.821451 0.406854 0.386910
C9    C     C_R   0.494979 0.231430 0.510382 -0.147307
C10   C     C_R   0.505038 0.768579 0.489647 -0.148477
C11   C     C_R   0.540306 0.193557 0.425789 -0.301321
C12   C     C_R   0.459723 0.806455 0.574245 -0.303851
C13   C     C_R   0.538681 0.101806 0.420834 0.140382
C14   C     C_R   0.461412 0.898207 0.579212 0.141630
C15   C     C_R   0.498596 0.046684 0.502743 0.032358
C16   C     C_R   0.501511 0.953330 0.497307 0.031655
C17   C     C_R   0.455385 0.084725 0.589875 -0.015254
C18   C     C_R   0.544746 0.915292 0.410179 -0.014165
C19   C     C_R   0.575888 0.064742 0.334830 -0.208780
C20   C     C_R   0.424279 0.935270 0.665218 -0.208940
C21   C     C_R   0.576786 0.972524 0.329383 -0.086094
C22   C     C_R   0.423432 0.027491 0.670667 -0.095123
C23   C     C_R   0.436430 0.501757 0.675185 0.933341
C24   C     C_R   0.563541 0.497990 0.324861 0.934463
C25   C     C_R   0.190300 0.424569 0.529391 -0.151276
C26   C     C_R   0.809794 0.575355 0.470357 -0.160037
C27   C     C_R   0.213076 0.575224 0.464467 0.406045
C28   C     C_R   0.787057 0.424704 0.535308 0.467995
C29   C     C_R   0.109061 0.578840 0.474096 -0.109366
C30   C     C_R   0.891178 0.420991 0.525351 -0.093289
C31   C     C_R   0.050420 0.500158 0.499902 0.056217
C32   C     C_R   0.949917 0.499608 0.499295 0.040768
C33   C     C_R   0.092128 0.421971 0.525798 0.014375
C34   C     C_R   0.908131 0.577852 0.473593 0.013890
C35   C     C_R   0.062142 0.658579 0.456499 -0.107748
C36   C     C_R   0.938093 0.341249 0.542975 -0.082285
C37   C     C_R   0.964810 0.657480 0.453528 -0.211373
C38   C     C_R   0.035447 0.342346 0.545898 -0.216947
C39   C     C_R   0.397065 0.501037 0.775624 -0.035284
C40   C     C_R   0.602801 0.497072 0.224549 -0.034513
C41   C     C_R   0.264724 0.473432 0.925250 -0.195865
C42   C     C_R   0.735097 0.522178 0.074582 -0.194860
C43   C     C_R   0.295710 0.481179 0.829489 -0.134197
C44   C     C_R   0.704142 0.516430 0.170340 -0.137233
C45   C     C_R   0.465567 0.516128 0.817606 -0.209793
C46   C     C_R   0.534323 0.480154 0.183004 -0.217546
C47   C     C_R   0.439801 0.498635 0.912396 0.096887
C48   C     C_R   0.559995 0.495610 0.087986 0.096995
C49   C     C_R   0.335993 0.480835 0.968392 0.121815
C50   C     C_R   0.663786 0.513359 0.031700 0.119741
C51   C     C_R   0.515125 0.499897 0.951854 0.028404
C52   C     C_R   0.484606 0.493129 0.048603 0.036529
H1    H     H_    0.220420 0.365151 0.552507 0.189953
H2    H     H_    0.779628 0.634798 0.447335 0.193041
H3    H     H_    0.099019 0.723369 0.446282 0.233751
H4    H     H_    0.901189 0.276459 0.553283 0.218193
H5    H     H_    0.933196 0.719541 0.437248 0.166007
H6    H     H_    0.067020 0.280309 0.562291 0.163456
H7    H     H_    0.460742 0.454109 0.227091 0.144461
H8    H     H_    0.539276 0.542520 0.774147 0.145262
H9    H     H_    0.759310 0.526928 0.201674 0.152529
H10   H     H_    0.240557 0.471798 0.797888 0.153583
H11   H     H_    0.184880 0.460711 0.964202 0.133710
H12   H     H_    0.814948 0.534600 0.035411 0.133342
H13   H     H_    0.352830 0.491326 0.176757 0.145679
H14   H     H_    0.646593 0.499803 0.823716 0.166278
H15   H     H_    0.574103 0.236372 0.363052 0.143035
H16   H     H_    0.425900 0.763641 0.636978 0.143143
H17   H     H_    0.603388 0.107212 0.271520 0.156622
H18   H     H_    0.396812 0.892799 0.728528 0.156768
H19   H     H_    0.601152 0.947444 0.261174 0.220695
H20   H     H_    0.399186 0.052569 0.738869 0.220055
N1    N     N_R   0.249980 0.499930 0.499960 -0.156010
N2    N     N_R   0.750020 0.500070 0.500040 -0.164503
O1    O     O_R   0.419720 0.632140 0.499980 -0.554302
O2    O     O_R   0.580280 0.367860 0.500020 -0.553490
O3    O     O_R   0.580270 0.632160 0.499970 -0.619969
O4    O     O_R   0.419730 0.367840 0.500030 -0.620574
O5    O     O_R   0.373870 0.499980 0.632250 -0.609278
O6    O     O_R   0.626130 0.500020 0.367750 -0.609614
O7    O     O_R   0.534420 0.500000 0.632240 -0.587195
O8    O     O_R   0.465580 0.500000 0.367760 -0.591689
Zn1   Zn    Zn3+2 0.392800 0.499980 0.500010 1.031448
Zn2   Zn    Zn3+2 0.607200 0.500020 0.499990 1.034841
C53   C     C_3   0.194667 0.452980 0.126703 -0.421469
C54   C     C_3   0.171438 0.432630 0.230330 -0.355236
C55   C     C_3   0.061436 0.401458 0.280486 -0.831277
H21   H     H_    0.008795 0.456884 0.280084 0.260564
H22   H     H_    0.044078 0.343156 0.247572 0.264314
H23   H     H_    0.049465 0.380119 0.352864 0.260783
H24   H     H_    0.221827 0.378575 0.239646 0.232355
H25   H     H_    0.183739 0.493760 0.262356 0.218797
H26   H     H_    0.147671 0.510425 0.118551 0.204859
H27   H     H_    0.170673 0.392580 0.101223 0.215412
C56   C     C_3   0.804915 0.540072 0.873064 -0.417122
C57   C     C_3   0.827643 0.560016 0.769468 -0.348892
C58   C     C_3   0.937189 0.592357 0.719071 -0.833236
H28   H     H_    0.954123 0.650577 0.752353 0.263202
H29   H     H_    0.990638 0.537381 0.718623 0.263112
H30   H     H_    0.948427 0.614325 0.647010 0.263522
H31   H     H_    0.815981 0.498484 0.737632 0.251570
H32   H     H_    0.776482 0.613400 0.760234 0.226930
H33   H     H_    0.828783 0.600789 0.898146 0.212058
H34   H     H_    0.852223 0.482918 0.881313 0.208741
S1    S     S_3+6 0.291579 0.666524 0.393800 0.041478
O9    O     O_2   0.284303 0.743558 0.453621 -0.282942
O10   O     O_2   0.400869 0.645968 0.343892 -0.230539
O11   O     O_3   0.248383 0.701020 0.310563 -0.544350
H35   H     H_    0.257043 0.648953 0.271945 0.342653
S2    S     S_3+6 0.708716 0.333396 0.605984 0.021564
O12   O     O_2   0.599648 0.354462 0.656100 -0.227606
O13   O     O_2   0.715971 0.256392 0.546063 -0.332679
O14   O     O_3   0.752424 0.299883 0.689187 -0.594556
H36   H     H_    0.718099 0.241489 0.715060 0.394746
S3    S     S_3+6 0.366250 0.227244 0.697603 0.011138
O15   O     O_2   0.276750 0.166229 0.748963 -0.338457
O16   O     O_2   0.426208 0.239270 0.757819 -0.242822
O17   O     O_3   0.320377 0.326653 0.677216 -0.573253
H37   H     H_    0.249095 0.327291 0.721404 0.366815
S4    S     S_3+6 0.633943 0.772837 0.302448 0.014629
O18   O     O_2   0.574213 0.761248 0.241957 -0.228823
O19   O     O_2   0.723663 0.833736 0.251460 -0.340437
O20   O     O_3   0.679486 0.673240 0.322709 -0.574949
H38   H     H_    0.749829 0.671518 0.276766 0.367067

loop_
_geom_bond_atom_site_label_1
_geom_bond_atom_site_label_2
_ccdc_geom_bond_type
O5    Zn1   S    
C55   H21   S    
C45   H8    S    
C57   H32   S    
C46   H7    S    
C27   C29   A    
C34   C37   A    
C1    O3    A    
C56   C57   S    
O6    Zn2   S    
C28   N2    A    
O2    Zn2   S    
C58   H28   S    
O20   H38   S    
C47   C49   A    
C53   C54   S    
S4    O18   D    
C40   C46   A    
C12   H16   S    
C8    S4    S    
C21   H19   S    
C36   H4    S    
C35   C37   A    
C25   H1    S    
C54   H24   S    
C27   S1    S    
C7    S3    S    
S3    O15   D    
C18   C21   A    
O11   H35   S    
C7    C9    A    
C22   H20   S    
C24   O8    A    
O17   H37   S    
C24   C40   S    
S2    O12   D    
C53   H26   S    
O4    Zn1   S    
C24   O6    A    
S4    O19   D    
S3    O16   D    
C31   C33   A    
S4    O20   S    
C39   C45   A    
C5    C53   S    
C48   C50   A    
C38   H6    S    
C57   H31   S    
C41   C43   A    
C5    C49   A    
C3    H13   S    
C42   C44   A    
C26   H2    S    
C41   C49   A    
C58   H29   S    
C11   H15   S    
C45   C47   A    
S1    O11   S    
C46   C48   A    
C13   C19   A    
C4    C51   A    
C35   H3    S    
C51   C52   A    
C1    O1    A    
C14   C20   A    
C4    C6    A    
N2    Zn2   S    
C54   C55   S    
C39   C43   A    
O3    Zn2   S    
C7    C17   A    
C8    C18   A    
C32   C34   A    
C2    O4    A    
C56   H33   S    
S1    O10   D    
C53   H27   S    
C31   C32   A    
C40   C44   A    
S3    O17   S    
C57   C58   S    
C6    C50   A    
C9    C11   A    
S2    O14   S    
C10   C12   A    
C42   C50   A    
C16   C18   A    
C12   C14   A    
C6    C56   S    
C13   C15   A    
C14   C16   A    
C19   H17   S    
C41   H11   S    
C42   H12   S    
O7    Zn2   S    
C2    O2    A    
C56   H34   S    
C20   H18   S    
O14   H36   S    
C15   C17   A    
C58   H30   S    
C23   O7    A    
C26   C34   A    
C1    C10   S    
C33   C38   A    
C20   C22   A    
C3    C5    A    
C47   C51   A    
C3    C52   A    
C44   H9    S    
S1    O9    D    
C29   C35   A    
C17   C22   A    
C30   C36   A    
C28   S2    S    
C28   C30   A    
C29   C31   A    
C54   H25   S    
C30   C32   A    
C11   C13   A    
O1    Zn1   S    
C23   C39   S    
C36   C38   A    
C26   N2    A    
C25   N1    A    
S2    O13   D    
C48   C52   A    
C4    H14   S    
C8    C10   A    
O8    Zn1   S    
C55   H23   S    
C55   H22   S    
C23   O5    A    
C27   N1    A    
C2    C9    S    
N1    Zn1   S    
C37   H5    S    
C15   C16   A    
C43   H10   S    
C25   C33   A    
C19   C21   A    
