data_mof_unit_1731.cif
_audit_creation_date              2013-03-05T16:12:09-0500
_audit_creation_method            fapswitch 2.2
_symmetry_space_group_name_H-M    P1
_symmetry_Int_Tables_number       1
_space_group_crystal_system       triclinic
_cell_length_a                    10.743905
_cell_length_b                    9.406321
_cell_length_c                    27.812084
_cell_angle_alpha                 90.090816
_cell_angle_beta                  90.14549
_cell_angle_gamma                 90.060672
_cell_volume                      2810.69225072

loop_
_atom_site_label
_atom_site_type_symbol
_atom_site_description
_atom_site_fract_x
_atom_site_fract_y
_atom_site_fract_z
_atom_type_partial_charge
O1    O     O_R   0.317570 0.620260 0.500030 -0.580952
O2    O     O_R   0.317570 0.379740 0.500030 -0.574830
C1    C     C_R   0.259814 0.499927 0.500240 0.874814
O3    O     O_R   0.499900 0.620250 0.430280 -0.583297
O4    O     O_R   0.499900 0.379750 0.430280 -0.585227
C2    C     C_R   0.499831 0.499877 0.407485 0.893655
Cu1   Cu    Cu3+1 0.499860 0.642410 0.500020 0.938026
Cu2   Cu    Cu3+1 0.499860 0.357590 0.500020 0.937899
O5    O     O_R   0.682190 0.620260 0.500010 -0.596765
O6    O     O_R   0.682190 0.379740 0.500010 -0.601154
O7    O     O_R   0.499860 0.620280 0.569750 -0.587183
O8    O     O_R   0.499860 0.379720 0.569750 -0.587829
C3    C     C_R   0.739893 0.500068 0.500641 0.780800
C4    C     C_R   0.500487 0.500266 0.592510 0.800204
C5    C     C_R   0.404430 0.555482 0.177774 0.599904
O9    O     O_2   0.305202 0.605081 0.202281 -0.471574
N1    N     N_R   0.503317 0.499669 0.202139 -0.467076
C6    C     C_R   0.605095 0.446916 0.178675 0.649580
C7    C     C_R   0.479772 0.371466 0.278952 0.446876
C8    C     C_R   0.479659 0.372310 0.329140 -0.188739
C9    C     C_R   0.519913 0.626120 0.329088 -0.159391
C10   C     C_R   0.520738 0.625372 0.278999 -0.117736
C11   C     C_R   0.501066 0.498460 0.253713 0.242786
C12   C     C_R   0.509333 0.508541 0.102215 -0.095067
C13   C     C_R   0.405531 0.561271 0.127485 -0.014826
C14   C     C_R   0.305178 0.619240 0.102159 -0.090189
C15   C     C_R   0.609861 0.447156 0.127850 -0.125216
C16   C     C_R   0.499823 0.499468 0.354595 -0.097892
H1    H     H_    0.535987 0.725553 0.347782 0.172810
H2    H     H_    0.537161 0.723488 0.259697 0.184953
H3    H     H_    0.225264 0.662332 0.120848 0.205584
C17   C     C_R   0.504351 0.501796 0.645616 -0.139907
C18   C     C_R   0.405809 0.560986 0.974730 0.050313
C19   C     C_R   0.627851 0.496456 0.975569 0.010471
C20   C     C_R   0.517455 0.527536 0.949760 0.068025
C21   C     C_R   0.296278 0.584612 0.947793 -0.196441
C22   C     C_R   0.297032 0.579110 0.898004 -0.128309
C23   C     C_R   0.406880 0.549984 0.873090 -0.015878
C24   C     C_R   0.518330 0.525523 0.898715 -0.054962
C25   C     C_R   0.629720 0.498512 0.873264 -0.078354
C26   C     C_R   0.623152 0.487098 0.822403 0.546257
N2    N     N_R   0.513718 0.512170 0.798564 -0.458341
C27   C     C_R   0.407144 0.544886 0.822800 0.546482
C28   C     C_R   0.434229 0.410338 0.722860 -0.123870
C29   C     C_R   0.429130 0.407705 0.672641 -0.065857
C30   C     C_R   0.582863 0.598959 0.670212 -0.065482
C31   C     C_R   0.584959 0.601391 0.720386 -0.131831
C32   C     C_R   0.511392 0.507268 0.746860 0.310444
O10   O     O_2   0.301609 0.573332 0.798185 -0.526687
C33   C     C_R   0.406739 0.567878 0.025728 0.054459
C34   C     C_R   0.511980 0.516956 0.051220 0.083028
C35   C     C_R   0.619331 0.472920 0.026047 -0.022528
C36   C     C_R   0.305311 0.622088 0.052253 -0.181386
H4    H     H_    0.376797 0.338183 0.743584 0.160866
H5    H     H_    0.210225 0.597056 0.879069 0.202637
H6    H     H_    0.207068 0.603061 0.964253 0.166483
H7    H     H_    0.225694 0.671034 0.035432 0.159786
O11   O     O_2   0.701226 0.396832 0.204826 -0.417869
C37   C     C_R   0.709156 0.386584 0.101530 0.426325
H8    H     H_    0.462854 0.273713 0.348110 0.185012
C38   C     C_R   0.742496 0.494491 0.950018 -0.083682
C39   C     C_R   0.743225 0.489231 0.899327 -0.074005
O12   O     O_2   0.724081 0.448754 0.796758 -0.522837
C40   C     C_R   0.711395 0.397941 0.051628 -0.222508
H9    H     H_    0.644142 0.676725 0.739186 0.157451
H10   H     H_    0.784199 0.341477 0.032909 0.187444
C41   C     C_3   0.071590 0.635625 0.523468 -0.434414
C42   C     C_3   0.071262 0.369514 0.526446 -0.412213
H11   H     H_    0.102006 0.733270 0.504264 0.216695
H12   H     H_    0.107503 0.267750 0.511677 0.216036
H13   H     H_    0.109418 0.642966 0.560715 0.178683
H14   H     H_    0.102754 0.375451 0.564565 0.193258
C43   C     C_3   0.929220 0.632626 0.525498 -0.381735
C44   C     C_3   0.928794 0.366496 0.524806 -0.393680
H15   H     H_    0.898838 0.629622 0.563714 0.199960
H16   H     H_    0.891948 0.362577 0.562177 0.181755
H17   H     H_    0.892531 0.733107 0.509919 0.186561
H18   H     H_    0.897779 0.267217 0.506544 0.188780
C45   C     C_3   0.073994 0.494705 0.444542 0.580647
C46   C     C_3   0.121910 0.499824 0.498153 0.007496
C47   C     C_3   0.877958 0.500047 0.498291 -0.007860
C48   C     C_3   0.925283 0.500705 0.444497 -0.164024
C49   C     C_3   0.628420 0.083843 0.501886 -0.192910
C50   C     C_3   0.628409 0.916494 0.501621 -0.194073
H19   H     H_    0.678851 0.122552 0.534368 0.149712
H20   H     H_    0.679608 0.877459 0.533756 0.169041
H21   H     H_    0.681335 0.122616 0.470171 0.167650
H22   H     H_    0.680585 0.878285 0.469626 0.164505
H23   H     H_    0.478942 0.121496 0.577196 0.167745
H24   H     H_    0.480365 0.879591 0.577263 0.167780
C51   C     C_3   0.434125 0.083825 0.543465 -0.178363
C52   C     C_3   0.434650 0.916205 0.543616 -0.190118
C53   C     C_3   0.437437 0.083468 0.457786 -0.175395
C54   C     C_3   0.436869 0.916048 0.457902 -0.167369
N3    N     N_3   0.500250 0.143650 0.501060 -0.140181
N4    N     N_3   0.500250 0.856350 0.501060 -0.137894
H25   H     H_    0.340257 0.123528 0.455525 0.192696
H26   H     H_    0.339359 0.876548 0.456008 0.188738
H27   H     H_    0.485423 0.120051 0.424702 0.163180
H28   H     H_    0.483817 0.878583 0.424689 0.162541
H29   H     H_    0.336478 0.122828 0.544027 0.163376
H30   H     H_    0.337325 0.875913 0.544717 0.146833
Cl1   Cl    Cl    0.451126 0.210778 0.248409 -0.509365
Cl2   Cl    Cl    0.832671 0.289905 0.127738 -0.457454
C55   C     C_1   0.860012 0.519393 0.974750 0.244385
N5    N     N_1   0.953635 0.539659 0.994301 -0.272172
C56   C     C_1   0.664728 0.695411 0.645096 0.255790
N6    N     N_1   0.730423 0.772923 0.625177 -0.323350
C57   C     C_1   0.862605 0.481502 0.874966 0.357942
N7    N     N_1   0.957978 0.475438 0.855796 -0.231409
Cl3   Cl    Cl    0.143700 0.638259 0.410543 -0.567532
Cl4   Cl    Cl    0.134271 0.336782 0.415390 -0.577758
C58   C     C_1   0.877321 0.629061 0.419681 0.307605
N8    N     N_1   0.839448 0.729006 0.400326 -0.235804
C59   C     C_1   0.869538 0.379708 0.417737 0.313034
N9    N     N_1   0.825559 0.285546 0.396876 -0.221360
C60   C     C_1   0.340812 0.312691 0.650094 0.247798
N10   N     N_1   0.269392 0.236748 0.632336 -0.321488

loop_
_geom_bond_atom_site_label_1
_geom_bond_atom_site_label_2
_geom_bond_distance
_ccdc_geom_bond_type
C42   C46   1.556129 S    
C49   H21   1.112368 S    
C53   C54   1.574818 S    
C26   N2    1.369205 A    
C7    C11   1.405311 A    
C7    C8    1.395855 A    
C12   C15   1.416681 A    
C47   C48   1.581409 S    
Cu1   Cu2   2.679107 S    
Cu1   O7    1.950804 S    
Cu1   N4    2.012550 S    
C37   C40   1.392400 A    
N1    C11   1.434709 S    
C44   H16   1.113788 S    
C45   Cl4   1.812259 S    
C37   Cl2   1.766085 S    
C21   C22   1.385676 A    
C50   H20   1.111365 S    
C48   C59   1.483759 S    
C50   N4    1.488106 S    
C23   C24   1.411182 A    
O7    C4    1.295144 A    
C5    C13   1.399873 A    
C54   H26   1.112304 S    
C42   C44   1.531463 S    
C5    O9    1.350005 S    
C3    C47   1.484956 S    
C52   N4    1.489146 S    
C18   C21   1.411411 A    
C25   C39   1.419906 A    
Cu1   O5    1.970205 S    
C19   C20   1.415837 A    
C17   C29   1.416007 A    
O5    C3    1.290088 A    
C7    Cl1   1.759119 S    
C6    O11   1.347580 S    
C2    C16   1.470969 S    
C49   C50   1.574143 S    
C56   N6    1.157089 T    
C41   C43   1.531026 S    
C8    H8    1.082942 S    
C38   C55   1.454828 S    
C53   H27   1.110820 S    
C42   H14   1.113327 S    
C12   C34   1.420970 A    
C14   H3    1.083507 S    
C53   N3    1.489051 S    
C9    C10   1.393145 A    
C43   H15   1.113046 S    
Cu2   N3    2.012651 S    
C51   H29   1.111913 S    
O3    Cu1   1.950456 S    
C1    C46   1.482614 S    
C43   C47   1.557091 S    
C33   C34   1.417282 A    
C33   C36   1.412732 A    
C41   C46   1.555726 S    
C34   C35   1.412867 A    
C12   C13   1.409889 A    
O3    C2    1.296797 A    
C35   C40   1.407648 A    
C51   C52   1.576710 S    
C36   H7    1.077986 S    
C27   O10   1.350258 S    
C8    C16   1.405258 A    
C18   C33   1.419770 A    
C9    H1    1.082859 S    
C19   C38   1.423712 A    
O1    C1    1.290274 A    
C40   H10   1.080291 S    
C20   C24   1.419825 A    
C22   C23   1.397242 A    
C21   H6    1.077352 S    
C45   C48   1.598786 S    
H24   C52   1.111104 S    
C31   C32   1.397949 A    
C54   H28   1.110675 S    
Cu2   O8    1.950148 S    
C49   N3    1.488216 S    
C30   C56   1.445029 S    
N1    C6    1.368052 A    
N2    C32   1.438798 S    
C54   N4    1.489491 S    
C42   H12   1.112183 S    
C25   C26   1.420034 A    
C49   H19   1.112790 S    
C9    C16   1.404291 A    
O8    C4    1.297740 A    
H23   C51   1.110761 S    
N2    C27   1.365334 A    
C26   O12   1.348563 S    
C44   C47   1.556457 S    
C14   C36   1.388281 A    
C53   H25   1.112049 S    
C24   C25   1.414989 A    
C28   C29   1.397795 A    
C58   N8    1.157778 T    
C29   C60   1.444212 S    
C5    N1    1.364638 A    
C30   C31   1.395713 A    
C10   H2    1.082944 S    
O1    Cu1   1.969340 S    
C17   C30   1.417134 A    
O2    Cu2   1.969779 S    
C6    C15   1.414612 A    
C50   H22   1.112293 S    
C48   C58   1.483835 S    
C4    C17   1.477511 S    
O6    C3    1.290011 A    
O4    Cu2   1.951113 S    
C52   H30   1.112360 S    
C55   N5    1.157717 T    
C19   C35   1.424733 A    
C45   Cl3   1.812142 S    
O2    C1    1.290209 A    
C13   C14   1.398058 A    
C23   C27   1.399409 A    
C28   C32   1.399223 A    
C15   C37   1.415099 A    
C57   N7    1.157694 T    
O4    C2    1.296531 A    
C39   C57   1.453926 S    
C18   C20   1.422819 A    
C41   H13   1.113829 S    
C38   C39   1.410648 A    
C51   N3    1.489245 S    
C45   C46   1.576825 S    
C22   H5    1.083404 S    
C28   H4    1.084327 S    
Cu2   O6    1.969766 S    
C44   H18   1.112685 S    
C43   H17   1.112493 S    
C10   C11   1.400134 A    
C41   H11   1.112417 S    
C60   N10   1.157074 T    
C31   H9    1.084447 S    
C59   N9    1.157805 T    
