data_mof_unit_4189.cif
_audit_creation_date              2012-12-10T17:33:04-0500
_audit_creation_method            fapswitch 2.2
_symmetry_space_group_name_H-M    P1
_symmetry_Int_Tables_number       1
_space_group_crystal_system       triclinic
_cell_length_a                    15.583965
_cell_length_b                    15.518525
_cell_length_c                    17.799481
_cell_angle_alpha                 90.627757
_cell_angle_beta                  109.594785
_cell_angle_gamma                 68.342277
_cell_volume                      3737.63729229

loop_
_atom_site_label
_atom_site_type_symbol
_atom_type_description
_atom_site_fract_x
_atom_site_fract_y
_atom_site_fract_z
_atom_type_partial_charge
C1    C     C_R   0.463989 0.740298 0.531630 0.544658
C2    C     C_R   0.578634 0.386003 0.075267 -0.116661
C3    C     C_R   0.645621 0.337967 0.038942 0.261226
C4    C     C_R   0.539305 0.257884 0.473069 0.488094
C5    C     C_R   0.632732 0.374499 0.961818 -0.001074
C6    C     C_R   0.536731 0.437889 0.913383 -0.036998
C7    C     C_R   0.711014 0.350166 0.931146 0.022104
C8    C     C_R   0.687346 0.368314 0.847591 0.261973
C9    C     C_R   0.514186 0.451046 0.830195 -0.181436
C10   C     C_R   0.379826 0.977843 0.597293 0.261078
C11   C     C_R   0.449060 0.836609 0.542223 0.001993
C12   C     C_R   0.318278 0.648444 0.153563 -0.134626
C13   C     C_R   0.606319 0.116057 0.412465 -0.133995
C14   C     C_R   0.614256 0.026808 0.394841 -0.150184
C15   C     C_R   0.577016 0.977397 0.430986 -0.115989
C16   C     C_R   0.757388 0.448359 0.531941 0.490349
C17   C     C_R   0.536569 0.014102 0.490255 0.033867
C18   C     C_R   0.538531 0.101065 0.514983 0.036686
C19   C     C_R   0.491102 0.968580 0.523970 -0.029627
C20   C     C_R   0.435448 0.016891 0.571259 -0.004961
C21   C     C_R   0.444416 0.098751 0.598637 -0.089335
C22   C     C_R   0.510541 0.129675 0.582440 0.029236
C23   C     C_R   0.466440 0.517334 0.159692 -0.133517
C24   C     C_R   0.499773 0.876604 0.512873 -0.195180
C25   C     C_R   0.384183 0.888243 0.579986 0.249953
C26   C     C_R   0.564665 0.156286 0.469519 0.011827
C27   C     C_R   0.033761 0.349512 0.619633 -0.111077
C28   C     C_R   0.242122 0.553790 0.470513 0.489227
C29   C     C_R   0.859481 0.433326 0.544197 0.061165
C30   C     C_R   0.067581 0.627028 0.381132 -0.128846
C31   C     C_R   0.972229 0.629049 0.353744 -0.147757
C32   C     C_R   0.943826 0.581418 0.400330 -0.113964
C33   C     C_R   0.007156 0.538459 0.479110 0.022075
C34   C     C_R   0.435875 0.526673 0.075268 0.028463
C35   C     C_R   0.105604 0.533840 0.506367 -0.020905
C36   C     C_R   0.979142 0.489514 0.527413 -0.007292
C37   C     C_R   0.054588 0.419479 0.589770 0.021255
C38   C     C_R   0.149183 0.421651 0.621089 0.250868
C39   C     C_R   0.171148 0.483837 0.582530 -0.100762
C40   C     C_R   0.560342 0.440806 0.711813 0.505825
C41   C     C_R   0.879698 0.506285 0.516210 -0.012371
C42   C     C_R   0.937629 0.351815 0.592251 -0.011627
C43   C     C_R   0.136752 0.575283 0.455030 0.021111
C44   C     C_R   0.439878 0.558655 0.286996 0.503967
C45   C     C_R   0.346331 0.601333 0.030511 0.053881
C46   C     C_R   0.408124 0.576727 0.198941 0.017099
C47   C     C_R   0.587875 0.416238 0.797613 0.021660
C48   C     C_R   0.287817 0.660920 0.069902 -0.139070
C49   C     C_3   0.818966 0.317619 0.986375 -0.238566
C50   C     C_3   0.858191 0.394850 0.987927 -0.418763
C51   C     C_3   0.238924 0.868934 0.548626 0.023347
C52   C     C_3   0.193793 0.804177 0.569037 -0.256208
C53   C     C_3   0.092391 0.821842 0.506009 -0.483275
C54   C     C_3   0.363013 0.004424 0.718858 0.013988
C55   C     C_3   0.300768 0.074644 0.759769 -0.264889
C56   C     C_R   0.494732 0.467089 0.034670 -0.020312
C57   C     C_3   0.350238 0.055720 0.851132 -0.499056
C58   C     C_3   0.564356 0.174819 0.647710 -0.250831
C59   C     C_3   0.617459 0.110990 0.728271 -0.476764
C60   C     C_3   0.921064 0.269526 0.620636 -0.281051
C61   C     C_3   0.966600 0.182586 0.583970 -0.435950
C62   C     C_3   0.216071 0.397545 0.757781 -0.007555
C63   C     C_3   0.308470 0.338967 0.828946 -0.256446
C64   C     C_3   0.298445 0.366819 0.909020 -0.478961
C65   C     C_3   0.801783 0.606626 0.496715 -0.271834
C66   C     C_3   0.806974 0.653447 0.573229 -0.415967
C67   C     C_R   0.468406 0.488332 0.950563 0.029919
C68   C     C_3   0.768147 0.275838 0.769631 0.015303
C69   C     C_3   0.849254 0.184199 0.818735 -0.278978
C70   C     C_3   0.873546 0.108217 0.765213 -0.491655
C71   C     C_3   0.707224 0.178527 0.037176 0.002594
C72   C     C_3   0.625153 0.154511 0.049217 -0.265358
C73   C     C_3   0.614925 0.070895 0.006862 -0.489993
C74   C     C_R   0.378249 0.563417 0.907901 -0.133834
C75   C     C_R   0.317522 0.617401 0.947194 -0.144647
H1    H     H_    0.249352 0.674622 0.912385 0.099771
H2    H     H_    0.873342 0.575315 0.372740 0.111798
H3    H     H_    0.921675 0.663556 0.294191 0.112316
H4    H     H_    0.241996 0.488261 0.611816 0.154056
H5    H     H_    0.218787 0.717693 0.035963 0.101366
H6    H     H_    0.271554 0.694732 0.182646 0.131610
H7    H     H_    0.537074 0.465668 0.196549 0.128204
H8    H     H_    0.353591 0.584248 0.844251 0.102706
H9    H     H_    0.592679 0.356327 0.134820 0.127174
H10   H     H_    0.859347 0.413102 0.928334 0.204609
H11   H     H_    0.811623 0.458423 0.006499 0.150487
H12   H     H_    0.411920 0.130781 0.642197 0.157645
H13   H     H_    0.934985 0.370706 0.031977 0.124045
H14   H     H_    0.830919 0.298159 0.049519 0.194886
H15   H     H_    0.864936 0.254751 0.966974 0.141793
H16   H     H_    0.242405 0.858900 0.487356 0.141462
H17   H     H_    0.190631 0.942794 0.548188 0.163257
H18   H     H_    0.243601 0.730218 0.572312 0.173866
H19   H     H_    0.186425 0.815375 0.628741 0.162495
H20   H     H_    0.040716 0.894995 0.502465 0.143401
H21   H     H_    0.061996 0.773654 0.522760 0.150219
H22   H     H_    0.098478 0.809009 0.446122 0.158834
H23   H     H_    0.548236 0.833002 0.484097 0.104105
H24   H     H_    0.438590 0.005483 0.740518 0.109246
H25   H     H_    0.368483 0.933311 0.735997 0.179734
H26   H     H_    0.289933 0.146491 0.739095 0.192278
H27   H     H_    0.226955 0.070637 0.742301 0.165532
H28   H     H_    0.361154 0.984420 0.873242 0.151991
H29   H     H_    0.302722 0.107497 0.878795 0.144790
H30   H     H_    0.422879 0.062240 0.869837 0.142810
H31   H     H_    0.563965 0.098863 0.750772 0.139024
H32   H     H_    0.670238 0.042657 0.721610 0.155721
H33   H     H_    0.658663 0.143997 0.774350 0.131002
H34   H     H_    0.629431 0.155100 0.378670 0.140936
H35   H     H_    0.621234 0.189319 0.631855 0.134064
H36   H     H_    0.510341 0.241288 0.655852 0.200589
H37   H     H_    0.934669 0.196958 0.517274 0.169844
H38   H     H_    0.048056 0.160550 0.604148 0.163315
H39   H     H_    0.950555 0.124149 0.603094 0.126969
H40   H     H_    0.954979 0.254891 0.687300 0.133849
H41   H     H_    0.841533 0.283573 0.604318 0.140859
H42   H     H_    0.149619 0.395703 0.767227 0.134158
H43   H     H_    0.211274 0.471117 0.755548 0.118125
H44   H     H_    0.321115 0.263788 0.827769 0.170128
H45   H     H_    0.577845 0.912145 0.409169 0.102985
H46   H     H_    0.373700 0.348536 0.823930 0.172295
H47   H     H_    0.280068 0.442868 0.910371 0.164505
H48   H     H_    0.369212 0.328032 0.958949 0.146580
H49   H     H_    0.239300 0.349542 0.918265 0.143306
H50   H     H_    0.799117 0.612079 0.619050 0.190498
H51   H     H_    0.878959 0.661045 0.599170 0.139903
H52   H     H_    0.746710 0.724083 0.558707 0.133658
H53   H     H_    0.810549 0.652647 0.455684 0.134515
H54   H     H_    0.726199 0.608234 0.466306 0.142594
H55   H     H_    0.787276 0.293349 0.718712 0.147782
H56   H     H_    0.644676 0.997680 0.349451 0.113477
H57   H     H_    0.697271 0.266398 0.742471 0.105502
H58   H     H_    0.917484 0.196164 0.851887 0.173102
H59   H     H_    0.824398 0.159767 0.863020 0.138495
H60   H     H_    0.806235 0.097304 0.728163 0.149613
H61   H     H_    0.928130 0.041498 0.803222 0.145230
H62   H     H_    0.905997 0.127967 0.724851 0.144761
H63   H     H_    0.777844 0.116494 0.061846 0.148188
H64   H     H_    0.693017 0.191716 0.971910 0.118069
H65   H     H_    0.642312 0.138236 0.114540 0.170250
H66   H     H_    0.553366 0.215212 0.024400 0.154317
H67   H     H_    0.439915 0.489743 0.789070 0.110898
H68   H     H_    0.595801 0.086662 0.941163 0.140401
H69   H     H_    0.555171 0.055252 0.016649 0.145914
H70   H     H_    0.685038 0.008299 0.031308 0.145677
H71   H     H_    0.092612 0.291737 0.663080 0.149578
H72   H     H_    0.089349 0.659914 0.341359 0.130359
O1    O     O_3   0.500000 0.500000 0.500000 -0.433390
O2    O     O_R   0.596500 0.492780 0.688380 -0.507149
O3    O     O_R   0.388780 0.611210 0.325000 -0.548055
O4    O     O_R   0.499860 0.410860 0.661600 -0.579075
O5    O     O_R   0.514860 0.485140 0.325020 -0.543111
O6    O     O_3   0.333537 0.847164 0.607705 -0.578777
O7    O     O_3   0.316378 0.029718 0.634808 -0.573440
O8    O     O_3   0.223164 0.359759 0.686519 -0.581360
O9    O     O_3   0.762773 0.349939 0.817285 -0.572460
O10   O     O_3   0.720065 0.253443 0.079556 -0.594025
O11   O     O_R   0.707110 0.418540 0.472990 -0.544221
O12   O     O_R   0.267620 0.606720 0.435250 -0.555341
O13   O     O_R   0.540230 0.674660 0.578090 -0.534545
O14   O     O_R   0.485030 0.300080 0.513670 -0.544894
O15   O     O_R   0.403610 0.721990 0.472930 -0.551670
O16   O     O_R   0.571130 0.303270 0.435320 -0.549418
O17   O     O_R   0.717650 0.497270 0.578120 -0.552364
O18   O     O_R   0.307610 0.477470 0.513630 -0.535720
Zn1   Zn    Zn3+2 0.572030 0.427990 0.434470 0.920535
Zn2   Zn    Zn3+2 0.587090 0.540470 0.584680 0.937311
Zn3   Zn    Zn3+2 0.449010 0.423430 0.546420 0.913218
Zn4   Zn    Zn3+2 0.391880 0.608100 0.434430 0.923786

loop_
_geom_bond_atom_site_label_1
_geom_bond_atom_site_label_2
_ccdc_geom_bond_type
C40   C47   S    
C57   H30   S    
C21   H12   S    
C34   C56   A    
C69   H59   S    
C23   H7    S    
C29   C42   A    
C53   H20   S    
O1    Zn1   S    
C2    H9    S    
C19   C20   A    
C18   C26   A    
C74   H8    S    
C12   C48   A    
C10   O7    S    
C6    C9    A    
C30   H72   S    
C66   H52   S    
C55   H27   S    
C62   C63   S    
C24   H23   S    
C36   C37   A    
C5    C6    A    
O3    Zn4   S    
C11   C25   A    
O4    Zn3   S    
C11   C24   A    
C33   C36   A    
C15   H45   S    
O13   Zn2   S    
C68   H57   S    
C62   H42   S    
C13   H34   S    
C50   H10   S    
C51   H16   S    
C32   H2    S    
C10   C20   A    
C68   C69   S    
O2    Zn2   S    
C40   O2    A    
C52   H19   S    
C35   C43   A    
C49   H15   S    
C50   H13   S    
C23   C46   A    
C58   H35   S    
C13   C14   A    
C53   H21   S    
C70   H61   S    
C13   C26   A    
C54   H25   S    
C36   C41   A    
C38   O8    S    
C57   H28   S    
C63   H46   S    
C44   C46   S    
C17   C18   A    
C71   H63   S    
C14   H56   S    
C1    O13   A    
C72   H66   S    
C71   O10   S    
C59   H31   S    
C74   C75   A    
C25   O6    S    
C51   C52   S    
C65   H53   S    
C7    C8    A    
O16   Zn1   S    
C38   C39   A    
C7    C49   S    
C12   C46   A    
C42   C60   S    
C5    C7    A    
C17   C19   A    
C41   C65   S    
C53   H22   S    
C16   C29   S    
C64   H49   S    
C16   O11   A    
C28   O12   A    
C16   O17   A    
C66   H51   S    
C40   O4    A    
C73   H70   S    
C60   C61   S    
C39   H4    S    
C35   C39   A    
C75   H1    S    
C54   O7    S    
C37   C38   A    
C51   H17   S    
C63   H44   S    
C4    C26   S    
C31   C32   A    
C14   C15   A    
C23   C34   A    
O1    Zn4   S    
C4    O16   A    
C52   H18   S    
C67   C74   A    
C44   O5    A    
C68   H55   S    
C34   C45   A    
C28   O18   A    
C30   C43   A    
C10   C25   A    
C6    C67   A    
C1    O15   A    
C9    C47   A    
O18   Zn3   S    
C55   C57   S    
C61   H38   S    
C70   H60   S    
O1    Zn3   S    
C49   C50   S    
C54   H24   S    
C60   H41   S    
C56   C67   A    
C52   C53   S    
O11   Zn1   S    
C31   H3    S    
C62   O8    S    
C73   H68   S    
C45   C48   A    
O5    Zn1   S    
C15   C17   A    
C57   H29   S    
C54   C55   S    
C51   O6    S    
C69   H58   S    
O12   Zn4   S    
C29   C41   A    
C18   C22   A    
O17   Zn2   S    
C49   H14   S    
C72   C73   S    
C3    C5    A    
C22   C58   S    
C65   H54   S    
C9    H67   S    
C59   H32   S    
C71   H64   S    
C64   H48   S    
C55   H26   S    
C28   C43   S    
C59   H33   S    
C66   H50   S    
C45   C75   A    
C58   H36   S    
C32   C33   A    
C48   H5    S    
C2    C3    A    
C58   C59   S    
C8    C47   A    
C71   C72   S    
C2    C56   A    
C27   C42   A    
C30   C31   A    
O15   Zn4   S    
C27   C37   A    
C27   H71   S    
C64   H47   S    
C33   C35   A    
C12   H6    S    
C19   C24   A    
C69   C70   S    
C8    O9    S    
C44   O3    A    
C62   H43   S    
O14   Zn3   S    
C50   H11   S    
C63   C64   S    
C72   H65   S    
C20   C21   A    
C70   H62   S    
C65   C66   S    
C61   H39   S    
C3    O10   S    
O1    Zn2   S    
C4    O14   A    
C60   H40   S    
C1    C11   S    
C21   C22   A    
C61   H37   S    
C68   O9    S    
C73   H69   S    
