data_mof_unit_4374.cif
_audit_creation_date              2012-12-11T15:59:30-0500
_audit_creation_method            fapswitch 2.2
_symmetry_space_group_name_H-M    P1
_symmetry_Int_Tables_number       1
_space_group_crystal_system       triclinic
_cell_length_a                    10.715407
_cell_length_b                    10.715449
_cell_length_c                    17.069941
_cell_angle_alpha                 99.508997
_cell_angle_beta                  99.924807
_cell_angle_gamma                 60.706283
_cell_volume                      1676.28330635

loop_
_atom_site_label
_atom_site_type_symbol
_atom_type_description
_atom_site_fract_x
_atom_site_fract_y
_atom_site_fract_z
_atom_type_partial_charge
C1    C     C_R   0.356332 0.769108 0.397827 0.556374
C2    C     C_R   0.857488 0.203554 0.198282 -0.010751
C3    C     C_R   0.872828 0.210802 0.282571 0.058539
C4    C     C_R   0.787553 0.468954 0.286183 -0.164226
C5    C     C_R   0.790587 0.458079 0.205600 -0.159129
C6    C     C_R   0.871374 0.073996 0.154511 -0.081510
C7    C     C_R   0.922621 0.950061 0.192377 -0.170796
C8    C     C_R   0.955505 0.953317 0.274785 -0.127092
C9    C     C_R   0.932401 0.082455 0.320879 0.261750
C10   C     C_R   0.826404 0.347378 0.325456 0.029701
C11   C     C_R   0.356708 0.814870 0.157279 -0.001474
C12   C     C_R   0.369127 0.346454 0.357455 0.570232
C13   C     C_R   0.449307 0.849024 0.216282 0.020764
C14   C     C_R   0.434221 0.855359 0.297615 0.014281
C15   C     C_R   0.284494 0.737940 0.256753 -0.144413
C16   C     C_R   0.285310 0.748083 0.177780 -0.149421
C17   C     C_R   0.554526 0.878823 0.197136 -0.095023
C18   C     C_R   0.630641 0.928132 0.256391 -0.131076
C19   C     C_R   0.607655 0.945175 0.335786 -0.101625
C20   C     C_R   0.507860 0.912405 0.356474 -0.089992
C21   C     C_R   0.348863 0.800605 0.317320 0.019858
C22   C     C_R   0.298910 0.278243 0.799442 -0.006190
C23   C     C_R   0.775909 0.377761 0.403420 0.614253
C24   C     C_R   0.424899 0.177232 0.762794 0.040679
C25   C     C_R   0.478644 0.226232 0.712972 0.038975
C26   C     C_R   0.250155 0.448504 0.707141 -0.145043
C27   C     C_R   0.211347 0.412814 0.770170 -0.145134
C28   C     C_R   0.503101 0.030599 0.777504 -0.078841
C29   C     C_R   0.641943 0.943384 0.755826 -0.107917
C30   C     C_R   0.705414 0.001179 0.719271 -0.111721
C31   C     C_R   0.624716 0.141434 0.698025 -0.081964
C32   C     C_R   0.382448 0.354868 0.677022 -0.007849
C33   C     C_1   0.846587 0.328798 0.705575 -0.055890
C34   C     C_R   0.381184 0.715343 0.631603 0.539739
C35   C     C_1   0.893367 0.293879 0.772256 -0.052350
C36   C     C_1   0.358355 0.765075 0.713792 -0.054332
C37   C     C_1   0.325469 0.811641 0.780655 -0.058907
C38   C     C_R   0.891082 0.308648 0.087161 0.560196
C39   C     C_R   0.319555 0.300045 0.120036 0.564021
C40   C     C_R   0.298843 0.886497 0.083889 0.553342
C41   C     C_R   0.943309 0.273555 0.854662 0.542639
C42   C     C_R   0.278791 0.253422 0.877025 0.526136
C43   C     C_R   0.280875 0.880939 0.857741 0.531827
C44   C     C_R   0.408373 0.375618 0.600059 0.530647
C45   C     C_R   0.777946 0.378322 0.629058 0.545191
C46   C     C_1   0.342825 0.336829 0.274077 -0.035849
C47   C     C_1   0.332093 0.326652 0.203292 -0.038826
C48   C     C_R   0.831502 0.325786 0.161227 -0.002079
Cr1   Cr    Cr6+3 0.608100 0.610860 0.522250 1.019017
Cr2   Cr    Cr6+3 0.288890 0.599990 0.488420 1.009232
Cr3   Cr    Cr6+3 0.603040 0.289190 0.489390 1.014672
Cr4   Cr    Cr6+3 0.053960 0.052250 0.967380 1.016859
Cr5   Cr    Cr6+3 0.059890 0.373160 0.992710 1.012298
Cr6   Cr    Cr6+3 0.373370 0.061690 0.991710 0.997836
H1    H     H_    0.749794 0.575752 0.317229 0.157772
H2    H     H_    0.706150 0.955013 0.240276 0.131286
H3    H     H_    0.667814 0.983394 0.381500 0.141430
H4    H     H_    0.489613 0.932294 0.418702 0.144433
H5    H     H_    0.176737 0.549221 0.682006 0.143977
H6    H     H_    0.458219 0.983071 0.806417 0.150685
H7    H     H_    0.113445 0.490509 0.796111 0.142538
H8    H     H_    0.701424 0.832483 0.769508 0.121994
H9    H     H_    0.815599 0.936425 0.705382 0.119989
H10   H     H_    0.677120 0.181992 0.669314 0.150862
H11   H     H_    0.838890 0.067321 0.091108 0.149098
H12   H     H_    0.766742 0.553040 0.178471 0.140217
H13   H     H_    0.935211 0.851112 0.157748 0.111158
H14   H     H_    0.995719 0.855461 0.303018 0.109150
H15   H     H_    0.230812 0.681901 0.270201 0.137424
H16   H     H_    0.584138 0.859007 0.137232 0.138738
H17   H     H_    0.221700 0.712355 0.132961 0.135940
O1    O     O_R   0.749810 0.499790 0.438040 -0.531415
O2    O     O_R   0.298970 0.468800 0.557390 -0.499472
O3    O     O_R   0.489400 0.255930 0.561910 -0.513675
O4    O     O_R   0.723890 0.306050 0.584610 -0.527907
O5    O     O_3   0.500010 0.500010 0.500020 -0.291603
O6    O     O_R   0.171100 0.914680 0.053100 -0.510190
O7    O     O_R   0.941680 0.184840 0.050710 -0.502133
O8    O     O_R   0.922080 0.403420 0.072610 -0.514901
O9    O     O_R   0.196880 0.369150 0.083850 -0.494452
O10   O     O_R   0.411730 0.181020 0.091530 -0.506903
O11   O     O_R   0.365010 0.944360 0.063320 -0.510382
O12   O     O_R   0.477660 0.726260 0.439290 -0.506101
O13   O     O_R   0.159380 0.906670 0.876210 -0.508540
O14   O     O_R   0.930820 0.177420 0.886730 -0.484463
O15   O     O_R   0.910360 0.395420 0.895720 -0.513260
O16   O     O_R   0.186010 0.361730 0.919870 -0.506962
O17   O     O_R   0.400000 0.173010 0.914630 -0.509252
O18   O     O_R   0.354140 0.936940 0.899340 -0.536887
O19   O     O_3   0.162410 0.162370 0.983930 -0.278155
O20   O     O_R   0.260150 0.743000 0.412270 -0.531710
O21   O     O_R   0.297740 0.466550 0.394720 -0.498723
O22   O     O_R   0.488080 0.253500 0.386430 -0.515330
O23   O     O_R   0.722670 0.303800 0.421940 -0.457314
O24   O     O_R   0.751130 0.502220 0.613520 -0.507083
O25   O     O_R   0.478890 0.728510 0.601960 -0.481430
O26   O     O_R   0.261470 0.745430 0.587750 -0.508536
O27   O     O_3   0.974897 0.083587 0.402080 -0.692117
H18   H     H_    0.009609 0.986797 0.419049 0.332570

loop_
_geom_bond_atom_site_label_1
_geom_bond_atom_site_label_2
_ccdc_geom_bond_type
C25   C31   A    
C1    C21   S    
C9    O27   S    
C33   C45   S    
Cr4   O19   S    
C19   C20   A    
Cr3   O3    S    
C7    C8    A    
C19   H3    S    
C26   C32   A    
C41   O15   A    
C26   C27   A    
C43   O18   A    
C14   C21   A    
C28   C29   A    
Cr5   O8    S    
C34   O25   A    
Cr6   O19   S    
C30   C31   A    
C38   O8    A    
C15   C16   A    
C34   O26   A    
C14   C20   A    
C18   C19   A    
Cr4   O13   S    
C27   H7    S    
C46   C47   T    
C6    H11   S    
C8    C9    A    
Cr1   O1    S    
Cr5   O15   S    
C26   H5    S    
C38   C48   S    
C18   H2    S    
C25   C32   A    
C17   H16   S    
C1    O20   A    
C30   H9    S    
C43   O13   A    
C2    C6    A    
C16   H17   S    
Cr4   O7    S    
C31   H10   S    
C28   H6    S    
C15   H15   S    
C5    C48   A    
C40   O11   A    
Cr5   O9    S    
C24   C25   A    
C39   O10   A    
Cr6   O18   S    
C12   C46   S    
Cr2   O2    S    
C5    H12   S    
C38   O7    A    
C2    C48   A    
Cr1   O24   S    
C37   C43   S    
C29   C30   A    
C3    C9    A    
Cr2   O5    S    
C11   C16   A    
C17   C18   A    
C32   C44   S    
Cr1   O5    S    
Cr5   O16   S    
Cr3   O5    S    
C44   O3    A    
Cr3   O22   S    
Cr2   O21   S    
C8    H14   S    
C22   C27   A    
C4    H1    S    
C22   C24   A    
C12   O22   A    
C42   O17   A    
C4    C10   A    
Cr4   O6    S    
C45   O24   A    
Cr6   O11   S    
C39   C47   S    
C44   O2    A    
C29   H8    S    
Cr4   O14   S    
Cr2   O26   S    
C23   O1    A    
C12   O21   A    
C24   C28   A    
Cr3   O4    S    
C4    C5    A    
C6    C7    A    
C10   C23   S    
C1    O12   A    
C41   O14   A    
C23   O23   A    
C13   C17   A    
C45   O4    A    
C39   O9    A    
Cr1   O12   S    
C2    C3    A    
C3    C10   A    
Cr6   O17   S    
C11   C13   A    
C22   C42   S    
C33   C35   T    
C34   C36   S    
Cr1   O25   S    
C11   C40   S    
C35   C41   S    
Cr3   O23   S    
C7    H13   S    
Cr2   O20   S    
C15   C21   A    
C36   C37   T    
O27   H18   S    
Cr5   O19   S    
C40   O6    A    
C42   O16   A    
C13   C14   A    
C20   H4    S    
Cr6   O10   S    
