data_mof_unit_201.cif
_audit_creation_date              2012-12-10T17:43:34-0500
_audit_creation_method            fapswitch 2.2
_symmetry_space_group_name_H-M    P1
_symmetry_Int_Tables_number       1
_space_group_crystal_system       triclinic
_cell_length_a                    14.950437
_cell_length_b                    10.713424
_cell_length_c                    9.877587
_cell_angle_alpha                 89.485067
_cell_angle_beta                  91.084325
_cell_angle_gamma                 91.705099
_cell_volume                      1581.0568846

loop_
_atom_site_label
_atom_site_type_symbol
_atom_type_description
_atom_site_fract_x
_atom_site_fract_y
_atom_site_fract_z
_atom_type_partial_charge
C1    C     C_R   0.507745 0.260416 0.501957 0.881157
C2    C     C_R   0.907424 0.573873 0.401425 -0.063326
C3    C     C_R   0.953783 0.341135 0.678298 -0.173736
C4    C     C_R   0.046406 0.341149 0.678181 -0.238503
C5    C     C_R   0.092969 0.416525 0.586067 0.155187
C6    C     C_R   0.046482 0.489079 0.489243 0.106361
C7    C     C_R   0.093662 0.558425 0.390493 0.031858
C8    C     C_R   0.047816 0.624206 0.290150 -0.287822
C9    C     C_R   0.954921 0.628247 0.291111 0.534387
C10   C     C_R   0.185574 0.420951 0.589249 -0.261219
C11   C     C_R   0.231394 0.493854 0.494350 -0.054921
C12   C     C_R   0.326902 0.498663 0.498625 0.868514
C13   C     C_R   0.186306 0.559346 0.392757 -0.219485
C14   C     C_R   0.526051 0.110977 0.761891 -0.137578
C15   C     C_R   0.496906 0.049657 0.878866 -0.159502
C16   C     C_R   0.448741 0.937183 0.868468 -0.149692
C17   C     C_R   0.437875 0.880318 0.742630 -0.152192
C18   C     C_R   0.475332 0.936281 0.625068 0.089064
C19   C     C_R   0.506758 0.060058 0.631961 0.098664
C20   C     C_R   0.516128 0.127027 0.507934 -0.105972
C21   C     C_R   0.517858 0.064520 0.384715 -0.248450
C22   C     C_R   0.505454 0.937585 0.382084 -0.236498
C23   C     C_R   0.492113 0.739390 0.499786 0.873729
C24   C     C_R   0.485171 0.872682 0.501348 -0.118603
C25   C     C_R   0.383192 0.335349 0.138768 -0.289143
C26   C     C_R   0.326294 0.251567 0.067607 0.552543
C27   C     C_R   0.325753 0.254149 0.927270 -0.271769
C28   C     C_R   0.383558 0.334962 0.858070 -0.261301
C29   C     C_R   0.442823 0.418230 0.926852 0.169952
C30   C     C_R   0.442699 0.418392 0.071528 0.103188
C31   C     C_R   0.554625 0.578295 0.072358 -0.118579
C32   C     C_R   0.554606 0.578267 0.929021 -0.139774
C33   C     C_R   0.673223 0.501651 0.501639 0.968110
C34   C     C_R   0.816051 0.593546 0.422522 0.053491
C35   C     C_R   0.769420 0.507825 0.506609 -0.216411
C36   C     C_R   0.814225 0.427757 0.596768 0.424829
C37   C     C_R   0.906879 0.421384 0.590803 0.037518
C38   C     C_R   0.953320 0.494269 0.493193 -0.105867
H1    H     H_    0.565585 0.196113 0.775607 0.182120
H2    H     H_    0.509811 0.091040 0.977197 0.132258
H3    H     H_    0.422147 0.892128 0.958269 0.137220
H4    H     H_    0.399447 0.793262 0.738490 0.164873
H5    H     H_    0.512208 0.890513 0.286318 0.171949
H6    H     H_    0.599034 0.642387 0.126895 0.135586
H7    H     H_    0.377849 0.334332 0.245740 0.222328
H8    H     H_    0.280687 0.191905 0.870990 0.172055
H9    H     H_    0.379823 0.328886 0.750802 0.227670
H10   H     H_    0.599086 0.642203 0.875519 0.147468
H11   H     H_    0.919523 0.279131 0.748561 0.185297
H12   H     H_    0.081592 0.282228 0.749956 0.155850
H13   H     H_    0.222019 0.367168 0.664448 0.144353
H14   H     H_    0.223454 0.613507 0.318061 0.153285
H15   H     H_    0.083873 0.670868 0.209010 0.173240
H16   H     H_    0.528040 0.113716 0.289622 0.170786
N1    N     N_R   0.499150 0.498800 0.142780 -0.106017
N2    N     N_R   0.499120 0.498720 0.857170 -0.114691
O1    O     O_R   0.500000 0.316780 0.614690 -0.648679
O2    O     O_R   0.499990 0.316750 0.385360 -0.644057
O3    O     O_R   0.367850 0.499980 0.614680 -0.639648
O4    O     O_R   0.367840 0.499960 0.385350 -0.636627
O5    O     O_R   0.500010 0.683250 0.614640 -0.631239
O6    O     O_R   0.500000 0.683220 0.385310 -0.621219
O7    O     O_R   0.632160 0.500040 0.614650 -0.597818
O8    O     O_R   0.632150 0.500020 0.385320 -0.631279
Zn1   Zn    Zn3+2 0.500010 0.500020 0.653130 0.930836
Zn2   Zn    Zn3+2 0.499990 0.499980 0.346870 0.927724
C39   C     C_3   0.770775 0.712902 0.373783 -0.344630
C40   C     C_3   0.739918 0.791350 0.492146 -0.882214
H17   H     H_    0.686644 0.742554 0.550304 0.257222
H18   H     H_    0.797374 0.813925 0.561515 0.265383
H19   H     H_    0.712554 0.880147 0.452770 0.260769
H20   H     H_    0.816459 0.776704 0.318106 0.263908
H21   H     H_    0.713520 0.690379 0.304513 0.214647
O9    O     O_3   0.265038 0.173513 0.132697 -0.598816
C41   C     C_3   0.310379 0.089588 0.218756 -0.305909
H22   H     H_    0.333333 0.136167 0.313761 0.168596
H23   H     H_    0.367433 0.046212 0.167635 0.147603
H24   H     H_    0.262856 0.012837 0.247514 0.198158
O10   O     O_3   0.766274 0.351580 0.685677 -0.607498
C42   C     C_3   0.763644 0.410651 0.813118 -0.285023
H25   H     H_    0.827668 0.400838 0.870222 0.139787
H26   H     H_    0.710144 0.364241 0.873439 0.188636
H27   H     H_    0.748040 0.511519 0.805025 0.159576
O11   O     O_3   0.912495 0.681147 0.180013 -0.620748
C43   C     C_3   0.880035 0.584707 0.094384 -0.354268
H28   H     H_    0.827657 0.525587 0.144402 0.167435
H29   H     H_    0.935317 0.526057 0.059753 0.175082
H30   H     H_    0.848729 0.627559 0.003205 0.190468

loop_
_geom_bond_atom_site_label_1
_geom_bond_atom_site_label_2
_ccdc_geom_bond_type
O7    Zn1   S    
C28   H9    S    
C35   C36   A    
C3    H11   S    
C7    C8    A    
C43   H28   S    
C26   C27   A    
C29   C30   A    
C18   C24   A    
C36   C37   A    
C34   C35   A    
C33   O8    A    
C21   H16   S    
C16   C17   A    
C15   C16   A    
C18   C19   A    
C17   H4    S    
C33   C35   S    
C14   H1    S    
C40   H17   S    
C12   O3    A    
O2    Zn2   S    
C23   O6    A    
C19   C20   A    
C8    C9    A    
C23   C24   S    
C6    C38   A    
C39   H21   S    
C2    C34   A    
O4    Zn2   S    
C21   C22   A    
C32   H10   S    
C42   H27   S    
C10   H13   S    
C43   H29   S    
O9    C41   S    
O6    Zn2   S    
C39   C40   S    
C39   H20   S    
O11   C43   S    
C42   H26   S    
C31   H6    S    
C42   H25   S    
C25   C26   A    
C4    H12   S    
O8    Zn2   S    
C34   C39   S    
C41   H22   S    
C37   C38   A    
C1    O1    A    
C13   H14   S    
C2    C38   A    
C31   C32   A    
C7    C13   A    
C33   O7    A    
C17   C18   A    
C41   H23   S    
C27   H8    S    
C22   C24   A    
C3    C4    A    
C25   H7    S    
N1    Zn2   S    
C43   H30   S    
C25   C30   A    
C28   C29   A    
C1    C20   S    
C14   C19   A    
O1    Zn1   S    
C4    C5    A    
C36   O10   S    
C8    H15   S    
C11   C12   S    
C6    C7    A    
C29   N2    A    
C30   N1    A    
C5    C10   A    
C1    O2    A    
O3    Zn1   S    
C11   C13   A    
C5    C6    A    
C40   H19   S    
C26   O9    S    
C41   H24   S    
C15   H2    S    
C10   C11   A    
C9    O11   S    
O10   C42   S    
C12   O4    A    
O5    Zn1   S    
C23   O5    A    
C20   C21   A    
C3    C37   A    
C40   H18   S    
C27   C28   A    
C14   C15   A    
C31   N1    A    
C2    C9    A    
C16   H3    S    
C32   N2    A    
C22   H5    S    
N2    Zn1   S    
