data_mof_unit_4895.cif
_audit_creation_date              2012-12-10T20:48:45-0500
_audit_creation_method            fapswitch 2.2
_symmetry_space_group_name_H-M    P1
_symmetry_Int_Tables_number       1
_space_group_crystal_system       triclinic
_cell_length_a                    15.701501
_cell_length_b                    8.941773
_cell_length_c                    8.12024
_cell_angle_alpha                 89.965819
_cell_angle_beta                  88.645166
_cell_angle_gamma                 90.078853
_cell_volume                      1139.75564254

loop_
_atom_site_label
_atom_site_type_symbol
_atom_type_description
_atom_site_fract_x
_atom_site_fract_y
_atom_site_fract_z
_atom_type_partial_charge
C1    C     C_R   0.500017 0.218007 0.500030 0.931804
C2    C     C_1   0.825636 0.538823 0.484207 -0.101764
C3    C     C_1   0.173922 0.530255 0.506749 -0.129553
C4    C     C_R   0.337636 0.499825 0.501967 0.907766
C5    C     C_R   0.662355 0.500642 0.497917 0.906012
C6    C     C_1   0.500066 0.934798 0.499948 -0.199753
C7    C     C_1   0.500053 0.065161 0.500041 -0.197056
C8    C     C_R   0.500052 0.781962 0.499964 0.929875
C9    C     C_3   0.042364 0.517281 0.671513 -0.485375
C10   C     C_3   0.049233 0.424696 0.385326 -0.430398
C11   C     C_3   0.945299 0.514094 0.658742 -0.457391
C12   C     C_3   0.954046 0.440362 0.361086 -0.448780
C13   C     C_1   0.750896 0.518902 0.491651 -0.203239
C14   C     C_1   0.248853 0.513842 0.506496 -0.201243
C15   C     C_3   0.082710 0.551145 0.499463 0.311734
C16   C     C_3   0.917185 0.558410 0.481869 0.300291
C17   C     C_3   0.950674 0.724462 0.434597 0.208809
C18   C     C_3   0.057068 0.718957 0.444896 0.187533
H1    H     H_    0.923183 0.398884 0.688816 0.199064
H2    H     H_    0.923635 0.329209 0.383372 0.181406
H3    H     H_    0.064369 0.407325 0.718212 0.194440
H4    H     H_    0.060285 0.314629 0.445050 0.191575
N1    N     N_1   0.500000 0.500030 0.073640 -0.035651
N2    N     N_1   0.500000 0.500030 0.926360 -0.034575
O1    O     O_R   0.500000 0.285340 0.636850 -0.614505
O2    O     O_R   0.500000 0.285340 0.363150 -0.615854
O3    O     O_R   0.377140 0.500000 0.636930 -0.614824
O4    O     O_R   0.377140 0.500000 0.363070 -0.614987
O5    O     O_R   0.622860 0.500000 0.636930 -0.616060
O6    O     O_R   0.622860 0.500000 0.363070 -0.615834
O7    O     O_R   0.500000 0.714650 0.636900 -0.615211
O8    O     O_R   0.500000 0.714650 0.363100 -0.616617
Zn1   Zn    Zn3+2 0.500000 0.499990 0.682780 0.983714
Zn2   Zn    Zn3+2 0.500000 0.499990 0.317220 0.980266
C19   C     C_3   0.093718 0.830222 0.582699 -0.429758
C20   C     C_3   0.124822 0.989377 0.532454 -0.359053
C21   C     C_3   0.125622 0.095087 0.680086 -0.918126
H5    H     H_    0.059723 0.116193 0.726917 0.262237
H6    H     H_    0.163843 0.046695 0.780250 0.269031
H7    H     H_    0.155442 0.202785 0.642664 0.252986
H8    H     H_    0.191581 0.983572 0.484162 0.215505
H9    H     H_    0.087305 0.039151 0.433187 0.201684
H10   H     H_    0.052512 0.838399 0.692931 0.206810
H11   H     H_    0.151763 0.780417 0.634761 0.197882
C22   C     C_3   0.109416 0.765287 0.280299 -0.402417
C23   C     C_3   0.128027 0.656323 0.136750 -0.382074
C24   C     C_3   0.171909 0.738328 0.993192 -0.927265
H12   H     H_    0.128163 0.823027 0.942667 0.257615
H13   H     H_    0.230744 0.795029 0.034138 0.275123
H14   H     H_    0.190255 0.657231 0.895231 0.260164
H15   H     H_    0.174101 0.570097 0.175688 0.243469
H16   H     H_    0.070251 0.601619 0.090407 0.213988
H17   H     H_    0.084126 0.870429 0.229185 0.189800
H18   H     H_    0.175159 0.794018 0.316753 0.212656
C25   C     C_3   0.903089 0.835423 0.562086 -0.374632
C26   C     C_3   0.896076 0.003342 0.520023 -0.374873
C27   C     C_3   0.847929 0.087591 0.656881 -0.915889
H19   H     H_    0.785487 0.033589 0.684898 0.268781
H20   H     H_    0.886073 0.090443 0.770331 0.258886
H21   H     H_    0.835363 0.203726 0.616377 0.250195
H22   H     H_    0.958673 0.055570 0.503193 0.238855
H23   H     H_    0.860467 0.020506 0.405523 0.217855
H24   H     H_    0.835875 0.800061 0.578118 0.193086
H25   H     H_    0.924585 0.823293 0.689414 0.181127
C28   C     C_3   0.922585 0.771559 0.254888 -0.389980
C29   C     C_3   0.826120 0.783236 0.216817 -0.350300
C30   C     C_3   0.796071 0.663101 0.097357 -0.835716
H26   H     H_    0.830191 0.675196 0.976926 0.235893
H27   H     H_    0.807018 0.549321 0.146340 0.264304
H28   H     H_    0.726788 0.676586 0.077254 0.260189
H29   H     H_    0.784485 0.783046 0.328217 0.229048
H30   H     H_    0.814473 0.892809 0.156397 0.200205
H31   H     H_    0.948815 0.884519 0.229356 0.157972
H32   H     H_    0.952876 0.700935 0.159998 0.202933
H33   H     H_    0.082694 0.411155 0.265796 0.160989
H34   H     H_    0.060853 0.598705 0.766458 0.181100
H35   H     H_    0.941482 0.467700 0.231034 0.173285
H36   H     H_    0.915836 0.586188 0.755141 0.160812

loop_
_geom_bond_atom_site_label_1
_geom_bond_atom_site_label_2
_ccdc_geom_bond_type
C20   H9    S    
C15   C18   S    
C25   C26   S    
O7    Zn1   S    
C6    C7    T    
C11   H36   S    
C23   H16   S    
C24   H14   S    
C2    C16   S    
C18   C19   S    
C17   C25   S    
C17   C28   S    
C29   H29   S    
N1    N2    T    
N1    Zn2   S    
C11   H1    S    
C25   H25   S    
C12   H2    S    
C17   C18   S    
C27   H19   S    
O4    Zn2   S    
C21   H6    S    
C23   C24   S    
C22   C23   S    
C10   H4    S    
C1    O1    A    
C19   H11   S    
C9    C11   S    
C9    H3    S    
C20   H8    S    
C21   H5    S    
C3    C14   T    
C10   C12   S    
C12   C16   S    
C25   H24   S    
C20   C21   S    
C9    H34   S    
C22   H18   S    
C29   C30   S    
C21   H7    S    
C5    O5    A    
C10   C15   S    
C1    C7    S    
C4    C14   S    
C1    O2    A    
C26   H23   S    
C27   H20   S    
C11   C16   S    
O6    Zn2   S    
C30   H27   S    
C22   H17   S    
C30   H26   S    
C8    O8    A    
C18   C22   S    
O5    Zn1   S    
C27   H21   S    
C4    O3    A    
C19   H10   S    
C26   C27   S    
C24   H13   S    
C28   C29   S    
C10   H33   S    
C28   H31   S    
O1    Zn1   S    
C2    C13   T    
C12   H35   S    
C26   H22   S    
C3    C15   S    
C6    C8    S    
C30   H28   S    
C4    O4    A    
C9    C15   S    
C8    O7    A    
C5    C13   S    
C23   H15   S    
O2    Zn2   S    
O3    Zn1   S    
C28   H32   S    
N2    Zn1   S    
C5    O6    A    
C29   H30   S    
C16   C17   S    
C24   H12   S    
C19   C20   S    
O8    Zn2   S    
