data_mof_unit_1924.cif
_audit_creation_date              2012-12-11T14:33:45-0500
_audit_creation_method            fapswitch 2.2
_symmetry_space_group_name_H-M    P1
_symmetry_Int_Tables_number       1
_space_group_crystal_system       triclinic
_cell_length_a                    13.876668
_cell_length_b                    14.01271
_cell_length_c                    27.354972
_cell_angle_alpha                 89.61266
_cell_angle_beta                  89.98041
_cell_angle_gamma                 119.747376
_cell_volume                      4618.06777457

loop_
_atom_site_label
_atom_site_type_symbol
_atom_type_description
_atom_site_fract_x
_atom_site_fract_y
_atom_site_fract_z
_atom_type_partial_charge
C1    C     C_R   0.233589 0.786851 0.568728 0.536809
C2    C     C_1   0.706958 0.861611 0.860272 -0.043930
C3    C     C_3   0.817051 0.597268 0.084478 -0.329488
C4    C     C_3   0.331687 0.209261 0.134204 -0.000505
C5    C     C_3   0.406801 0.227787 0.090415 -0.333154
C6    C     C_3   0.696556 0.069457 0.403302 -0.302796
C7    C     C_3   0.982546 0.534963 0.389163 -0.278746
C8    C     C_3   0.466091 0.452122 0.388548 -0.280218
C9    C     C_3   0.675968 0.487935 0.233910 -0.347602
C10   C     C_3   0.512580 0.182568 0.226362 -0.354069
C11   C     C_3   0.809335 0.303481 0.242711 -0.335047
C12   C     C_3   0.723157 0.080788 0.701819 -0.308134
C13   C     C_1   0.114350 0.882153 0.852547 -0.043787
C14   C     C_3   0.902560 0.648525 0.698618 -0.307810
C15   C     C_3   0.376915 0.295185 0.704304 -0.307463
C16   C     C_3   0.605837 0.547369 0.815192 -0.328066
C17   C     C_3   0.429224 0.092823 0.805944 -0.325568
C18   C     C_3   0.876111 0.297885 0.803848 -0.324370
C19   C     C_1   0.117914 0.237571 0.853228 -0.043581
C20   C     C_1   0.627486 0.813187 0.658970 -0.064165
C21   C     C_1   0.174740 0.817536 0.655978 -0.066784
C22   C     C_1   0.180692 0.360517 0.656635 -0.067203
C23   C     C_1   0.600030 0.795087 0.616760 -0.023043
C24   C     C_1   0.197644 0.805055 0.614970 -0.024425
C25   C     C_1   0.193637 0.394116 0.615324 -0.023578
C26   C     C_R   0.069981 0.158608 0.097241 0.567177
C27   C     C_R   0.212519 0.446518 0.568744 0.539986
C28   C     C_R   0.773095 0.881955 0.086518 0.563876
C29   C     C_R   0.118103 0.891379 0.086513 0.579437
C30   C     C_R   0.070229 0.161910 0.943292 0.538822
C31   C     C_R   0.780073 0.887340 0.950717 0.544352
C32   C     C_R   0.091101 0.929972 0.943335 0.535714
C33   C     C_R   0.617313 0.898805 0.359092 0.132720
C34   C     C_R   0.098449 0.725731 0.360063 0.134914
C35   C     C_R   0.268335 0.357848 0.365952 0.134108
C36   C     C_R   0.634079 0.908624 0.307856 0.026329
C37   C     C_R   0.091085 0.728549 0.308480 0.055023
C38   C     C_R   0.552265 0.764845 0.569064 0.536634
C39   C     C_R   0.254915 0.332861 0.315784 0.055853
C40   C     C_R   0.658077 0.919366 0.204739 0.030530
C41   C     C_R   0.078195 0.738279 0.205373 0.030104
C42   C     C_R   0.225425 0.285126 0.215101 0.026290
C43   C     C_R   0.232610 0.787644 0.431217 0.544165
C44   C     C_R   0.210926 0.441775 0.432902 0.551245
C45   C     C_R   0.554985 0.767538 0.431242 0.557080
C46   C     C_R   0.638699 0.995145 0.229659 -0.090236
C47   C     C_R   0.999739 0.646069 0.231728 -0.132273
C48   C     C_R   0.330666 0.328565 0.236438 -0.133613
C49   C     C_3   0.676504 0.739191 0.788875 0.046951
C50   C     C_R   0.629376 0.991586 0.280432 -0.121480
C51   C     C_R   0.003234 0.643471 0.282568 -0.136581
C52   C     C_R   0.343612 0.345238 0.286526 -0.131755
C53   C     C_R   0.677532 0.928176 0.153647 0.238837
C54   C     C_R   0.065271 0.751555 0.154910 0.249549
C55   C     C_R   0.208404 0.255840 0.165400 0.256815
C56   C     C_R   0.709173 0.856665 0.132311 0.013297
C57   C     C_R   0.143025 0.849932 0.131570 0.004322
C58   C     C_R   0.098700 0.201139 0.147147 0.002788
C59   C     C_R   0.644270 0.739824 0.359783 -0.175018
C60   C     C_3   0.238888 0.961519 0.780090 0.044229
C61   C     C_R   0.274123 0.898264 0.356649 -0.157607
C62   C     C_R   0.080336 0.328994 0.369380 -0.172397
C63   C     C_R   0.655766 0.745700 0.309376 -0.026328
C64   C     C_R   0.266554 0.902501 0.306364 -0.027521
C65   C     C_R   0.062677 0.293574 0.321407 -0.029717
C66   C     C_R   0.650594 0.829799 0.283070 0.028248
C67   C     C_R   0.176091 0.817281 0.281835 0.024070
C68   C     C_R   0.151023 0.299583 0.293764 0.025178
C69   C     C_R   0.662582 0.662143 0.284985 -0.089502
C70   C     C_R   0.352607 0.988652 0.280403 -0.087276
C71   C     C_3   0.028550 0.265719 0.779704 0.044594
C72   C     C_R   0.960883 0.263438 0.299576 -0.091437
C73   C     C_R   0.665210 0.660706 0.233861 0.160198
C74   C     C_R   0.349559 0.993520 0.229391 0.162132
C75   C     C_R   0.944765 0.239197 0.249668 0.172301
C76   C     C_R   0.670465 0.750667 0.207629 0.008963
C77   C     C_R   0.256007 0.911239 0.204662 0.012738
C78   C     C_R   0.029157 0.232356 0.223347 0.013277
C79   C     C_3   0.553525 0.832984 0.738924 -0.212557
C80   C     C_3   0.151728 0.738840 0.740016 -0.214425
C81   C     C_3   0.250471 0.424358 0.740625 -0.214607
C82   C     C_3   0.651024 0.725111 0.732942 -0.230961
C83   C     C_R   0.661124 0.834146 0.231886 -0.003996
C84   C     C_R   0.169875 0.822352 0.230651 -0.006375
C85   C     C_R   0.134918 0.271127 0.244188 -0.004422
C86   C     C_R   0.692113 0.762468 0.157820 -0.170834
C87   C     C_R   0.242951 0.920570 0.154809 -0.174781
C88   C     C_R   0.010949 0.187920 0.176709 -0.183390
C89   C     C_R   0.614159 0.808105 0.384223 0.020632
C90   C     C_R   0.195923 0.807276 0.383451 0.000696
C91   C     C_R   0.184881 0.369443 0.390538 0.000961
C92   C     C_3   0.765715 0.929418 0.723477 0.054296
C93   C     C_3   0.256973 0.940676 0.725851 -0.228940
C94   C     C_3   0.050709 0.845267 0.715004 0.057389
C95   C     C_3   0.170510 0.220087 0.717190 0.057103
C96   C     C_3   0.780851 0.946398 0.779703 -0.203373
C97   C     C_3   0.029577 0.851667 0.770451 -0.202969
C98   C     C_3   0.162972 0.193946 0.772764 -0.204009
C99   C     C_1   0.734660 0.873188 0.902544 -0.016474
C100  C     C_1   0.103591 0.902481 0.894259 -0.011564
C101  C     C_1   0.098593 0.204382 0.894673 -0.013081
C102  C     C_3   0.649711 0.827560 0.711833 0.070984
C103  C     C_3   0.156051 0.832885 0.707531 0.068925
C104  C     C_3   0.048743 0.304331 0.725203 -0.229890
C105  C     C_3   0.165393 0.328004 0.708301 0.069575
C106  C     C_3   0.576277 0.850070 0.794580 -0.223461
C107  C     C_3   0.132069 0.754459 0.794520 -0.219394
C108  C     C_3   0.235608 0.390068 0.795323 -0.220010
C109  C     C_3   0.684182 0.848394 0.807374 0.061716
C110  C     C_3   0.129245 0.862863 0.800902 0.057819
C111  C     C_3   0.135718 0.272244 0.801729 0.059098
C112  C     C_3   0.708029 0.086792 0.112696 -0.014466
C113  C     C_3   0.682458 0.113860 0.062084 -0.345097
C114  C     C_3   0.883530 0.657657 0.129443 -0.003992
Cr1   Cr    Cr6+3 0.164410 0.584450 0.499910 0.994119
Cr2   Cr    Cr6+3 0.415550 0.579960 0.499910 0.994683
Cr3   Cr    Cr6+3 0.420040 0.835590 0.499910 1.028470
Cr4   Cr    Cr6+3 0.155170 0.075460 0.019960 1.007813
Cr5   Cr    Cr6+3 0.924540 0.079710 0.019960 0.996744
Cr6   Cr    Cr6+3 0.920290 0.844830 0.019960 0.994374
H1    H     H_    0.584243 0.930150 0.805304 0.103000
H2    H     H_    0.759536 0.746780 0.794699 0.131772
H3    H     H_    0.592799 0.514124 0.777526 0.119664
H4    H     H_    0.356285 0.922516 0.809038 0.250534
H5    H     H_    0.494114 0.101795 0.832227 0.141278
H6    H     H_    0.404573 0.155003 0.814879 0.147047
H7    H     H_    0.464622 0.108114 0.768398 0.124819
H8    H     H_    0.044279 0.413531 0.806737 0.251215
H9    H     H_    0.856882 0.348498 0.828758 0.142427
H10   H     H_    0.822724 0.210242 0.814400 0.144754
H11   H     H_    0.857211 0.311081 0.765769 0.124889
H12   H     H_    0.227982 0.034633 0.780929 0.139643
H13   H     H_    0.962671 0.177732 0.780802 0.142678
H14   H     H_    0.634581 0.060158 0.210401 0.151534
H15   H     H_    0.933733 0.576027 0.213632 0.130879
H16   H     H_    0.403781 0.348617 0.215050 0.137658
H17   H     H_    0.618530 0.054705 0.297676 0.103268
H18   H     H_    0.936949 0.573212 0.300935 0.124358
H19   H     H_    0.425095 0.372853 0.301230 0.125019
H20   H     H_    0.704893 0.702084 0.139244 0.139246
H21   H     H_    0.052096 0.683497 0.807091 0.105738
H22   H     H_    0.306821 0.989203 0.134461 0.144298
H23   H     H_    0.927768 0.141210 0.163033 0.099021
H24   H     H_    0.660244 0.595566 0.306219 0.100940
H25   H     H_    0.423084 0.050704 0.300293 0.097944
H26   H     H_    0.896132 0.264541 0.321167 0.095935
H27   H     H_    0.538281 0.897680 0.723771 0.115211
H28   H     H_    0.087898 0.656466 0.727592 0.114675
H29   H     H_    0.337272 0.454408 0.728985 0.115419
H30   H     H_    0.647472 0.674024 0.379418 0.120937
H31   H     H_    0.346760 0.963026 0.374470 0.132184
H32   H     H_    0.312770 0.393310 0.808909 0.106306
H33   H     H_    0.014182 0.331935 0.389231 0.118761
H34   H     H_    0.829358 0.907814 0.711495 0.122981
H35   H     H_    0.071499 0.927057 0.699343 0.111846
H36   H     H_    0.093569 0.151849 0.700908 0.110299
H37   H     H_    0.784878 0.024171 0.790930 0.127060
H38   H     H_    0.951671 0.778708 0.783120 0.126944
H39   H     H_    0.241177 0.201009 0.786841 0.127078
H40   H     H_    0.861586 0.953764 0.790474 0.069551
H41   H     H_    0.017608 0.923133 0.776893 0.066266
H42   H     H_    0.096772 0.107679 0.779234 0.065153
H43   H     H_    0.474433 0.754602 0.733335 0.098876
H44   H     H_    0.569813 0.650059 0.725804 0.121080
H45   H     H_    0.334180 0.935574 0.721795 0.122171
H46   H     H_    0.041277 0.379315 0.720039 0.122541
H47   H     H_    0.715014 0.712990 0.713937 0.111428
H48   H     H_    0.268931 0.011694 0.702901 0.116652
H49   H     H_    0.983444 0.239571 0.702073 0.116679
H50   H     H_    0.795424 0.105950 0.112595 0.145558
H51   H     H_    0.698309 0.141270 0.138966 0.115452
H52   H     H_    0.596369 0.099904 0.061134 0.147645
H53   H     H_    0.741110 0.201361 0.052962 0.091812
H54   H     H_    0.231914 0.739187 0.736797 0.098324
H55   H     H_    0.691145 0.061052 0.034349 0.170794
H56   H     H_    0.888968 0.739321 0.131751 0.159754
H57   H     H_    0.837348 0.609266 0.161766 0.151605
H58   H     H_    0.809672 0.514739 0.082571 0.140884
H59   H     H_    0.732345 0.586474 0.086331 0.093457
H60   H     H_    0.858959 0.644359 0.050818 0.182852
H61   H     H_    0.259728 0.125049 0.133209 0.154917
H62   H     H_    0.378858 0.215663 0.167475 0.146407
H63   H     H_    0.480675 0.311385 0.091929 0.137927
H64   H     H_    0.435136 0.166307 0.090836 0.088885
H65   H     H_    0.237490 0.496264 0.736286 0.098511
H66   H     H_    0.361326 0.219420 0.055895 0.181510
H67   H     H_    0.541512 0.994067 0.369403 0.237566
H68   H     H_    0.673074 0.120738 0.425593 0.130306
H69   H     H_    0.749723 0.119893 0.372394 0.124537
H70   H     H_    0.744032 0.042422 0.426790 0.156624
H71   H     H_    0.993860 0.675692 0.421328 0.251472
H72   H     H_    0.985569 0.509326 0.427310 0.173400
H73   H     H_    0.042671 0.524026 0.366344 0.166998
H74   H     H_    0.897341 0.480193 0.375472 0.106528
H75   H     H_    0.335742 0.323033 0.427193 0.252366
H76   H     H_    0.504426 0.785602 0.815450 0.117019
H77   H     H_    0.497502 0.484925 0.425452 0.175780
H78   H     H_    0.465599 0.517363 0.365395 0.164672
H79   H     H_    0.524141 0.427708 0.372630 0.108969
H80   H     H_    0.601408 0.538275 0.180826 0.256758
H81   H     H_    0.686630 0.435485 0.206812 0.126893
H82   H     H_    0.602660 0.435414 0.257152 0.129740
H83   H     H_    0.752215 0.528000 0.256476 0.149125
H84   H     H_    0.474009 0.055696 0.175777 0.265560
H85   H     H_    0.562185 0.244966 0.198139 0.130442
H86   H     H_    0.569352 0.171728 0.251211 0.134694
H87   H     H_    0.197981 0.754234 0.817503 0.121579
H88   H     H_    0.464522 0.212614 0.247341 0.150878
H89   H     H_    0.855670 0.236174 0.187712 0.241340
H90   H     H_    0.752245 0.306733 0.215320 0.119317
H91   H     H_    0.879001 0.388511 0.247959 0.149856
H92   H     H_    0.762502 0.270770 0.277386 0.132460
H93   H     H_    0.819969 0.033708 0.661656 0.245464
H94   H     H_    0.773062 0.169222 0.691991 0.129103
H95   H     H_    0.692731 0.075120 0.739754 0.138582
H96   H     H_    0.652353 0.042464 0.676074 0.145055
H97   H     H_    0.949596 0.783775 0.652732 0.247948
H98   H     H_    0.223858 0.449807 0.817421 0.122270
H99   H     H_    0.813967 0.606500 0.687698 0.130430
H100  H     H_    0.905894 0.630431 0.737866 0.138915
H101  H     H_    0.944895 0.614461 0.676176 0.143895
H102  H     H_    0.249691 0.195799 0.656677 0.246849
H103  H     H_    0.429790 0.258580 0.695699 0.131106
H104  H     H_    0.388648 0.317763 0.743444 0.137439
H105  H     H_    0.405335 0.369755 0.681104 0.143428
H106  H     H_    0.512817 0.626353 0.811259 0.250294
H107  H     H_    0.543174 0.483181 0.839785 0.143405
H108  H     H_    0.689652 0.567390 0.828115 0.150712
N1    N     N_2   0.597523 0.975225 0.385125 -0.484727
N2    N     N_2   0.593663 0.644118 0.816353 -0.507901
N3    N     N_2   0.334608 0.983030 0.809907 -0.507798
N4    N     N_2   0.992114 0.329603 0.808287 -0.506800
N5    N     N_2   0.005452 0.647784 0.388257 -0.523126
N6    N     N_2   0.356411 0.356704 0.392508 -0.520794
N7    N     N_2   0.660004 0.569548 0.208174 -0.546149
N8    N     N_2   0.438580 0.080192 0.202463 -0.549392
N9    N     N_2   0.850282 0.232715 0.225207 -0.522490
N10   N     N_2   0.791868 0.030352 0.696897 -0.537418
N11   N     N_2   0.951182 0.765262 0.689188 -0.534117
N12   N     N_2   0.262601 0.216057 0.693202 -0.534136
O1    O     O_R   0.137150 0.468200 0.553200 -0.516149
O2    O     O_R   0.140110 0.470540 0.446010 -0.543299
O3    O     O_R   0.529460 0.669570 0.446010 -0.549227
O4    O     O_R   0.330430 0.859890 0.446010 -0.516136
O5    O     O_R   0.176710 0.690910 0.450560 -0.494008
O6    O     O_R   0.309090 0.485800 0.450560 -0.492440
O7    O     O_R   0.514200 0.823290 0.450560 -0.455330
O8    O     O_3   0.333333 0.666667 0.499990 -0.262064
O9    O     O_R   0.176750 0.985260 0.074180 -0.559978
O10   O     O_R   0.014740 0.191490 0.074180 -0.497761
O11   O     O_R   0.808510 0.823250 0.074180 -0.544785
O12   O     O_R   0.531800 0.668950 0.553200 -0.514681
O13   O     O_R   0.146100 0.172630 0.068980 -0.437429
O14   O     O_R   0.827370 0.973470 0.068980 -0.514933
O15   O     O_R   0.026530 0.853900 0.068980 -0.476125
O16   O     O_3   0.000000 0.000000 0.020040 -0.285967
O17   O     O_R   0.148270 0.170520 0.969620 -0.494740
O18   O     O_R   0.829480 0.977750 0.969620 -0.526112
O19   O     O_R   0.022250 0.851730 0.969620 -0.484544
O20   O     O_3   0.631597 0.975873 0.123888 -0.564089
O21   O     O_3   0.988550 0.664997 0.126936 -0.558890
O22   O     O_3   0.298147 0.289132 0.134051 -0.543514
O23   O     O_R   0.331050 0.862850 0.553200 -0.512359
O24   O     O_R   0.179100 0.982980 0.967000 -0.499515
O25   O     O_R   0.017020 0.196120 0.967000 -0.474777
O26   O     O_R   0.803880 0.820900 0.967000 -0.510621
O27   O     O_R   0.173970 0.688730 0.549930 -0.503539
O28   O     O_R   0.311270 0.485240 0.549930 -0.502924
O29   O     O_R   0.514760 0.826030 0.549930 -0.500642

loop_
_geom_bond_atom_site_label_1
_geom_bond_atom_site_label_2
_ccdc_geom_bond_type
C21   C103  S    
C71   C104  S    
C7    N5    S    
C16   H107  S    
C9    N7    S    
C34   C37   A    
C39   C68   A    
C14   H101  S    
C8    H78   S    
Cr6   O11   S    
C12   H94   S    
C54   C57   A    
Cr5   O16   S    
C93   C103  S    
C34   C90   A    
C17   N3    S    
C50   H17   S    
C44   O2    A    
C2    C109  S    
Cr4   O17   S    
C69   H24   S    
C40   C46   A    
C80   C107  S    
C92   N10   S    
C15   H105  S    
C60   H12   S    
C60   N3    S    
C113  H53   S    
C114  O21   S    
C28   O14   A    
C11   H90   S    
C8    N6    S    
C14   N11   S    
C11   H92   S    
C48   H16   S    
C36   C66   A    
C17   H6    S    
C53   C56   A    
C112  H51   S    
C20   C102  S    
C49   H2    S    
C72   H26   S    
Cr5   O25   S    
C6    H68   S    
C92   C96   S    
C33   C36   A    
C22   C25   T    
C95   H36   S    
C59   C89   A    
H102  N12   S    
C15   H104  S    
C32   O24   A    
C10   H88   S    
C104  C105  S    
C3    H59   S    
Cr3   O29   S    
C9    H83   S    
C11   H91   S    
C66   C83   A    
Cr1   O1    S    
C38   O12   A    
C63   C69   A    
C93   H48   S    
C16   H3    S    
C94   H35   S    
C74   C77   A    
C71   C111  S    
C70   C74   A    
C71   N4    S    
H80   N7    S    
H75   N6    S    
C69   C73   A    
C31   C99   S    
C4    H61   S    
C7    H73   S    
C45   C89   S    
C45   O3    A    
C88   H23   S    
C107  H87   S    
C44   O6    A    
C113  H55   S    
C108  H98   S    
C60   C93   S    
C65   C68   A    
C12   N10   S    
C96   H37   S    
C92   H34   S    
C63   C66   A    
C93   H45   S    
C67   C84   A    
H8    N4    S    
C53   O20   S    
C1    O23   A    
C31   O26   A    
C68   C85   A    
C59   H30   S    
C40   C83   A    
C14   H100  S    
C8    H77   S    
C75   C78   A    
C5    H66   S    
C72   C75   A    
C33   N1    S    
C27   O1    A    
C76   C83   A    
C81   H65   S    
C112  C113  S    
C98   H42   S    
Cr1   O27   S    
C113  H52   S    
C82   H47   S    
Cr3   O7    S    
C28   C56   S    
C81   C105  S    
C95   C98   S    
C43   C90   S    
Cr6   O26   S    
C29   C57   S    
C80   C103  S    
C35   N6    S    
C64   C67   A    
Cr2   O8    S    
C41   C47   A    
C60   C110  S    
C6    N1    S    
H93   N10   S    
Cr5   O10   S    
C30   C101  S    
C70   H25   S    
C108  H32   S    
C17   H7    S    
C30   O17   A    
C106  H76   S    
Cr2   O12   S    
C94   C97   S    
C30   O25   A    
H106  N2    S    
C41   C84   A    
C15   N12   S    
Cr4   O9    S    
C57   C87   A    
C79   C106  S    
Cr3   O23   S    
C49   C82   S    
C61   C64   A    
C35   C39   A    
C3    H60   S    
Cr6   O16   S    
C65   C72   A    
C13   C110  S    
Cr4   O13   S    
C33   C89   A    
C42   C55   A    
C46   H14   S    
Cr1   O2    S    
C61   H31   S    
C49   N2    S    
C56   C86   A    
C27   O28   A    
C1    O27   A    
C20   C23   T    
C48   C52   A    
C114  H57   S    
Cr2   O3    S    
C62   C91   A    
C6    H70   S    
C82   C102  S    
C79   C102  S    
C42   C85   A    
C42   C48   A    
C51   H18   S    
C98   H39   S    
C7    H74   S    
C26   C58   S    
C26   O10   A    
C44   C91   S    
C9    H81   S    
C79   H27   S    
C73   N7    S    
C96   H40   S    
Cr2   O6    S    
C94   C103  S    
C64   C70   A    
Cr6   O19   S    
C73   C76   A    
C14   H99   S    
C75   N9    S    
C107  H21   S    
C12   H96   S    
C74   N8    S    
C23   C38   S    
Cr5   O14   S    
C76   C86   A    
C10   N8    S    
C36   C50   A    
C61   C90   A    
C78   C85   A    
C49   C109  S    
Cr1   O8    S    
Cr3   O8    S    
C78   C88   A    
C114  H56   S    
H97   N11   S    
C16   H108  S    
C104  H49   S    
C98   C111  S    
C5    H64   S    
C62   C65   A    
C47   H15   S    
C54   O21   S    
C59   C63   A    
C10   H85   S    
C32   O19   A    
H89   N9    S    
C79   H43   S    
C4    C5    S    
Cr2   O28   S    
C3    C114  S    
C58   C88   A    
C71   H13   S    
C47   C51   A    
C108  C111  S    
C11   N9    S    
C19   C111  S    
C43   O4    A    
C25   C27   S    
C22   C105  S    
C106  H1    S    
C96   C109  S    
C46   C50   A    
C97   H41   S    
C77   C84   A    
C62   H33   S    
C112  H50   S    
C97   H38   S    
C13   C100  T    
C2    C99   T    
C10   H86   S    
C28   O11   A    
C80   H54   S    
C52   H19   S    
H84   N8    S    
C18   N4    S    
C112  O20   S    
C18   H11   S    
C97   C110  S    
C19   C101  T    
C17   H5    S    
C55   C58   A    
C82   H44   S    
C43   O5    A    
C81   H29   S    
H71   N5    S    
C37   C67   A    
C6    H69   S    
C16   N2    S    
C37   C51   A    
C107  C110  S    
C95   C105  S    
C38   O29   A    
C39   C52   A    
C31   O18   A    
C95   N12   S    
C29   O15   A    
C87   H22   S    
C15   H103  S    
C7    H72   S    
C55   O22   S    
C41   C54   A    
C81   C108  S    
H4    N3    S    
C18   H10   S    
C9    H82   S    
C104  H46   S    
H67   N1    S    
Cr3   O4    S    
C32   C100  S    
C94   N11   S    
C80   H28   S    
Cr5   O18   S    
Cr4   O24   S    
C45   O7    A    
C77   C87   A    
C1    C24   S    
C4    O22   S    
C40   C53   A    
C21   C24   T    
Cr6   O15   S    
C26   O13   A    
Cr4   O16   S    
C8    H79   S    
C3    H58   S    
C86   H20   S    
C12   H95   S    
C4    H62   S    
C34   N5    S    
C5    H63   S    
C18   H9    S    
C29   O9    A    
C92   C102  S    
Cr1   O5    S    
C106  C109  S    
C35   C91   A    
