data_mof_unit_2601.cif
_audit_creation_date              2012-12-11T16:53:43-0500
_audit_creation_method            fapswitch 2.2
_symmetry_space_group_name_H-M    P1
_symmetry_Int_Tables_number       1
_space_group_crystal_system       triclinic
_cell_length_a                    26.155001
_cell_length_b                    7.15056
_cell_length_c                    24.086437
_cell_angle_alpha                 89.999641
_cell_angle_beta                  101.201002
_cell_angle_gamma                 90.00032
_cell_volume                      4418.90848623

loop_
_atom_site_label
_atom_site_type_symbol
_atom_type_description
_atom_site_fract_x
_atom_site_fract_y
_atom_site_fract_z
_atom_type_partial_charge
O1    O     O_R   0.297620 0.601080 0.203310 -0.542198
O2    O     O_R   0.702380 0.398920 0.796690 -0.540709
O3    O     O_R   0.202380 0.101080 0.296690 -0.542199
O4    O     O_R   0.797620 0.898920 0.703310 -0.540729
O5    O     O_R   0.192690 0.268060 0.187220 -0.542282
O6    O     O_R   0.807310 0.731940 0.812780 -0.539290
O7    O     O_R   0.307310 0.768060 0.312780 -0.542282
O8    O     O_R   0.692690 0.231940 0.687220 -0.539285
C1    C     C_R   0.174558 0.439905 0.171956 0.701510
C2    C     C_R   0.825551 0.560097 0.827925 0.704394
C3    C     C_R   0.325442 0.939905 0.328044 0.701507
C4    C     C_R   0.674449 0.060097 0.672075 0.704367
O9    O     O_R   0.296630 0.271160 0.196520 -0.510328
O10   O     O_R   0.703370 0.728840 0.803480 -0.516156
O11   O     O_R   0.203370 0.771160 0.303480 -0.510327
O12   O     O_R   0.796630 0.228840 0.696520 -0.516172
O13   O     O_R   0.307060 0.104040 0.306060 -0.530093
O14   O     O_R   0.692940 0.895960 0.693940 -0.530346
O15   O     O_R   0.192940 0.604040 0.193940 -0.530092
O16   O     O_R   0.807060 0.395960 0.806060 -0.530329
C5    C     C_R   0.312241 0.439784 0.183985 0.705617
C6    C     C_R   0.687761 0.560249 0.816033 0.702198
C7    C     C_R   0.187759 0.939782 0.316015 0.705623
C8    C     C_R   0.812238 0.060251 0.683965 0.702137
O17   O     O_3   0.253300 0.435560 0.285930 -0.372095
O18   O     O_3   0.746700 0.564440 0.714070 -0.374131
O19   O     O_3   0.246700 0.935560 0.214070 -0.372103
O20   O     O_3   0.753300 0.064440 0.785930 -0.374071
V1    V     V_3+5 0.249390 0.159480 0.243340 1.438201
V2    V     V_3+5 0.750610 0.840520 0.756660 1.429884
V3    V     V_3+5 0.250610 0.659480 0.256660 1.438208
V4    V     V_3+5 0.749390 0.340520 0.743340 1.429885
C9    C     C_R   0.875592 0.880839 0.638218 -0.221972
C10   C     C_R   0.123700 0.118873 0.360684 -0.230084
C11   C     C_R   0.624376 0.380867 0.861745 -0.222073
C12   C     C_R   0.376306 0.618870 0.139321 -0.230058
H1    H     H_    0.867616 0.756486 0.660729 0.185419
H2    H     H_    0.131199 0.242239 0.337456 0.182254
H3    H     H_    0.632328 0.256543 0.839208 0.185355
H4    H     H_    0.368813 0.742228 0.162556 0.182235
C13   C     C_R   0.912204 0.868365 0.603051 -0.180202
C14   C     C_R   0.087024 0.132044 0.395708 -0.182301
C15   C     C_R   0.587768 0.368391 0.896917 -0.180219
C16   C     C_R   0.412982 0.632041 0.104298 -0.182296
C17   C     C_R   0.924353 0.025377 0.573286 0.064086
C18   C     C_R   0.075314 0.976205 0.426219 0.081341
C19   C     C_R   0.575653 0.525364 0.926720 0.064071
C20   C     C_R   0.424683 0.476212 0.073778 0.081364
C21   C     C_R   0.899491 0.195522 0.579541 -0.164830
C22   C     C_R   0.100736 0.806554 0.420830 -0.176391
C23   C     C_R   0.600545 0.695476 0.920498 -0.164742
C24   C     C_R   0.399252 0.306573 0.079157 -0.176395
H5    H     H_    0.909462 0.319018 0.557858 0.138508
H6    H     H_    0.090751 0.683618 0.442788 0.138169
H7    H     H_    0.590601 0.818942 0.942211 0.138463
H8    H     H_    0.409230 0.183646 0.057190 0.138142
C25   C     C_R   0.861913 0.209250 0.613781 0.399565
C26   C     C_R   0.139006 0.792537 0.387172 0.402139
C27   C     C_R   0.638114 0.709206 0.886245 0.399495
C28   C     C_R   0.360985 0.292553 0.112818 0.402142
C29   C     C_R   0.850066 0.050874 0.644690 -0.154765
C30   C     C_R   0.149868 0.949439 0.355183 -0.142762
C31   C     C_R   0.649931 0.550868 0.855305 -0.154731
C32   C     C_R   0.350131 0.449444 0.144815 -0.142759
C33   C     C_R   0.949583 0.070498 0.478082 0.435360
C34   C     C_R   0.050282 0.933102 0.521402 0.437582
C35   C     C_R   0.550433 0.570341 0.021936 0.435393
C36   C     C_R   0.449709 0.433215 0.978588 0.437596
C37   C     C_R   0.987180 0.063608 0.443780 -0.293852
C38   C     C_R   0.012649 0.940123 0.555871 -0.303713
C39   C     C_R   0.512832 0.563482 0.056234 -0.293933
C40   C     C_R   0.487343 0.440231 0.944120 -0.303742
H9    H     H_    0.976777 0.110536 0.400276 0.152313
H10   H     H_    0.022976 0.892768 0.599340 0.148306
H11   H     H_    0.523243 0.610314 0.099747 0.152342
H12   H     H_    0.477008 0.392968 0.900644 0.148297
C41   C     C_R   0.037096 0.990747 0.464370 -0.046485
C42   C     C_R   0.962590 0.011642 0.535145 -0.053523
C43   C     C_R   0.462904 0.490751 0.035630 -0.046492
C44   C     C_R   0.537415 0.511621 0.964860 -0.053516
H13   H     H_    0.544418 0.715739 0.544910 0.112994
H14   H     H_    0.454703 0.284026 0.456100 0.113866
H15   H     H_    0.955581 0.215739 0.955091 0.112991
H16   H     H_    0.045298 0.784026 0.043898 0.113865
C45   C     C_R   0.480566 0.822344 0.482703 -0.156219
C46   C     C_R   0.518531 0.177421 0.518339 -0.155155
C47   C     C_R   0.019434 0.322344 0.017297 -0.156218
C48   C     C_R   0.981469 0.677421 0.981660 -0.155152
H17   H     H_    0.466407 0.683921 0.469368 0.112034
H18   H     H_    0.532697 0.315852 0.531652 0.111918
H19   H     H_    0.033592 0.183921 0.030633 0.112032
H20   H     H_    0.967305 0.815852 0.968346 0.111917
C49   C     C_R   0.454665 0.981568 0.457066 0.134588
C50   C     C_R   0.544484 0.018201 0.543921 0.135048
C51   C     C_R   0.045335 0.481568 0.042934 0.134589
C52   C     C_R   0.955516 0.518201 0.956079 0.135050
C53   C     C_R   0.474007 0.159233 0.475268 -0.152125
C54   C     C_R   0.525097 0.840533 0.525770 -0.153030
C55   C     C_R   0.025994 0.659233 0.024731 -0.152122
C56   C     C_R   0.974903 0.340533 0.974231 -0.153029
C57   C     C_1   0.408765 0.963251 0.411938 -0.057949
C58   C     C_1   0.590605 0.036561 0.588785 -0.059202
C59   C     C_1   0.091235 0.463250 0.088062 -0.057949
C60   C     C_1   0.909395 0.536561 0.911215 -0.059199
C61   C     C_1   0.628938 0.049419 0.626490 -0.183090
C62   C     C_1   0.370669 0.950509 0.373948 -0.177621
C63   C     C_1   0.871062 0.549419 0.873509 -0.183084
C64   C     C_1   0.129331 0.450508 0.126052 -0.177619
H21   H     H_    0.930739 0.735154 0.598640 0.140953
H22   H     H_    0.068075 0.264926 0.399408 0.138089
H23   H     H_    0.569210 0.235205 0.901302 0.140961
H24   H     H_    0.431940 0.764913 0.100605 0.138083
O21   O     O_3   0.839424 0.381768 0.619035 -0.575448
C65   C     C_3   0.792348 0.398252 0.578770 0.110386
H25   H     H_    0.764324 0.476300 0.599319 0.157217
H26   H     H_    0.773436 0.261246 0.565062 0.077964
C66   C     C_3   0.801285 0.509904 0.527201 -0.348936
H27   H     H_    0.821257 0.643599 0.541388 0.208361
H28   H     H_    0.826415 0.428669 0.503738 0.205916
C67   C     C_3   0.749847 0.553040 0.487273 -0.838570
H29   H     H_    0.729619 0.421216 0.471548 0.234715
H30   H     H_    0.757493 0.634423 0.450526 0.235321
H31   H     H_    0.724210 0.637237 0.509374 0.229845
O22   O     O_3   0.162505 0.621298 0.382010 -0.569523
C68   C     C_3   0.195953 0.571661 0.433527 0.049634
H32   H     H_    0.198193 0.416518 0.435257 0.146983
H33   H     H_    0.181380 0.616238 0.472013 0.123199
C69   C     C_3   0.250862 0.649134 0.435256 -0.292054
H34   H     H_    0.265914 0.596042 0.398173 0.223798
H35   H     H_    0.249443 0.804348 0.433109 0.166965
C70   C     C_3   0.288177 0.590556 0.489259 -0.851036
H36   H     H_    0.274487 0.645238 0.527006 0.234863
H37   H     H_    0.327558 0.648244 0.489011 0.237636
H38   H     H_    0.290968 0.435673 0.491952 0.231984
O23   O     O_3   0.660636 0.881683 0.881023 -0.575397
C71   C     C_3   0.707692 0.898074 0.921323 0.110285
H39   H     H_    0.735805 0.975538 0.900748 0.157165
H40   H     H_    0.726496 0.761019 0.935190 0.077964
C72   C     C_3   0.698770 0.010454 0.972761 -0.348630
H41   H     H_    0.678938 0.144263 0.958425 0.208363
H42   H     H_    0.673515 0.929858 0.996233 0.205801
C73   C     C_3   0.750199 0.053338 0.012738 -0.838658
H43   H     H_    0.770277 0.921419 0.028632 0.234760
H44   H     H_    0.742565 0.135347 0.049372 0.235263
H45   H     H_    0.775968 0.136834 0.990615 0.229855
O24   O     O_3   0.337483 0.121317 0.117977 -0.569516
C74   C     C_3   0.304028 0.071708 0.066461 0.049614
H46   H     H_    0.301802 0.916564 0.064714 0.146982
H47   H     H_    0.318587 0.116366 0.027973 0.123184
C75   C     C_3   0.249116 0.149108 0.064757 -0.291986
H48   H     H_    0.234077 0.095929 0.101839 0.223803
H49   H     H_    0.250522 0.304321 0.066924 0.166965
C76   C     C_3   0.211795 0.090569 0.010753 -0.851065
H50   H     H_    0.225470 0.145342 0.973008 0.234867
H51   H     H_    0.172410 0.148196 0.011021 0.237639
H52   H     H_    0.209017 0.935686 0.008040 0.231991
O25   O     O_3   0.900682 0.141319 0.455600 -0.580403
C77   C     C_3   0.864578 0.992812 0.441823 0.072283
H53   H     H_    0.825656 0.046281 0.446160 0.142871
H54   H     H_    0.872829 0.870434 0.470977 0.114457
C78   C     C_3   0.861866 0.929850 0.380522 -0.313771
H55   H     H_    0.852287 0.051773 0.351754 0.204654
H56   H     H_    0.900283 0.873382 0.375547 0.192939
C79   C     C_3   0.820693 0.778383 0.363665 -0.829007
H57   H     H_    0.830217 0.653586 0.391219 0.241134
H58   H     H_    0.819626 0.736050 0.319104 0.235329
H59   H     H_    0.781604 0.831856 0.367298 0.227301
O26   O     O_3   0.099364 0.861417 0.542700 -0.579692
C80   C     C_3   0.129730 0.995291 0.577958 0.068648
H60   H     H_    0.160137 0.917669 0.607767 0.145856
H61   H     H_    0.107003 0.075798 0.604606 0.109475
C81   C     C_3   0.156795 0.129015 0.542990 -0.314859
H62   H     H_    0.177783 0.046864 0.515217 0.204003
H63   H     H_    0.127195 0.218053 0.515945 0.193306
C82   C     C_3   0.195515 0.256208 0.580880 -0.837548
H64   H     H_    0.175206 0.341671 0.608460 0.237900
H65   H     H_    0.213992 0.351749 0.554239 0.231305
H66   H     H_    0.226506 0.171784 0.607631 0.231205
O27   O     O_3   0.599350 0.640996 0.044436 -0.580363
C83   C     C_3   0.635419 0.492371 0.058180 0.072324
H67   H     H_    0.674367 0.545830 0.053935 0.142917
H68   H     H_    0.627181 0.370193 0.028949 0.114450
C84   C     C_3   0.638044 0.429011 0.119431 -0.313976
H69   H     H_    0.647584 0.550757 0.148276 0.204689
H70   H     H_    0.599608 0.372457 0.124306 0.192951
C85   C     C_3   0.679203 0.277489 0.136265 -0.828892
H71   H     H_    0.669730 0.152895 0.108614 0.241191
H72   H     H_    0.680185 0.234795 0.180780 0.235343
H73   H     H_    0.718313 0.331069 0.132758 0.227270
O28   O     O_3   0.400617 0.361633 0.957281 -0.579683
C86   C     C_3   0.370272 0.495586 0.922034 0.068658
H74   H     H_    0.339856 0.418039 0.892215 0.145855
H75   H     H_    0.393012 0.576086 0.895399 0.109467
C87   C     C_3   0.343222 0.629317 0.957014 -0.314865
H76   H     H_    0.322220 0.547172 0.984775 0.204006
H77   H     H_    0.372833 0.718285 0.984071 0.193298
C88   C     C_3   0.304522 0.756603 0.919133 -0.837539
H78   H     H_    0.324846 0.842068 0.891567 0.237917
H79   H     H_    0.286052 0.852141 0.945781 0.231296
H80   H     H_    0.273523 0.672249 0.892369 0.231201

loop_
_geom_bond_atom_site_label_1
_geom_bond_atom_site_label_2
_ccdc_geom_bond_type
O17   V3    S    
C87   H77   S    
C48   C52   A    
C26   C30   A    
O28   C86   S    
C47   H19   S    
O19   V1    S    
O13   V1    S    
C80   H60   S    
C37   C41   A    
C74   H46   S    
C10   C14   A    
C10   C30   A    
C40   H12   S    
C70   H38   S    
O15   V3    S    
C69   H34   S    
C78   C79   S    
C39   C43   A    
C78   H55   S    
O23   C71   S    
C82   H65   S    
C34   C38   A    
C67   H29   S    
C1    C64   S    
O1    C5    A    
O5    C1    A    
C22   H6    S    
C15   H23   S    
C20   C43   S    
O9    V1    S    
C79   H57   S    
C74   H47   S    
O24   C74   S    
C84   C85   S    
C66   H28   S    
C4    C61   S    
O4    C8    A    
C72   C73   S    
C51   C55   A    
C87   C88   S    
C38   C42   A    
H13   C54   S    
C50   C54   A    
O1    V3    S    
C21   C25   A    
C58   C61   T    
O2    V4    S    
C14   C18   A    
C73   H43   S    
O3    V1    S    
C46   C53   A    
C5    C32   S    
C45   C54   A    
C46   C50   A    
C77   C78   S    
C6    C31   S    
C45   C49   A    
C1    O15   A    
C7    C30   S    
C48   H20   S    
C2    O16   A    
C51   C59   S    
C75   C76   S    
C47   C51   A    
O2    C6    A    
C68   C69   S    
C37   H9    S    
C59   C64   T    
O14   V2    S    
C36   O28   S    
C76   H51   S    
C11   C15   A    
C23   H7    S    
C83   C84   S    
C36   C40   A    
C36   C43   A    
O11   C7    A    
C87   H76   S    
O12   C8    A    
C13   H21   S    
C77   H54   S    
C79   H58   S    
C80   H61   S    
C73   H45   S    
C2    C63   S    
C28   O24   S    
C19   C44   S    
O10   V2    S    
C71   C72   S    
C78   H56   S    
C81   H63   S    
C65   H25   S    
C82   H66   S    
O5    V1    S    
C65   C66   S    
O7    V3    S    
C86   H74   S    
C22   C26   A    
C12   H4    S    
C74   C75   S    
C71   H40   S    
C46   H18   S    
C66   C67   S    
C49   C57   S    
C45   H17   S    
O18   V4    S    
C19   C23   A    
O3    C7    A    
C9    H1    S    
O27   C83   S    
O25   C77   S    
C67   H31   S    
O8    V4    S    
C88   H80   S    
O7    C3    A    
C84   H69   S    
C86   H75   S    
C38   H10   S    
C65   H26   S    
C82   H64   S    
C17   C21   A    
O8    C4    A    
C3    C62   S    
O9    C5    A    
C76   H52   S    
C25   C29   A    
C17   C42   S    
C8    C29   S    
C16   H24   S    
C33   O25   S    
O26   C80   S    
O6    V2    S    
C88   H79   S    
H15   C56   S    
C52   C60   S    
C68   H32   S    
H14   C53   S    
C75   H49   S    
C12   C16   A    
C23   C27   A    
C85   H72   S    
C70   H36   S    
C69   C70   S    
C49   C53   A    
C73   H44   S    
C83   H67   S    
C67   H30   S    
O21   C65   S    
O16   V4    S    
C57   C62   T    
C33   C37   A    
C34   C41   A    
C3    O13   A    
C33   C42   A    
C83   H68   S    
C10   H2    S    
H16   C55   S    
C27   C31   A    
C79   H59   S    
C35   C44   A    
C71   H39   S    
C70   H37   S    
C69   H35   S    
O6    C2    A    
C18   C41   S    
C25   O21   S    
C72   H41   S    
C81   C82   S    
O11   V3    S    
O12   V4    S    
C18   C22   A    
C26   O22   S    
C34   O26   S    
C28   C32   A    
C9    C13   A    
O10   C6    A    
C85   H73   S    
C84   H70   S    
C14   H22   S    
C86   C87   S    
O20   V2    S    
C40   C44   A    
C35   O27   S    
C66   H27   S    
C39   H11   S    
C72   H42   S    
C77   H53   S    
C9    C29   A    
C21   H5    S    
C11   H3    S    
C52   C56   A    
C27   O23   S    
C80   C81   S    
C35   C39   A    
C88   H78   S    
C48   C55   A    
C81   H62   S    
C16   C20   A    
C20   C24   A    
C50   C58   S    
C24   C28   A    
C4    O14   A    
C68   H33   S    
C47   C56   A    
C13   C17   A    
C75   H48   S    
C11   C31   A    
C85   H71   S    
C12   C32   A    
C15   C19   A    
C60   C63   T    
O4    V2    S    
C24   H8    S    
O22   C68   S    
C76   H50   S    
