data_mof_unit_212.cif
_audit_creation_date              2012-12-10T17:26:16-0500
_audit_creation_method            fapswitch 2.2
_symmetry_space_group_name_H-M    P1
_symmetry_Int_Tables_number       1
_space_group_crystal_system       triclinic
_cell_length_a                    10.199212
_cell_length_b                    10.789583
_cell_length_c                    27.159361
_cell_angle_alpha                 90.088988
_cell_angle_beta                  80.266873
_cell_angle_gamma                 94.849181
_cell_volume                      2934.94730524

loop_
_atom_site_label
_atom_site_type_symbol
_atom_type_description
_atom_site_fract_x
_atom_site_fract_y
_atom_site_fract_z
_atom_type_partial_charge
C1    C     C_R   0.555716 0.732351 0.494428 0.940127
C2    C     C_R   0.523130 0.688185 0.124600 -0.074703
C3    C     C_R   0.500447 0.519387 0.647314 -0.068419
C4    C     C_R   0.504559 0.519400 0.352770 -0.062490
C5    C     C_R   0.478769 0.726274 0.025957 0.062015
C6    C     C_R   0.287926 0.564752 0.990210 0.102952
C7    C     C_R   0.277272 0.583727 0.042400 -0.079286
C8    C     C_R   0.460978 0.737075 0.975673 -0.106235
C9    C     C_R   0.385969 0.649155 0.059522 0.039943
C10   C     C_R   0.380871 0.642049 0.956869 0.054502
C11   C     C_R   0.593712 0.780460 0.041928 -0.150357
C12   C     C_R   0.444376 0.267417 0.501717 0.929951
C13   C     C_R   0.220535 0.461844 0.971003 -0.136841
C14   C     C_R   0.615544 0.765387 0.090518 0.245373
C15   C     C_R   0.236004 0.439419 0.919938 0.223959
C16   C     C_R   0.499670 0.502019 0.594252 0.882461
C17   C     C_R   0.500568 0.499878 0.405795 0.878146
C18   C     C_R   0.526575 0.832925 0.942726 0.266641
C19   C     C_R   0.168293 0.533134 0.077897 0.314896
C20   C     C_2   0.587355 0.864005 0.486235 -0.315673
C21   C     C_2   0.413106 0.135623 0.497415 -0.309627
C22   C     C_2   0.488283 0.933665 0.481847 -0.139409
C23   C     C_R   0.399321 0.620548 0.905055 -0.111908
C24   C     C_2   0.512700 0.066007 0.481008 -0.107199
C25   C     C_2   0.926285 0.507520 0.504370 0.031421
C26   C     C_2   0.072708 0.488511 0.497200 0.029070
C27   C     C_R   0.529940 0.658239 0.822998 0.567920
C28   C     C_R   0.335510 0.539994 0.191719 0.574403
C29   C     C_R   0.346988 0.502121 0.834021 0.558058
C30   C     C_R   0.546275 0.659507 0.172639 0.564107
C31   C     C_R   0.483862 0.431431 0.730331 -0.041391
C32   C     C_R   0.483070 0.663410 0.287175 -0.062758
C33   C     C_R   0.496750 0.415883 0.678727 -0.231572
C34   C     C_R   0.404763 0.633484 0.109383 -0.112815
C35   C     C_R   0.496465 0.640943 0.336293 -0.218391
C36   C     C_R   0.495701 0.639237 0.667558 0.152369
C37   C     C_R   0.501987 0.419612 0.319569 0.141554
C38   C     C_R   0.477329 0.653458 0.718982 -0.106334
C39   C     C_R   0.489639 0.442918 0.270075 -0.084118
C40   C     C_R   0.470935 0.550337 0.750821 0.231345
C41   C     C_R   0.477897 0.564454 0.254056 0.243137
C42   C     C_R   0.496711 0.696621 0.872700 -0.138465
C43   C     C_R   0.308200 0.558912 0.143106 -0.142446
C44   C     C_R   0.553749 0.808832 0.891017 0.168319
C45   C     C_R   0.187429 0.510310 0.127291 0.162687
C46   C     C_R   0.325692 0.519409 0.886074 -0.070129
H1    H     H_    0.310721 0.095431 0.507904 0.183514
H2    H     H_    0.481529 0.351015 0.754358 0.179337
H3    H     H_    0.671261 0.831477 0.015955 0.202273
H4    H     H_    0.161119 0.392989 0.995889 0.201991
H5    H     H_    0.615381 0.105608 0.470746 0.228926
H6    H     H_    0.385964 0.893919 0.483291 0.218871
H7    H     H_    0.200180 0.795512 0.608503 0.382214
H8    H     H_    0.800891 0.216902 0.386504 0.381939
H9    H     H_    0.368096 0.981702 0.022036 0.368519
H10   H     H_    0.903453 0.607891 0.008881 0.389116
H11   H     H_    0.689294 0.904268 0.485040 0.188306
H12   H     H_    0.113222 0.419139 0.471648 0.186927
H13   H     H_    0.884784 0.573707 0.531212 0.188675
H14   H     H_    0.468672 0.745646 0.734371 0.177003
H15   H     H_    0.484871 0.366428 0.244405 0.174907
H16   H     H_    0.496609 0.717983 0.361967 0.155427
H17   H     H_    0.501507 0.323306 0.663387 0.165390
H18   H     H_    0.472963 0.757243 0.275123 0.166439
I1    I     I_    0.523943 0.804153 0.623518 -0.248310
I2    I     I_    0.503829 0.232566 0.343017 -0.250244
I3    I     I_    0.670870 0.949068 0.842008 -0.034952
I4    I     I_    0.034119 0.390583 0.173114 0.002717
I5    I     I_    0.790725 0.870930 0.105835 -0.043356
I6    I     I_    0.128770 0.272245 0.901278 -0.062134
N1    N     N_R   0.450462 0.568308 0.804019 -0.350805
N2    N     N_R   0.453395 0.587267 0.204570 -0.358104
N3    N     N_2   0.842700 0.448890 0.480020 0.042518
N4    N     N_2   0.157300 0.551110 0.519980 0.041509
O1    O     O_R   0.431060 0.692470 0.504020 -0.563769
O2    O     O_2   0.245664 0.476802 0.226688 -0.496735
O3    O     O_2   0.661563 0.700148 0.187564 -0.483315
O4    O     O_2   0.264212 0.422495 0.813096 -0.508167
O5    O     O_2   0.046624 0.763957 0.536665 -0.310665
O6    O     O_2   0.004033 0.607553 0.604448 -0.280829
O7    O     O_3   0.236838 0.729666 0.586106 -0.485638
O8    O     O_2   0.000276 0.400766 0.395382 -0.270477
O9    O     O_2   0.949680 0.235576 0.459655 -0.314696
O10   O     O_3   0.764973 0.282414 0.409242 -0.498891
O11   O     O_2   0.688943 0.030386 0.962196 -0.219047
O12   O     O_R   0.568940 0.307530 0.495980 -0.570139
O13   O     O_2   0.484940 0.074171 0.932035 -0.250653
O14   O     O_3   0.463899 0.001325 0.023691 -0.510238
O15   O     O_2   0.950217 0.396043 0.057657 -0.266596
O16   O     O_2   0.913284 0.583763 0.106826 -0.234878
O17   O     O_3   0.999042 0.611196 0.012030 -0.543169
O18   O     O_R   0.651120 0.659650 0.491200 -0.622967
O19   O     O_R   0.348880 0.340350 0.508800 -0.625790
O20   O     O_R   0.389980 0.516390 0.577660 -0.545330
O21   O     O_R   0.610020 0.483610 0.422340 -0.543217
O22   O     O_R   0.610040 0.483570 0.564830 -0.622619
O23   O     O_R   0.389960 0.516430 0.435170 -0.630142
O24   O     O_2   0.642678 0.706716 0.793863 -0.501188
S1    S     S_3+6 0.106234 0.664667 0.562397 0.120248
S2    S     S_3+6 0.894419 0.340304 0.435456 0.120325
S3    S     S_3+6 0.543554 0.988863 0.964590 0.068450
S4    S     S_3+6 0.002551 0.528466 0.064194 0.049073
Zn1   Zn    Zn3+2 0.353060 0.521910 0.508560 1.081748
Zn2   Zn    Zn3+2 0.646940 0.478090 0.491440 1.085910

loop_
_geom_bond_atom_site_label_1
_geom_bond_atom_site_label_2
_ccdc_geom_bond_type
N3    S2    S    
C27   O24   S    
C40   N1    S    
O15   S4    D    
O12   Zn2   S    
O19   Zn1   S    
H8    O10   S    
O14   S3    S    
O11   S3    D    
C39   C41   A    
C23   C42   A    
O5    S1    D    
C5    C11   A    
C19   S4    S    
C3    C33   A    
C31   C40   A    
H7    O7    S    
H9    O14   S    
O16   S4    D    
C26   N4    D    
O13   S3    D    
C30   O3    S    
N3    Zn2   S    
C29   O4    S    
C32   C41   A    
C31   C33   A    
C17   O21   A    
C2    C34   A    
C24   H5    S    
C4    C35   A    
C23   C46   A    
O1    Zn1   S    
C28   N2    A    
C42   C44   A    
H10   O17   S    
C39   H15   S    
C16   O22   A    
O10   S2    S    
C32   C35   A    
C32   H18   S    
N4    S1    S    
C36   I1    S    
O7    S1    S    
C25   C26   S    
C12   C21   S    
C8    C18   A    
C18   S3    S    
C1    O1    A    
C5    C9    A    
C11   H3    S    
C18   C44   A    
C26   H12   S    
C33   H17   S    
C37   I2    S    
C45   I4    S    
C43   C45   A    
O23   Zn1   S    
C41   N2    S    
C38   H14   S    
C4    C17   S    
C20   C22   D    
O20   Zn1   S    
C1    O18   A    
C7    C19   A    
C31   H2    S    
C13   C15   A    
O6    S1    D    
C9    C34   A    
C14   I5    S    
C22   C24   S    
C12   O19   A    
O17   S4    S    
C28   O2    S    
C27   N1    A    
O21   Zn2   S    
C22   H6    S    
C7    C9    A    
C15   I6    S    
C1    C20   S    
O8    S2    D    
C34   C43   A    
C6    C10   A    
C5    C8    A    
C30   N2    A    
C19   C45   A    
C6    C7    A    
C10   C23   A    
C28   C43   A    
C16   O20   A    
C12   O12   A    
C29   C46   A    
C2    C30   A    
O22   Zn2   S    
C37   C39   A    
C6    C13   A    
C38   C40   A    
C27   C42   A    
C3    C36   A    
C36   C38   A    
C11   C14   A    
C35   H16   S    
C25   N3    D    
C2    C14   A    
O18   Zn2   S    
C13   H4    S    
O9    S2    D    
C4    C37   A    
C8    C10   A    
C21   C24   D    
C44   I3    S    
C25   H13   S    
C15   C46   A    
C29   N1    A    
C20   H11   S    
C17   O23   A    
C3    C16   S    
N4    Zn1   S    
C21   H1    S    
