data_mof_unit_933.cif
_audit_creation_date              2012-12-10T16:48:45-0500
_audit_creation_method            fapswitch 2.2
_symmetry_space_group_name_H-M    P1
_symmetry_Int_Tables_number       1
_space_group_crystal_system       triclinic
_cell_length_a                    17.341892
_cell_length_b                    8.743715
_cell_length_c                    7.474697
_cell_angle_alpha                 103.098116
_cell_angle_beta                  90.876451
_cell_angle_gamma                 94.008336
_cell_volume                      1100.65410918

loop_
_atom_site_label
_atom_site_type_symbol
_atom_type_description
_atom_site_fract_x
_atom_site_fract_y
_atom_site_fract_z
_atom_type_partial_charge
C1    C     C_R   0.496705 0.200315 0.454355 0.844433
C2    C     C_R   0.503298 0.799684 0.545642 0.844440
C3    C     C_2   0.486846 0.033033 0.433055 -0.045128
C4    C     C_2   0.513163 0.966965 0.566932 -0.045135
C5    C     C_R   0.351444 0.501367 0.524980 0.852022
C6    C     C_R   0.648557 0.498629 0.475020 0.851976
C7    C     C_R   0.267794 0.507171 0.539162 -0.077558
C8    C     C_R   0.732208 0.492797 0.460845 -0.077580
C9    C     C_R   0.219364 0.416698 0.395265 0.096717
C10   C     C_R   0.780638 0.583191 0.604796 0.096748
C11   C     C_R   0.140769 0.436611 0.394991 -0.236482
C12   C     C_R   0.859226 0.563220 0.605097 -0.236513
C13   C     C_R   0.108721 0.542042 0.539034 0.082496
C14   C     C_R   0.891271 0.457812 0.461034 0.082496
C15   C     C_R   0.156349 0.629922 0.686631 0.129257
C16   C     C_R   0.843646 0.370005 0.313392 0.129273
C17   C     C_R   0.236159 0.612145 0.686832 0.091180
C18   C     C_R   0.763841 0.387840 0.313156 0.091176
C19   C     C_2   0.025568 0.561279 0.532837 -0.209730
C20   C     C_2   0.974422 0.438551 0.467239 -0.209738
Cu1   Cu    Cu3+1 0.508700 0.517250 0.683000 1.002316
Cu2   Cu    Cu3+1 0.491300 0.482750 0.317000 1.002312
H1    H     H_    0.894887 0.628918 0.721204 0.145186
H2    H     H_    0.105107 0.370852 0.278917 0.145176
N1    N     N_2   0.478180 0.456750 0.041980 0.011395
N2    N     N_2   0.521820 0.543250 0.958020 0.011397
O1    O     O_R   0.505650 0.286040 0.618880 -0.538936
O2    O     O_R   0.494350 0.713960 0.381120 -0.538924
O3    O     O_R   0.490960 0.256910 0.309800 -0.609672
O4    O     O_R   0.509040 0.743090 0.690200 -0.609673
O5    O     O_R   0.394600 0.516230 0.672450 -0.555512
O6    O     O_R   0.605400 0.483770 0.327550 -0.555518
O7    O     O_R   0.379910 0.487100 0.363380 -0.576369
O8    O     O_R   0.620090 0.512900 0.636620 -0.576345
N3    N     N_3   0.249904 0.303763 0.248590 -0.594449
H3    H     H_    0.222163 0.193223 0.246385 0.213111
H4    H     H_    0.236077 0.333286 0.124576 0.216749
N4    N     N_3   0.750103 0.696099 0.751511 -0.594424
H5    H     H_    0.777871 0.806633 0.753803 0.213102
H6    H     H_    0.763907 0.666504 0.875496 0.216742
N5    N     N_3   0.714414 0.295011 0.166911 -0.562008
H7    H     H_    0.720758 0.175975 0.161257 0.226910
H8    H     H_    0.732627 0.319671 0.043038 0.242813
N6    N     N_3   0.285588 0.705039 0.833029 -0.562024
H9    H     H_    0.279205 0.824061 0.838682 0.226917
H10   H     H_    0.267407 0.680365 0.956917 0.242821
H11   H     H_    0.993873 0.321736 0.416578 0.148390
H12   H     H_    0.006111 0.678090 0.583490 0.148397
N7    N     N_3   0.124926 0.737091 0.837619 -0.619570
H13   H     H_    0.081398 0.675726 0.894292 0.222432
H14   H     H_    0.100603 0.825976 0.787889 0.208717
N8    N     N_3   0.875067 0.262849 0.162396 -0.619568
H15   H     H_    0.918614 0.324202 0.105765 0.222431
H16   H     H_    0.899366 0.173927 0.212103 0.208718
N9    N     N_3   0.443621 0.942254 0.273347 -0.563417
H17   H     H_    0.472472 0.957352 0.156043 0.224584
H18   H     H_    0.389325 0.986838 0.270290 0.211941
N10   N     N_3   0.556402 0.057742 0.726622 -0.563441
H19   H     H_    0.527561 0.042650 0.843941 0.224587
H20   H     H_    0.610699 0.013154 0.729645 0.211933
N11   N     N_3   0.421431 0.356284 0.934884 -0.405361
H21   H     H_    0.427979 0.243898 0.956284 0.204594
H22   H     H_    0.368307 0.390006 0.988136 0.218975
N12   N     N_3   0.578566 0.643721 0.065118 -0.405355
H23   H     H_    0.572036 0.756090 0.043651 0.204593
H24   H     H_    0.631692 0.609962 0.011915 0.218981

loop_
_geom_bond_atom_site_label_1
_geom_bond_atom_site_label_2
_ccdc_geom_bond_type
C2    C4    S    
Cu1   N2    S    
C7    C9    A    
Cu2   O3    S    
Cu1   O5    S    
Cu1   O4    S    
N5    H8    S    
C6    O6    A    
C19   C20   D    
C10   N4    S    
N9    H17   S    
C6    O8    A    
N12   H23   S    
N7    H14   S    
C1    O3    A    
Cu1   O1    S    
C17   N6    S    
N9    H18   S    
Cu2   O2    S    
Cu1   Cu2   S    
N8    H15   S    
C15   N7    S    
N4    H6    S    
C9    C11   A    
C12   H1    S    
N12   H24   S    
N4    H5    S    
C10   C12   A    
C6    C8    S    
C16   C18   A    
N3    H4    S    
N8    H16   S    
C5    C7    S    
C13   C15   A    
N11   H21   S    
C8    C10   A    
C14   C16   A    
N10   H19   S    
C20   H11   S    
C2    O2    A    
C2    O4    A    
C13   C19   S    
N10   H20   S    
C3    C4    D    
C14   C20   S    
C11   H2    S    
C11   C13   A    
Cu2   O6    S    
N6    H9    S    
C1    O1    A    
N7    H13   S    
N5    H7    S    
C18   N5    S    
C4    N10   S    
C1    C3    S    
C15   C17   A    
Cu2   O7    S    
N2    N12   S    
C19   H12   S    
C9    N3    S    
N1    N11   S    
Cu1   O8    S    
N6    H10   S    
C5    O5    A    
N1    N2    D    
C3    N9    S    
N11   H22   S    
C8    C18   A    
C16   N8    S    
N3    H3    S    
C12   C14   A    
C7    C17   A    
Cu2   N1    S    
C5    O7    A    
