data_mof_unit_4679.cif
_audit_creation_date              2012-12-11T14:24:45-0500
_audit_creation_method            fapswitch 2.2
_symmetry_space_group_name_H-M    P1
_symmetry_Int_Tables_number       1
_space_group_crystal_system       triclinic
_cell_length_a                    18.967522
_cell_length_b                    11.010429
_cell_length_c                    18.713476
_cell_angle_alpha                 89.27737
_cell_angle_beta                  90.816083
_cell_angle_gamma                 90.6802
_cell_volume                      3907.15830834

loop_
_atom_site_label
_atom_site_type_symbol
_atom_type_description
_atom_site_fract_x
_atom_site_fract_y
_atom_site_fract_z
_atom_type_partial_charge
C1    C     C_R   0.729703 0.374821 0.145334 0.536209
C2    C     C_R   0.268994 0.376095 0.853557 0.552413
C3    C     C_R   0.229703 0.874821 0.145334 0.536187
C4    C     C_R   0.768994 0.876095 0.853557 0.552412
C5    C     C_3   0.495054 0.048011 0.024607 -0.168595
C6    C     C_3   0.548093 0.090364 0.967276 -0.188407
C7    C     C_3   0.995054 0.548011 0.024607 -0.168593
C8    C     C_3   0.048093 0.590364 0.967276 -0.188407
C9    C     C_R   0.749344 0.911109 0.926087 -0.017486
C10   C     C_R   0.244079 0.903092 0.069983 -0.000724
C11   C     C_R   0.249344 0.411109 0.926087 -0.017486
C12   C     C_R   0.744079 0.403092 0.069983 -0.000722
C13   C     C_R   0.696835 0.847894 0.966318 0.010482
C14   C     C_R   0.303663 0.858512 0.033966 0.015603
C15   C     C_R   0.196835 0.347894 0.966318 0.010483
C16   C     C_R   0.803663 0.358512 0.033966 0.015603
C17   C     C_R   0.701644 0.848552 0.042125 0.030092
C18   C     C_R   0.301143 0.851711 0.958358 0.013086
C19   C     C_R   0.201644 0.348552 0.042125 0.030094
C20   C     C_R   0.801143 0.351711 0.958358 0.013086
C21   C     C_R   0.799397 0.992413 0.034403 -0.065098
C22   C     C_R   0.186821 0.947141 0.956451 -0.129515
C23   C     C_R   0.299398 0.492412 0.034403 -0.065093
C24   C     C_R   0.686820 0.447141 0.956451 -0.129515
C25   C     C_R   0.798302 0.985131 0.961486 -0.119922
C26   C     C_R   0.186171 0.944818 0.029587 -0.146423
C27   C     C_R   0.298302 0.485130 0.961486 -0.119924
C28   C     C_R   0.686172 0.444818 0.029587 -0.146424
C29   C     C_R   0.640475 0.782458 0.934166 -0.093555
C30   C     C_R   0.364880 0.817815 0.070323 -0.104045
C31   C     C_R   0.140475 0.282458 0.934166 -0.093555
C32   C     C_R   0.864880 0.317815 0.070323 -0.104045
C33   C     C_R   0.096625 0.208144 0.975033 -0.134159
C34   C     C_R   0.916586 0.255620 0.034108 -0.145116
C35   C     C_R   0.596625 0.708144 0.975033 -0.134159
C36   C     C_R   0.416586 0.755620 0.034108 -0.145115
C37   C     C_R   0.605290 0.701488 0.048690 -0.140123
C38   C     C_R   0.409923 0.737703 0.960968 -0.128032
C39   C     C_R   0.105289 0.201488 0.048690 -0.140120
C40   C     C_R   0.909923 0.237703 0.960968 -0.128032
C41   C     C_R   0.657543 0.770062 0.082144 -0.076438
C42   C     C_R   0.353243 0.785957 0.923163 -0.091753
C43   C     C_R   0.157543 0.270062 0.082144 -0.076442
C44   C     C_R   0.853243 0.285957 0.923163 -0.091753
C45   C     C_R   0.533502 0.155237 0.143809 0.597753
C46   C     C_R   0.467700 0.155487 0.855370 0.567299
C47   C     C_R   0.033502 0.655237 0.143809 0.597746
C48   C     C_R   0.967700 0.655487 0.855370 0.567300
C49   C     C_R   0.750869 0.927136 0.075704 0.044177
C50   C     C_R   0.245957 0.909807 0.920199 -0.011763
C51   C     C_R   0.250869 0.427135 0.075704 0.044176
C52   C     C_R   0.745957 0.409807 0.920199 -0.011763
C53   C     C_R   0.515112 0.170545 0.585138 0.059819
C54   C     C_R   0.535552 0.156658 0.436972 0.004634
C55   C     C_R   0.015104 0.670543 0.585133 0.059820
C56   C     C_R   0.035527 0.656660 0.436966 0.004660
C57   C     C_R   0.542752 0.064442 0.555459 -0.023604
C58   C     C_R   0.535949 0.050519 0.481067 -0.076332
C59   C     C_R   0.042732 0.564435 0.555449 -0.023595
C60   C     C_R   0.035921 0.550519 0.481058 -0.076337
C61   C     C_R   0.522709 0.268892 0.468787 -0.143786
C62   C     C_R   0.506648 0.273467 0.541157 -0.097443
C63   C     C_R   0.022694 0.768895 0.468784 -0.143791
C64   C     C_R   0.006642 0.773470 0.541156 -0.097440
C65   C     C_R   0.558230 0.961738 0.598263 -0.036987
C66   C     C_R   0.515674 0.933715 0.456885 -0.144794
C67   C     C_R   0.058209 0.461725 0.598249 -0.036923
C68   C     C_R   0.015644 0.433719 0.456872 -0.144788
C69   C     C_R   0.037190 0.347937 0.574394 0.400122
C70   C     C_R   0.008901 0.337636 0.505627 0.362684
C71   C     C_R   0.537213 0.847947 0.574411 0.400132
C72   C     C_R   0.508925 0.837641 0.505644 0.362687
C73   C     C_R   0.774737 0.856333 0.565217 0.032670
C74   C     C_R   0.247459 0.911644 0.428931 -0.007969
C75   C     C_R   0.274733 0.356321 0.565215 0.032695
C76   C     C_R   0.747446 0.411616 0.428940 -0.007990
C77   C     C_R   0.800698 0.780581 0.511638 -0.101932
C78   C     C_R   0.198822 0.984621 0.464387 -0.081087
C79   C     C_R   0.300711 0.280587 0.511637 -0.101949
C80   C     C_R   0.698807 0.484589 0.464396 -0.081092
C81   C     C_R   0.790463 0.813828 0.439297 0.008455
C82   C     C_R   0.184867 0.957364 0.535791 0.016094
C83   C     C_R   0.290492 0.313852 0.439297 0.008475
C84   C     C_R   0.684857 0.457339 0.535801 0.016095
C85   C     C_R   0.724619 0.990943 0.478155 -0.100535
C86   C     C_R   0.293045 0.843522 0.544193 -0.088549
C87   C     C_R   0.224580 0.490893 0.478152 -0.100571
C88   C     C_R   0.793033 0.343494 0.544201 -0.088509
C89   C     C_R   0.742077 0.969210 0.148789 0.577258
C90   C     C_R   0.257193 0.965812 0.849945 0.545603
C91   C     C_R   0.242077 0.469210 0.148789 0.577243
C92   C     C_R   0.757193 0.465812 0.849945 0.545604
C93   C     C_R   0.736731 0.960633 0.548391 0.379110
C94   C     C_R   0.293907 0.838573 0.469977 0.347531
C95   C     C_R   0.236694 0.460579 0.548388 0.379109
C96   C     C_R   0.793891 0.338539 0.469985 0.347495
C97   C     C_R   0.837320 0.673775 0.528662 -0.147428
C98   C     C_R   0.157500 0.072495 0.428816 -0.118942
C99   C     C_R   0.337332 0.173780 0.528660 -0.147447
C100  C     C_R   0.657485 0.572466 0.428827 -0.118940
C101  C     C_R   0.865199 0.603470 0.475197 -0.177218
C102  C     C_R   0.092274 0.101650 0.455490 -0.159263
C103  C     C_R   0.365230 0.103496 0.475195 -0.177232
C104  C     C_R   0.592263 0.601630 0.455505 -0.159278
C105  C     C_R   0.856903 0.637111 0.403736 -0.065768
C106  C     C_R   0.071320 0.054069 0.521463 -0.028241
C107  C     C_R   0.356970 0.137179 0.403738 -0.065761
C108  C     C_R   0.571314 0.554062 0.521483 -0.028240
C109  C     C_R   0.819291 0.741071 0.385211 0.385171
C110  C     C_R   0.118394 0.986863 0.563173 0.423271
C111  C     C_R   0.319362 0.241143 0.385215 0.385228
C112  C     C_R   0.618387 0.486850 0.563189 0.423270
C113  C     C_R   0.751893 0.919485 0.424330 -0.020006
C114  C     C_R   0.239799 0.907787 0.577735 -0.013336
C115  C     C_R   0.251897 0.419481 0.424328 -0.019990
C116  C     C_R   0.739791 0.407768 0.577744 -0.013312
C117  C     C_R   0.730960 0.378303 0.355079 0.556458
C118  C     C_R   0.288846 0.330485 0.638997 0.571176
C119  C     C_R   0.230963 0.878310 0.355075 0.556445
C120  C     C_R   0.788846 0.830489 0.638997 0.571166
C121  C     C_R   0.556915 0.152872 0.361498 0.550497
C122  C     C_R   0.472356 0.158971 0.650332 0.525777
C123  C     C_R   0.056901 0.652874 0.361497 0.550515
C124  C     C_R   0.972355 0.658971 0.650331 0.525773
C125  C     C_R   0.743068 0.967635 0.354350 0.640897
C126  C     C_R   0.255283 0.965330 0.646208 0.564993
C127  C     C_R   0.243069 0.467635 0.354349 0.640894
C128  C     C_R   0.755281 0.465324 0.646212 0.564997
C129  C     C_3   0.507289 0.275363 0.974147 0.403081
C130  C     C_3   0.454883 0.233092 0.031127 0.405622
C131  C     C_3   0.007289 0.775363 0.974147 0.403081
C132  C     C_3   0.954883 0.733092 0.031127 0.405620
C133  C     C_3   0.566932 0.204034 0.011918 -0.158835
C134  C     C_3   0.435486 0.120147 0.986950 -0.132456
C135  C     C_3   0.066932 0.704034 0.011918 -0.158833
C136  C     C_3   0.935485 0.620147 0.986950 -0.132454
C137  C     C_3   0.513174 0.161729 0.068394 0.009392
C138  C     C_3   0.489254 0.162700 0.930234 0.014792
C139  C     C_3   0.013174 0.661729 0.068394 0.009394
C140  C     C_3   0.989254 0.662700 0.930234 0.014791
Cr1   Cr    Cr6+3 0.772820 0.169820 0.252640 1.094721
Cr2   Cr    Cr6+3 0.227180 0.169820 0.747360 1.103586
Cr3   Cr    Cr6+3 0.272820 0.669820 0.252640 1.094760
Cr4   Cr    Cr6+3 0.727180 0.669820 0.747360 1.103589
Cr5   Cr    Cr6+3 0.615040 0.323610 0.249150 1.051048
Cr6   Cr    Cr6+3 0.384960 0.323610 0.750850 1.114208
Cr7   Cr    Cr6+3 0.115040 0.823610 0.249150 1.051004
Cr8   Cr    Cr6+3 0.884960 0.823610 0.750850 1.114214
Cr9   Cr    Cr6+3 0.616720 0.011130 0.250660 1.021021
Cr10  Cr    Cr6+3 0.383280 0.011130 0.749340 1.038620
Cr11  Cr    Cr6+3 0.116720 0.511130 0.250660 1.020979
Cr12  Cr    Cr6+3 0.883280 0.511130 0.749340 1.038619
H1    H     H_    0.621611 0.233565 0.024248 0.126054
H2    H     H_    0.381164 0.086289 0.975556 0.140685
H3    H     H_    0.121611 0.733564 0.024248 0.126057
H4    H     H_    0.881164 0.586290 0.975556 0.140686
H5    H     H_    0.519374 0.351222 0.436768 0.154724
H6    H     H_    0.483833 0.355249 0.561768 0.169471
H7    H     H_    0.019365 0.851229 0.436767 0.154704
H8    H     H_    0.983838 0.855257 0.561772 0.169491
H9    H     H_    0.573378 0.971480 0.653980 0.186299
H10   H     H_    0.492420 0.919221 0.404793 0.195513
H11   H     H_    0.073363 0.471462 0.653965 0.186339
H12   H     H_    0.992389 0.419234 0.404780 0.195504
H13   H     H_    0.696110 0.073532 0.465475 0.133653
H14   H     H_    0.334902 0.800860 0.575065 0.206606
H15   H     H_    0.196038 0.573451 0.465472 0.133633
H16   H     H_    0.834891 0.300834 0.575072 0.206613
H17   H     H_    0.844389 0.643719 0.583289 0.129408
H18   H     H_    0.172343 0.109617 0.377216 0.167977
H19   H     H_    0.344386 0.143709 0.583285 0.129409
H20   H     H_    0.672326 0.609590 0.377227 0.168063
H21   H     H_    0.892152 0.521131 0.489674 0.155008
H22   H     H_    0.057409 0.155435 0.422298 0.193664
H23   H     H_    0.392184 0.021160 0.489670 0.155027
H24   H     H_    0.557398 0.655413 0.422313 0.193683
H25   H     H_    0.878609 0.581033 0.362544 0.158150
H26   H     H_    0.018871 0.068371 0.540970 0.240478
H27   H     H_    0.378713 0.081142 0.362552 0.158179
H28   H     H_    0.518869 0.568381 0.540997 0.240489
H29   H     H_    0.492125 0.955154 0.047494 0.163683
H30   H     H_    0.586355 0.032664 0.939533 0.142667
H31   H     H_    0.992125 0.455154 0.047494 0.163684
H32   H     H_    0.086355 0.532664 0.939533 0.142668
H33   H     H_    0.838466 0.051890 0.058419 0.179291
H34   H     H_    0.141547 0.983637 0.928119 0.203006
H35   H     H_    0.338467 0.551890 0.058419 0.179293
H36   H     H_    0.641547 0.483637 0.928119 0.203007
H37   H     H_    0.627996 0.789193 0.877884 0.154635
H38   H     H_    0.374158 0.834025 0.126463 0.147708
H39   H     H_    0.127996 0.289193 0.877884 0.154633
H40   H     H_    0.874158 0.334025 0.126463 0.147708
H41   H     H_    0.839190 0.033156 0.932795 0.166255
H42   H     H_    0.137263 0.969067 0.054087 0.174607
H43   H     H_    0.339190 0.533155 0.932795 0.166255
H44   H     H_    0.637263 0.469067 0.054087 0.174606
H45   H     H_    0.057763 0.151442 0.948954 0.155947
H46   H     H_    0.961097 0.219635 0.063450 0.127931
H47   H     H_    0.557763 0.651442 0.948954 0.155948
H48   H     H_    0.461097 0.719635 0.063450 0.127934
H49   H     H_    0.072370 0.140965 0.080094 0.125655
H50   H     H_    0.947304 0.183923 0.932950 0.142751
H51   H     H_    0.572370 0.640965 0.080094 0.125660
H52   H     H_    0.447304 0.683923 0.932950 0.142751
H53   H     H_    0.664467 0.757435 0.139178 0.150169
H54   H     H_    0.348766 0.765485 0.866896 0.145704
H55   H     H_    0.164467 0.257435 0.139178 0.150131
H56   H     H_    0.848766 0.265485 0.866896 0.145706
O1    O     O_R   0.788190 0.043000 0.172520 -0.500353
O2    O     O_R   0.211810 0.043000 0.827480 -0.501839
O3    O     O_R   0.288190 0.543000 0.172520 -0.500325
O4    O     O_R   0.711810 0.543000 0.827480 -0.501834
O5    O     O_R   0.556550 0.253260 0.323480 -0.481927
O6    O     O_R   0.443450 0.253260 0.676520 -0.504174
O7    O     O_R   0.056550 0.753260 0.323480 -0.481954
O8    O     O_R   0.943450 0.753260 0.676520 -0.504179
O9    O     O_R   0.545830 0.051610 0.330160 -0.533306
O10   O     O_R   0.454170 0.051610 0.669840 -0.528949
O11   O     O_R   0.045830 0.551610 0.330160 -0.533300
O12   O     O_R   0.954170 0.551610 0.669840 -0.528963
O13   O     O_R   0.681920 0.959720 0.327070 -0.523252
O14   O     O_R   0.318080 0.959720 0.672930 -0.523090
O15   O     O_R   0.181920 0.459720 0.327070 -0.523320
O16   O     O_R   0.818080 0.459720 0.672930 -0.523090
O17   O     O_3   0.668190 0.168190 0.250820 -0.297142
O18   O     O_3   0.331810 0.168190 0.749180 -0.316111
O19   O     O_3   0.168190 0.668190 0.250820 -0.297119
O20   O     O_3   0.831810 0.668190 0.749180 -0.316108
O21   O     O_R   0.766240 0.292300 0.176860 -0.521077
O22   O     O_R   0.233760 0.292300 0.823140 -0.511692
O23   O     O_R   0.266240 0.792300 0.176860 -0.521077
O24   O     O_R   0.733760 0.792300 0.823140 -0.511693
O25   O     O_R   0.670310 0.409160 0.168720 -0.524296
O26   O     O_R   0.329690 0.409160 0.831280 -0.496792
O27   O     O_R   0.170310 0.909160 0.168720 -0.524313
O28   O     O_R   0.829690 0.909160 0.831280 -0.496790
O29   O     O_R   0.556160 0.251900 0.173380 -0.471647
O30   O     O_R   0.443840 0.251900 0.826620 -0.452068
O31   O     O_R   0.056160 0.751900 0.173380 -0.471657
O32   O     O_R   0.943840 0.751900 0.826620 -0.452070
O33   O     O_R   0.545410 0.050140 0.168240 -0.526109
O34   O     O_R   0.454590 0.050140 0.831760 -0.518513
O35   O     O_R   0.045410 0.550140 0.168240 -0.526105
O36   O     O_R   0.954590 0.550140 0.831760 -0.518512
O37   O     O_R   0.681530 0.958350 0.176970 -0.518246
O38   O     O_R   0.318470 0.958350 0.823030 -0.509660
O39   O     O_R   0.181530 0.458350 0.176970 -0.518268
O40   O     O_R   0.818470 0.458350 0.823030 -0.509660
O41   O     O_R   0.788610 0.044480 0.334450 -0.434238
O42   O     O_R   0.211390 0.044480 0.665550 -0.442750
O43   O     O_R   0.288610 0.544480 0.334450 -0.434163
O44   O     O_R   0.711390 0.544480 0.665550 -0.442751
O45   O     O_R   0.766630 0.293670 0.326970 -0.438175
O46   O     O_R   0.233370 0.293670 0.673030 -0.463605
O47   O     O_R   0.266630 0.793670 0.326970 -0.438172
O48   O     O_R   0.733370 0.793670 0.673030 -0.463633
O49   O     O_R   0.670730 0.410640 0.330640 -0.536308
O50   O     O_R   0.329270 0.410640 0.669360 -0.455995
O51   O     O_R   0.170730 0.910640 0.330640 -0.536316
O52   O     O_R   0.829270 0.910640 0.669360 -0.455963
F1    F     F_    0.034633 0.253141 0.621231 -0.608158
F2    F     F_    0.967983 0.240845 0.488272 -0.605796
F3    F     F_    0.534654 0.753155 0.621250 -0.608164
F4    F     F_    0.467994 0.740860 0.488298 -0.605807
F5    F     F_    0.713347 0.034875 0.600223 -0.620737
F6    F     F_    0.340832 0.764941 0.438665 -0.558810
F7    F     F_    0.213280 0.534785 0.600219 -0.620771
F8    F     F_    0.840812 0.264900 0.438673 -0.558809
F9    F     F_    0.810883 0.768305 0.314670 -0.632803
F10   F     F_    0.097067 0.943144 0.627682 -0.605066
F11   F     F_    0.311027 0.268457 0.314688 -0.632775
F12   F     F_    0.597064 0.443138 0.627701 -0.605063
F13   F     F_    0.512966 0.392375 0.947064 -0.646942
F14   F     F_    0.407791 0.305615 0.065884 -0.617922
F15   F     F_    0.012966 0.892375 0.947064 -0.646944
F16   F     F_    0.907791 0.805615 0.065884 -0.617930

loop_
_geom_bond_atom_site_label_1
_geom_bond_atom_site_label_2
_ccdc_geom_bond_type
C96   F8    S    
C119  O51   A    
Cr6   O26   S    
C15   C19   A    
C24   C52   A    
Cr2   O42   S    
Cr5   O25   S    
C100  H20   S    
Cr1   O41   S    
C14   C18   A    
C129  F13   S    
Cr8   O20   S    
C73   C93   A    
C48   O36   A    
C29   H37   S    
C128  O16   A    
C88   C96   A    
C92   O40   A    
C75   C95   A    
C7    C8    S    
C104  H24   S    
C65   C71   A    
C132  C139  S    
C133  C137  S    
C74   C119  S    
Cr4   O48   S    
C32   H40   S    
C123  O7    A    
C33   C39   A    
Cr3   O43   S    
C6    H30   S    
C37   C41   A    
Cr10  O18   S    
C4    O24   A    
C13   C29   A    
C35   C37   A    
Cr8   O52   S    
C102  H22   S    
C38   C42   A    
C6    C133  S    
C55   C59   A    
C53   C122  S    
C18   C42   A    
C124  O8    A    
C5    C6    S    
C114  C126  S    
C132  C136  S    
Cr2   O22   S    
C93   F5    S    
C61   C62   A    
C21   C25   A    
Cr1   O21   S    
C132  F16   S    
C31   H39   S    
C104  C108  A    
C100  C104  A    
C115  C127  S    
C124  O12   A    
C108  H28   S    
C43   H55   S    
Cr10  O38   S    
C121  O9    A    
Cr11  O19   S    
Cr10  O10   S    
Cr9   O33   S    
C9    C13   A    
C109  F9    S    
C131  C140  S    
C86   C94   A    
C51   C91   S    
C120  O52   A    
Cr12  O20   S    
Cr7   O7    S    
C85   C93   A    
C2    O26   A    
C66   C72   A    
C129  C138  S    
C12   C16   A    
C89   O37   A    
C79   C83   A    
Cr5   O29   S    
C78   C98   A    
C87   C115  A    
C31   C33   A    
C102  C106  A    
C111  F11   S    
C130  F14   S    
C118  O46   A    
C77   C97   A    
C127  O43   A    
Cr12  O12   S    
C136  C140  S    
C46   C138  S    
C59   C67   A    
C8    H32   S    
C11   C15   A    
C30   H38   S    
C134  C138  S    
Cr4   O44   S    
C116  C128  S    
C59   C60   A    
C84   C116  A    
C73   C120  S    
C38   H52   S    
C80   C100  A    
C8    C135  S    
C41   H53   S    
Cr10  O14   S    
C112  F12   S    
C44   H56   S    
C130  C134  S    
C1    C12   S    
C117  O45   A    
C14   C30   A    
C1    O21   A    
C30   C36   A    
C2    C11   S    
Cr8   O8    S    
Cr11  O39   S    
C5    H29   S    
C48   O32   A    
C4    O28   A    
C50   C90   S    
C11   C27   A    
Cr2   O18   S    
C45   O29   A    
C68   H12   S    
C71   F3    S    
C5    C134  S    
C94   F6    S    
C91   O39   A    
C72   F4    S    
C101  C105  A    
C49   C89   S    
C101  H21   S    
C48   C140  S    
C35   H47   S    
C3    O27   A    
C56   C123  S    
C83   C115  A    
C90   O2    A    
Cr11  O11   S    
C82   C114  A    
C53   C57   A    
C91   O3    A    
C99   C103  A    
C10   C14   A    
C135  H3    S    
C3    O23   A    
C80   C84   A    
C110  F10   S    
Cr7   O19   S    
Cr3   O3    S    
Cr6   O18   S    
C45   C137  S    
C88   H16   S    
C98   C102  A    
C45   O33   A    
Cr5   O49   S    
C108  C112  A    
C87   C95   A    
C28   H44   S    
Cr8   O28   S    
C121  O5    A    
C88   C116  A    
Cr1   O1    S    
C135  C139  S    
C21   H33   S    
C120  O48   A    
C131  F15   S    
C63   H7    S    
Cr5   O17   S    
C61   H5    S    
Cr1   O17   S    
C117  O49   A    
C53   C62   A    
C78   C82   A    
Cr10  O34   S    
C23   C51   A    
C33   H45   S    
C16   C20   A    
Cr3   O23   S    
C57   C65   A    
C55   C64   A    
C64   H8    S    
C103  H23   S    
C37   H51   S    
C56   C63   A    
C7    C136  S    
C128  O44   A    
C15   C31   A    
C47   C139  S    
C6    C138  S    
Cr6   O6    S    
Cr9   O13   S    
C129  C133  S    
C21   C49   A    
Cr5   O5    S    
C105  H25   S    
C54   C61   A    
C54   C121  S    
C12   C28   A    
Cr6   O30   S    
C20   C44   A    
C23   C27   A    
Cr12  O16   S    
C74   C78   A    
C54   C58   A    
C133  H1    S    
Cr6   O50   S    
C66   H10   S    
C27   H43   S    
C34   C40   A    
C46   O34   A    
C17   C49   A    
C131  C132  S    
C26   H42   S    
C7    C139  S    
C82   C110  A    
C69   F1    S    
Cr4   O4    S    
C25   H41   S    
C18   C50   A    
C58   C66   A    
C129  C130  S    
C106  C110  A    
C79   C99   A    
C70   F2    S    
C123  O11   A    
C55   C124  S    
C81   C113  A    
Cr9   O37   S    
Cr7   O31   S    
C122  O10   A    
C1    O25   A    
C107  H27   S    
C86   C114  A    
Cr8   O32   S    
C107  C111  A    
Cr4   O24   S    
C75   C118  S    
C24   C28   A    
Cr3   O19   S    
C63   C64   A    
C119  O47   A    
C9    C25   A    
C2    O22   A    
C89   O1    A    
C76   C80   A    
C126  O14   A    
Cr12  O36   S    
C36   H48   S    
C118  O50   A    
C19   C43   A    
C127  O15   A    
C16   C32   A    
C87   H15   S    
C29   C35   A    
C81   C109  A    
C131  C135  S    
C76   C117  S    
Cr2   O46   S    
C22   C50   A    
C8    C140  S    
C103  C107  A    
Cr1   O45   S    
C85   C113  A    
C97   H17   S    
C85   H13   S    
C71   C72   A    
C20   C52   A    
C3    C10   S    
C24   H36   S    
C5    C137  S    
C76   C96   A    
C125  O13   A    
C23   H35   S    
C34   H46   S    
C10   C26   A    
C57   C58   A    
C134  H2    S    
C105  C109  A    
C125  O41   A    
C19   C51   A    
C136  H4    S    
Cr9   O17   S    
C90   O38   A    
C113  C125  S    
C36   C38   A    
C22   H34   S    
C47   O35   A    
C47   O31   A    
Cr11  O15   S    
C62   H6    S    
C42   H54   S    
C83   C111  A    
C7    H31   S    
C46   O30   A    
C39   H49   S    
Cr7   O51   S    
C69   C70   A    
C17   C41   A    
Cr9   O9    S    
Cr12  O40   S    
C92   O4    A    
C126  O42   A    
Cr11  O35   S    
C13   C17   A    
C98   H18   S    
C67   H11   S    
C122  O6    A    
C95   F7    S    
C40   C44   A    
C56   C60   A    
C86   H14   S    
C60   C68   A    
C73   C77   A    
C68   C70   A    
C77   C81   A    
C22   C26   A    
C39   C43   A    
C65   H9    S    
C74   C94   A    
Cr2   O2    S    
Cr4   O20   S    
Cr3   O47   S    
C84   C112  A    
C67   C69   A    
C4    C9    S    
C40   H50   S    
C130  C137  S    
C75   C79   A    
C106  H26   S    
C52   C92   S    
C97   C101  A    
C99   H19   S    
C32   C34   A    
Cr7   O27   S    
