data_mof_unit_1630.cif
_audit_creation_date              2012-12-11T14:52:35-0500
_audit_creation_method            fapswitch 2.2
_symmetry_space_group_name_H-M    P1
_symmetry_Int_Tables_number       1
_space_group_crystal_system       triclinic
_cell_length_a                    8.446425
_cell_length_b                    15.033383
_cell_length_c                    26.938145
_cell_angle_alpha                 96.042116
_cell_angle_beta                  92.55275
_cell_angle_gamma                 80.041685
_cell_volume                      3349.09922849

loop_
_atom_site_label
_atom_site_type_symbol
_atom_type_description
_atom_site_fract_x
_atom_site_fract_y
_atom_site_fract_z
_atom_type_partial_charge
Ba1   Ba    Ba6+2 0.860900 0.457020 0.523210 1.701078
Ba2   Ba    Ba6+2 0.328940 0.542910 0.476780 1.690488
C1    C     C_3   0.753107 0.129178 0.655574 0.335489
C2    C     C_3   0.717907 0.221751 0.635273 0.356669
C3    C     C_3   0.531395 0.668703 0.641392 0.699221
C4    C     C_3   0.659705 0.679104 0.684294 0.218849
C5    C     C_3   0.880897 0.818485 0.355869 0.781913
C6    C     C_3   0.834150 0.909863 0.332009 0.876873
C7    C     C_3   0.337556 0.647019 0.295077 0.257070
C8    C     C_3   0.243716 0.637314 0.245916 -0.372695
C9    C     C_R   0.018589 0.412913 0.178222 0.612412
C10   C     C_R   0.897440 0.569105 0.177475 0.564639
C11   C     C_2   0.745774 0.533721 0.270707 -0.034684
C12   C     C_3   0.181963 0.263567 0.657772 0.322340
C13   C     C_3   0.720751 0.573423 0.324433 -0.078545
C14   C     C_1   0.988100 0.486625 0.342887 0.048804
C15   C     C_2   0.022480 0.470803 0.294655 -0.157156
C16   C     C_2   0.895295 0.495965 0.255307 0.223064
C17   C     C_R   0.019827 0.487695 0.101446 -0.137134
C18   C     C_R   0.064332 0.409867 0.127551 -0.098816
C19   C     C_R   0.153406 0.331265 0.102205 0.439313
C20   C     C_R   0.935670 0.567389 0.126820 -0.008610
C21   C     C_2   0.860519 0.545229 0.358962 -0.044496
C22   C     C_2   0.341838 0.462592 0.639537 -0.270118
C23   C     C_3   0.166301 0.241745 0.710867 -0.307747
C24   C     C_R   0.193752 0.406918 0.974139 0.019136
C25   C     C_R   0.045209 0.562552 0.972449 0.026590
C26   C     C_R   0.139238 0.484023 0.947801 0.048030
C27   C     C_R   0.293407 0.332381 0.948711 -0.130522
C28   C     C_R   0.335127 0.331495 0.898875 0.166099
C29   C     C_R   0.277956 0.406882 0.871773 -0.021938
C30   C     C_R   0.179820 0.483024 0.896437 -0.114593
C31   C     C_R   0.123964 0.559080 0.869981 -0.024627
C32   C     C_R   0.165872 0.558696 0.819636 0.572936
C33   C     C_R   0.316670 0.408707 0.820877 0.590810
C34   C     C_3   0.241621 0.267181 0.415658 0.318792
C35   C     C_2   0.448466 0.465554 0.727546 -0.043587
C36   C     C_3   0.486105 0.472033 0.673770 0.078535
C37   C     C_1   0.200446 0.505940 0.655031 0.140532
C38   C     C_2   0.163040 0.504600 0.702727 -0.152236
C39   C     C_2   0.293780 0.483165 0.742243 0.177729
C40   C     C_R   0.149234 0.406998 0.024995 -0.029405
C41   C     C_R   0.060093 0.486445 0.050052 0.045095
C42   C     C_R   0.010560 0.564900 0.024194 0.034329
C43   C     C_R   0.190703 0.329929 0.051893 -0.151267
C44   C     C_R   0.892844 0.644927 0.101350 -0.062690
C45   C     C_3   0.276538 0.164164 0.403194 0.258368
C46   C     C_R   0.988316 0.636375 0.944154 -0.102362
C47   C     C_R   0.027326 0.634658 0.894380 -0.074377
C48   C     C_R   0.928974 0.643863 0.051423 -0.106148
C49   C     C_R   0.783903 0.766514 0.501791 -0.056947
C50   C     C_R   0.866654 0.828176 0.482891 0.066835
C51   C     C_R   0.802561 0.921316 0.487746 -0.088662
C52   C     C_R   0.644683 0.953443 0.505412 0.031708
C53   C     C_R   0.554076 0.886727 0.515668 -0.127056
C54   C     C_R   0.624695 0.796031 0.517185 0.051746
C55   C     C_R   0.431595 0.089157 0.539425 0.354959
C56   C     C_3   0.008209 0.762798 0.608481 0.435687
C57   C     C_R   0.359804 0.180546 0.539198 -0.005168
C58   C     C_R   0.581843 0.211523 0.493954 0.028466
C59   C     C_R   0.646880 0.118454 0.489424 -0.192814
C60   C     C_R   0.573892 0.054310 0.511733 -0.041896
C61   C     C_R   0.439273 0.241744 0.519184 -0.347007
C62   C     C_3   0.078383 0.847094 0.630206 -0.065818
C63   C     C_3   0.803640 0.282320 0.374210 0.355144
C64   C     C_3   0.796909 0.263769 0.317169 0.266346
H1    H     H_    0.817001 0.227250 0.610614 0.094992
H2    H     H_    0.302726 0.148317 0.362766 0.025813
H3    H     H_    0.384959 0.136712 0.425053 -0.075703
H4    H     H_    0.051961 0.745157 0.570530 0.025424
H5    H     H_    0.089017 0.849461 0.671530 0.063015
H6    H     H_    0.995579 0.910309 0.621800 0.072815
H7    H     H_    0.900875 0.230668 0.387836 0.054979
H8    H     H_    0.831625 0.351275 0.384531 -0.001479
H9    H     H_    0.746878 0.075920 0.623967 -0.047895
H10   H     H_    0.797766 0.190297 0.306081 -0.025931
H11   H     H_    0.910050 0.278324 0.302820 0.050807
H12   H     H_    0.603014 0.226710 0.613234 -0.087238
H13   H     H_    0.658640 0.127033 0.682906 -0.005057
H14   H     H_    0.575559 0.604532 0.618122 -0.011415
H15   H     H_    0.632205 0.748572 0.704313 -0.039014
H16   H     H_    0.780355 0.673344 0.669948 0.058022
H17   H     H_    0.210555 0.294061 0.737043 0.110019
H18   H     H_    0.736060 0.900309 0.303406 -0.215648
H19   H     H_    0.451754 0.668344 0.286283 -0.032379
H20   H     H_    0.269730 0.701081 0.321053 0.052319
H21   H     H_    0.220693 0.703002 0.229268 0.089594
H22   H     H_    0.127449 0.616618 0.252308 0.142220
H23   H     H_    0.104658 0.330136 0.653695 0.062562
H24   H     H_    0.313122 0.584918 0.219388 0.110989
H25   H     H_    0.145278 0.445196 0.283571 0.115110
H26   H     H_    0.546569 0.454153 0.754816 0.110944
H27   H     H_    0.344960 0.273067 0.966709 0.064131
H28   H     H_    0.251249 0.265796 0.034934 0.085768
H29   H     H_    0.650190 0.551154 0.243372 0.082803
H30   H     H_    0.830072 0.707633 0.120053 0.114314
H31   H     H_    0.910693 0.696832 0.959064 0.064042
H32   H     H_    0.309859 0.268207 0.651957 -0.064300
H33   H     H_    0.980326 0.693503 0.874857 0.104518
H34   H     H_    0.038826 0.521082 0.713690 0.129880
H35   H     H_    0.893187 0.707327 0.035600 0.064387
H36   H     H_    0.354975 0.426215 0.602556 0.045275
H37   H     H_    0.876629 0.966439 0.476104 0.079278
H38   H     H_    0.751688 0.097765 0.466950 0.118819
H39   H     H_    0.427826 0.902411 0.522571 0.144272
H40   H     H_    0.384768 0.312561 0.520680 0.076176
H41   H     H_    0.038281 0.243240 0.718968 0.170942
H42   H     H_    0.237426 0.174094 0.716667 0.113631
H43   H     H_    0.357124 0.292388 0.420593 -0.018004
H44   H     H_    0.173752 0.283703 0.450816 0.049806
N1    N     N_R   0.936056 0.491921 0.202635 -0.432074
N2    N     N_R   0.256400 0.482931 0.794904 -0.425114
O1    O     O_2   0.905540 0.548000 0.618290 -0.501955
O2    O     O_3   0.656928 0.275426 0.394754 -0.643389
O3    O     O_3   0.130868 0.195550 0.624174 -0.559691
O4    O     O_2   0.284150 0.451970 0.381680 -0.412211
O5    O     O_3   0.052160 0.451990 0.441880 -0.481210
O6    O     O_3   0.501140 0.616030 0.412450 -0.479458
O7    O     O_3   0.153732 0.306836 0.376092 -0.684936
O8    O     O_3   0.615020 0.608480 0.525380 -0.480355
O9    O     O_3   0.085020 0.662210 0.437090 -0.447629
O10   O     O_2   0.192665 0.817849 0.465926 -0.504360
O11   O     O_3   0.028203 0.822719 0.383506 -0.615963
O12   O     O_3   0.137550 0.547930 0.558110 -0.494430
O13   O     O_3   0.574690 0.391440 0.474610 -0.450365
O14   O     O_2   0.341330 0.720570 0.525000 -0.442817
O15   O     O_3   0.511831 0.743868 0.612740 -0.677628
O16   O     O_2   0.568626 0.455297 0.366104 -0.416593
O17   O     O_3   0.359513 0.564038 0.316389 -0.572797
O18   O     O_2   0.050627 0.345009 0.200416 -0.559619
O19   O     O_2   0.404515 0.344173 0.799681 -0.577668
O20   O     O_2   0.831694 0.640279 0.199491 -0.610743
O21   O     O_2   0.125226 0.627030 0.798215 -0.642123
O22   O     O_3   0.688580 0.383890 0.587540 -0.502290
O23   O     O_2   0.823669 0.436259 0.673170 -0.468355
O24   O     O_3   0.054172 0.690060 0.638310 -0.628214
O25   O     O_3   0.704002 0.289976 0.675407 -0.611220
O26   O     O_2   0.848360 0.279400 0.474970 -0.470327
O27   O     O_3   0.104690 0.337720 0.562900 -0.508929
O28   O     O_2   0.029001 0.177102 0.531230 -0.448400
P1    P     P_3+3 0.070480 0.574800 0.610950 1.005929
P2    P     P_3+3 0.668430 0.292880 0.460530 1.007149
P3    P     P_3+3 0.156528 0.221058 0.563507 1.008331
P4    P     P_3+3 0.119230 0.425130 0.389040 0.999332
P5    P     P_3+3 0.041537 0.782566 0.443090 1.004392
P6    P     P_3+3 0.674427 0.396581 0.652360 0.968389
P7    P     P_3+3 0.519522 0.717997 0.546554 0.966638
P8    P     P_3+3 0.535324 0.554796 0.353568 1.003087
O29   O     O_3   0.143436 0.125903 0.415097 -0.654065
C65   C     C_3   0.184433 0.030472 0.409881 0.250761
H45   H     H_    0.280256 0.006773 0.437509 0.025164
H46   H     H_    0.222108 0.004281 0.371261 0.051165
H47   H     H_    0.076845 0.001555 0.417412 0.126148
N3    N     N_3   0.834839 0.790737 0.609122 -0.552915
H48   H     H_    0.800219 0.820158 0.644818 0.151170
H49   H     H_    0.786849 0.732218 0.603806 0.126724
N4    N     N_3   0.232250 0.848514 0.608900 -0.432897
H50   H     H_    0.296300 0.886958 0.634252 0.177698
H51   H     H_    0.211992 0.881937 0.576473 0.197715
O30   O     O_3   0.667506 0.321662 0.295851 -0.624768
C66   C     C_3   0.539972 0.274433 0.281025 0.290655
H52   H     H_    0.498035 0.243484 0.312688 0.032910
H53   H     H_    0.575834 0.221596 0.249614 -0.024315
H54   H     H_    0.437085 0.323328 0.267705 0.062518
O31   O     O_3   0.379449 0.661097 0.660018 -0.661850
C67   C     C_3   0.335830 0.719720 0.703996 0.221195
H55   H     H_    0.355330 0.790113 0.701026 0.003244
H56   H     H_    0.399487 0.692710 0.737468 0.070665
H57   H     H_    0.207750 0.721801 0.711568 0.107694
O32   O     O_3   0.665349 0.610528 0.716650 -0.663764
C68   C     C_3   0.744659 0.634592 0.761955 0.148536
H58   H     H_    0.663925 0.686927 0.785518 0.023585
H59   H     H_    0.857502 0.659835 0.755648 0.092805
H60   H     H_    0.776457 0.573591 0.782587 0.077526
O33   O     O_3   0.909184 0.115285 0.677438 -0.612491
C69   C     C_3   0.920749 0.049938 0.711921 0.182623
H61   H     H_    0.869757 0.988964 0.696450 -0.012002
H62   H     H_    0.859195 0.080396 0.746845 0.049960
H63   H     H_    0.049598 0.027462 0.721461 0.047779
N5    N     N_3   0.911108 0.743189 0.316374 -0.516147
H64   H     H_    0.991660 0.757957 0.291445 0.150615
H65   H     H_    0.970610 0.686214 0.332610 0.169620
O34   O     O_3   0.755705 0.804814 0.386692 -0.703502
C70   C     C_3   0.605838 0.803487 0.361188 0.050246
H66   H     H_    0.537225 0.873154 0.361139 0.064313
H67   H     H_    0.533633 0.765916 0.382029 0.081790
H68   H     H_    0.616589 0.770131 0.322454 0.041465
O35   O     O_3   0.780546 0.978937 0.370447 -0.659299
C71   C     C_3   0.658522 0.044900 0.352242 0.164222
H69   H     H_    0.542737 0.019296 0.347630 -0.001385
H70   H     H_    0.689284 0.066720 0.316378 0.021801
H71   H     H_    0.641608 0.105349 0.379825 0.063881
O36   O     O_3   0.972901 0.931356 0.311105 -0.665698
C72   C     C_3   0.950213 0.939882 0.259483 0.097693
H72   H     H_    0.853520 0.997572 0.252299 0.042478
H73   H     H_    0.923189 0.876082 0.238708 0.047342
H74   H     H_    0.063192 0.953869 0.244866 0.081014
O37   O     O_3   0.198589 0.252767 0.125575 -0.603026
C73   C     C_3   0.361183 0.247194 0.141413 0.230660
H75   H     H_    0.380731 0.308013 0.166793 0.019632
H76   H     H_    0.441738 0.237837 0.109024 0.001157
H77   H     H_    0.394919 0.187124 0.162685 0.061413
N6    N     N_3   0.436707 0.252576 0.876230 -0.435742
H78   H     H_    0.544450 0.242503 0.897159 0.171456
H79   H     H_    0.380107 0.196441 0.878063 0.166140
N7    N     N_3   0.848465 0.581569 0.409996 -0.421458
H80   H     H_    0.784292 0.647499 0.411445 0.191555
H81   H     H_    0.783264 0.542663 0.428501 0.210871
O38   O     O_3   0.358242 0.035809 0.566739 -0.662783
C74   C     C_3   0.418277 0.042481 0.616445 0.179907
H82   H     H_    0.325504 0.029974 0.641352 0.088445
H83   H     H_    0.442066 0.111351 0.629977 -0.022473
H84   H     H_    0.527831 0.990728 0.620511 0.022294
N8    N     N_3   0.860858 0.673655 0.504626 -0.442943
H85   H     H_    0.846369 0.653623 0.539226 0.158526
H86   H     H_    0.983307 0.669506 0.509098 0.193783

loop_
_geom_bond_atom_site_label_1
_geom_bond_atom_site_label_2
_ccdc_geom_bond_type
C25   C46   A    
C72   H73   S    
C53   C54   A    
O31   C67   S    
C4    H16   S    
Ba2   P4    S    
C63   O2    S    
C17   C18   A    
C15   H25   S    
O28   P3    D    
C19   O37   S    
C41   C42   A    
C1    H13   S    
C64   O30   S    
C66   H52   S    
Ba2   O6    S    
C63   H7    S    
C5    C6    S    
C51   C52   A    
C6    O35   S    
C28   N6    S    
C68   H59   S    
C8    H22   S    
O24   P1    S    
C11   C16   D    
C11   H29   S    
C58   C61   A    
O2    P2    S    
C14   P4    S    
C35   C36   S    
Ba1   O13   S    
C49   C54   A    
C13   P8    S    
N7    H81   S    
O10   P5    D    
C72   H74   S    
O32   C68   S    
C31   C47   A    
C12   O3    S    
C55   O38   S    
C10   C20   A    
C22   C37   D    
C32   N2    Am   
C70   H66   S    
C34   C45   S    
Ba1   Ba2   S    
C62   H5    S    
C71   H70   S    
C34   O7    S    
O5    P4    S    
C45   H3    S    
O17   P8    S    
Ba1   P2    S    
C56   N3    S    
C7    H19   S    
C2    O25   S    
O4    P4    D    
O27   P3    S    
C25   C42   A    
C69   H63   S    
C36   P6    S    
O11   P5    S    
N5    H65   S    
C14   C15   D    
C39   N2    S    
C62   N4    S    
C73   H77   S    
C22   C36   S    
C69   H61   S    
O37   C73   S    
C3    O31   S    
C1    H9    S    
C7    C8    S    
N3    H49   S    
Ba1   O27   S    
C59   H38   S    
C58   P2    S    
C13   C21   S    
C72   H72   S    
C57   P3    S    
C73   H75   S    
N4    H51   S    
C4    H15   S    
C67   H56   S    
O7    P4    S    
C33   N2    Am   
C71   H69   S    
Ba1   O1    S    
C43   H28   S    
C66   H53   S    
Ba2   O5    S    
C17   C41   A    
C12   H32   S    
C19   C43   A    
C56   C62   S    
O22   P6    S    
C68   H60   S    
O3    P3    S    
C8    H21   S    
C9    N1    Am   
C49   C50   A    
C45   O29   S    
O25   P6    S    
C26   C30   A    
C17   C20   A    
C31   C32   A    
C16   N1    S    
O38   C74   S    
O26   P2    D    
C37   C38   D    
C50   P5    S    
Ba2   O8    S    
N7    H80   S    
C56   H4    S    
C52   C60   S    
C32   O21   D    
C56   O24   S    
C9    C18   A    
C65   H47   S    
C63   H8    S    
N4    H50   S    
C58   C59   A    
C61   H40   S    
C40   C43   A    
C71   H71   S    
O34   C70   S    
C12   H23   S    
C2    H12   S    
C27   C28   A    
C46   H31   S    
C65   H46   S    
C7    H20   S    
C47   H33   S    
C22   H36   S    
N6    H79   S    
O33   C69   S    
O13   P2    S    
O23   P6    D    
C64   H10   S    
C3    O15   S    
O8    P7    S    
C15   C16   S    
C6    O36   S    
Ba1   O5    S    
C3    H14   S    
C68   H58   S    
N3    H48   S    
C67   H57   S    
C37   P1    S    
Ba2   O14   S    
C49   N8    S    
C1    O33   S    
C38   C39   S    
C20   C44   A    
C53   H39   S    
C74   H82   S    
C14   C21   D    
Ba2   O12   S    
C11   C13   S    
C21   N7    S    
C34   H44   S    
C67   H55   S    
O9    P5    S    
O12   P1    S    
C40   C41   A    
C55   C60   A    
Ba1   O22   S    
C9    O18   D    
C33   O19   D    
C45   H2    S    
C34   H43   S    
C66   H54   S    
C50   C51   A    
C23   H41   S    
C73   H76   S    
C4    O32   S    
Ba2   O9    S    
C42   C48   A    
C24   C40   A    
C64   H11   S    
C52   C53   A    
C46   C47   A    
C10   O20   D    
C35   H26   S    
C6    H18   S    
C57   C61   A    
C29   C30   A    
O16   P8    D    
C5    O11   S    
C38   H34   S    
C2    H1    S    
O14   P7    D    
C7    O17   S    
C74   H84   S    
C44   C48   A    
C24   C26   A    
C70   H67   S    
C70   H68   S    
C5    O34   S    
C48   H35   S    
C30   C31   A    
C74   H83   S    
C54   P7    S    
O6    P8    S    
N8    H86   S    
C63   C64   S    
O29   C65   S    
O30   C66   S    
C27   H27   S    
C28   C29   A    
Ba1   P1    S    
C3    C4    S    
C51   H37   S    
N8    H85   S    
C29   C33   A    
C69   H62   S    
O1    P1    D    
C5    N5    S    
Ba2   O4    S    
C62   H6    S    
C12   C23   S    
C35   C39   D    
C59   C60   A    
Ba1   O12   S    
C55   C57   A    
Ba1   O26   S    
Ba2   O13   S    
C44   H30   S    
C18   C19   A    
C8    H24   S    
C24   C27   A    
O36   C72   S    
C25   C26   A    
C23   H17   S    
C65   H45   S    
O35   C71   S    
N6    H78   S    
Ba1   O8    S    
C10   N1    Am   
N5    H64   S    
C1    C2    S    
C23   H42   S    
O15   P7    S    
