data_mof_unit_3687.cif
_audit_creation_date              2012-12-10T18:12:41-0500
_audit_creation_method            fapswitch 2.2
_symmetry_space_group_name_H-M    P1
_symmetry_Int_Tables_number       1
_space_group_crystal_system       triclinic
_cell_length_a                    12.78625
_cell_length_b                    12.838062
_cell_length_c                    15.727444
_cell_angle_alpha                 92.996995
_cell_angle_beta                  102.956204
_cell_angle_gamma                 81.300339
_cell_volume                      2486.54681732

loop_
_atom_site_label
_atom_site_type_symbol
_atom_type_description
_atom_site_fract_x
_atom_site_fract_y
_atom_site_fract_z
_atom_type_partial_charge
C1    C     C_R   0.438433 0.692098 0.489401 1.013143
C2    C     C_R   0.597318 0.199921 0.538887 -0.176033
C3    C     C_R   0.309260 0.840971 0.412152 0.270371
C4    C     C_R   0.501636 0.500472 0.661653 0.893153
C5    C     C_R   0.276416 0.949670 0.401243 0.290984
C6    C     C_R   0.340518 0.020921 0.451551 0.424505
C7    C     C_R   0.438187 0.980625 0.509845 -0.040638
C8    C     C_R   0.451161 0.877391 0.537888 -0.138226
C9    C     C_R   0.521349 0.041099 0.544100 -0.053117
C10   C     C_R   0.592562 0.015674 0.626481 -0.162409
C11   C     C_R   0.580474 0.924453 0.669111 0.312821
C12   C     C_3   0.502858 0.499606 0.917028 -0.030745
C13   C     C_R   0.514468 0.851659 0.622099 0.456907
C14   C     C_R   0.537816 0.124068 0.496182 0.437506
C15   C     C_R   0.666667 0.178822 0.619984 -0.301196
C16   C     C_R   0.560982 0.308230 0.512088 0.958313
C17   C     C_R   0.396437 0.804515 0.481721 -0.227140
C18   C     C_R   0.078301 0.390923 0.344329 0.424461
C19   C     C_R   0.806006 0.609454 0.619846 0.494266
C20   C     C_R   0.916395 0.602646 0.661681 0.099471
C21   C     C_R   0.994586 0.545456 0.620020 0.478236
C22   C     C_R   0.963448 0.516284 0.530586 -0.057851
C23   C     C_3   0.492052 0.401930 0.021767 0.373341
C24   C     C_R   0.852096 0.509602 0.497351 -0.086632
C25   C     C_R   0.039208 0.481657 0.476625 -0.091337
C26   C     C_R   0.002191 0.439661 0.391707 -0.232673
C27   C     C_R   0.890495 0.444972 0.357944 0.477737
C28   C     C_R   0.498381 0.499546 0.338362 0.919782
C29   C     C_R   0.821970 0.457437 0.415937 0.291419
C30   C     C_R   0.148729 0.497769 0.499783 0.566554
C31   C     C_R   0.188124 0.390038 0.379627 0.394039
C32   C     C_3   0.414726 0.566124 0.014140 0.370434
C33   C     C_3   0.508834 0.595226 0.978958 0.406603
C34   C     C_3   0.498211 0.498979 0.083157 -0.160478
C35   C     C_1   0.505175 0.500838 0.751251 -0.082712
C36   C     C_1   0.495303 0.498689 0.248849 -0.053235
C37   C     C_3   0.407821 0.468836 0.951480 -0.344363
C38   C     C_3   0.585044 0.433404 0.986463 0.405140
C39   C     C_3   0.593718 0.529900 0.049086 -0.395035
C40   C     C_1   0.505543 0.500529 0.826635 0.172816
C41   C     C_1   0.495495 0.498547 0.173566 0.150891
C42   C     C_R   0.670391 0.084389 0.661586 0.490170
Cl1   Cl    Cl    0.497816 0.129153 0.380586 -0.458962
Cl2   Cl    Cl    0.776978 0.059388 0.754199 -0.372218
Cl3   Cl    Cl    0.241726 0.752365 0.336877 -0.421948
Cl4   Cl    Cl    0.160448 0.994790 0.320105 -0.359716
Cl5   Cl    Cl    0.043131 0.319516 0.244913 -0.289205
Cl6   Cl    Cl    0.302190 0.656236 0.034283 -0.380777
Cl7   Cl    Cl    0.956563 0.660213 0.766592 -0.440472
Cl8   Cl    Cl    0.755203 0.346261 0.404544 -0.502022
Cl9   Cl    Cl    0.483065 0.272451 0.052219 -0.386378
Cl10  Cl    Cl    0.634220 0.905366 0.782158 -0.407880
H1    H     H_    0.669210 0.554605 0.089481 0.227959
H2    H     H_    0.754812 0.708959 0.704888 0.384005
H3    H     H_    0.101190 0.516054 0.730141 0.388816
H4    H     H_    0.712836 0.334593 0.026340 0.390716
H5    H     H_    0.332536 0.444125 0.910724 0.233285
H6    H     H_    0.716156 0.237106 0.652057 0.214782
H7    H     H_    0.521234 0.740433 0.007263 0.380867
H8    H     H_    0.233882 0.145782 0.414476 0.387361
H9    H     H_    0.553462 0.746296 0.714509 0.397131
H10   H     H_    0.330030 0.323391 0.369907 0.409552
H11   H     H_    0.769832 0.442564 0.257310 0.346839
H12   H     H_    0.250152 0.589080 0.559616 0.392275
N1    N     N_R   0.222180 0.444680 0.455580 -0.252870
N2    N     N_R   0.776980 0.554790 0.543960 -0.137846
O1    O     O_R   0.366730 0.627160 0.478790 -0.608887
O2    O     O_3   0.308253 0.128876 0.449981 -0.715745
O3    O     O_3   0.499156 0.761482 0.659624 -0.732629
O4    O     O_3   0.259043 0.341295 0.330931 -0.632681
O5    O     O_3   0.850062 0.424954 0.270416 -0.655558
O6    O     O_3   0.174884 0.580146 0.556268 -0.674765
O7    O     O_3   0.724459 0.662670 0.656397 -0.701282
O8    O     O_3   0.097354 0.507316 0.666754 -0.675629
O9    O     O_3   0.672959 0.363413 0.968971 -0.648266
O10   O     O_R   0.544830 0.662520 0.507160 -0.557547
O11   O     O_R   0.410960 0.482330 0.609040 -0.627770
O12   O     O_R   0.589060 0.517690 0.637410 -0.547790
O13   O     O_R   0.455170 0.337480 0.492840 -0.623045
O14   O     O_R   0.633270 0.372840 0.521210 -0.557326
O15   O     O_R   0.410940 0.482310 0.362590 -0.571843
O16   O     O_R   0.589040 0.517670 0.390960 -0.609446
O17   O     O_3   0.516346 0.696024 0.953431 -0.644509
Zn1   Zn    Zn3+2 0.381080 0.476390 0.481050 1.040103
Zn2   Zn    Zn3+2 0.618920 0.523610 0.518950 1.062077

loop_
_geom_bond_atom_site_label_1
_geom_bond_atom_site_label_2
_ccdc_geom_bond_type
O14   Zn2   S    
C8    C13   A    
C27   C29   A    
C19   C20   A    
C18   C26   A    
C18   Cl5   S    
N2    Zn2   S    
C7    C8    A    
C26   C27   A    
C33   C39   S    
C5    C6    A    
H7    O17   S    
C38   C39   S    
C10   C42   A    
H10   O4    S    
C19   N2    A    
C31   N1    A    
C12   C37   S    
C24   C29   A    
C11   Cl10  S    
H3    O8    S    
C31   O4    S    
C22   C25   A    
C2    C16   S    
C9    C10   A    
C24   N2    A    
C29   Cl8   S    
C6    O2    S    
C4    C35   S    
O1    Zn1   S    
H4    O9    S    
C21   C22   A    
C32   Cl6   S    
C36   C41   T    
C34   C41   S    
C42   Cl2   S    
C38   O9    S    
C28   O16   A    
C34   C39   S    
C19   O7    S    
N1    Zn1   S    
O11   Zn1   S    
C25   C26   A    
C23   C37   S    
C21   O8    S    
C3    Cl3   S    
C16   O14   A    
C32   C34   S    
C12   C40   S    
C9    C14   A    
C4    O12   A    
C20   Cl7   S    
H2    O7    S    
C23   Cl9   S    
C23   C34   S    
C32   C37   S    
C2    C15   A    
C33   O17   S    
H8    O2    S    
O12   Zn2   S    
H11   O5    S    
C15   H6    S    
C22   C24   A    
O16   Zn2   S    
O15   Zn1   S    
C27   O5    S    
H9    O3    S    
C25   C30   A    
C7    C9    A    
O13   Zn1   S    
C28   O15   A    
C1    O10   A    
C15   C42   A    
C3    C5    A    
C30   O6    S    
C6    C7    A    
C23   C38   S    
C5    Cl4   S    
C1    C17   S    
C8    C17   A    
C16   O13   A    
C32   C33   S    
C35   C40   T    
C4    O11   A    
C11   C13   A    
C39   H1    S    
C13   O3    S    
C1    O1    A    
C3    C17   A    
H12   O6    S    
C12   C38   S    
C2    C14   A    
C30   N1    A    
C10   C11   A    
C20   C21   A    
C28   C36   S    
C18   C31   A    
C12   C33   S    
O10   Zn2   S    
C37   H5    S    
C14   Cl1   S    
