data_mof_unit_175.cif
_audit_creation_date              2012-12-11T15:28:33-0500
_audit_creation_method            fapswitch 2.2
_symmetry_space_group_name_H-M    P1
_symmetry_Int_Tables_number       1
_space_group_crystal_system       triclinic
_cell_length_a                    6.957683
_cell_length_b                    19.587008
_cell_length_c                    23.383326
_cell_angle_alpha                 96.064269
_cell_angle_beta                  91.373053
_cell_angle_gamma                 88.463844
_cell_volume                      3166.99695917

loop_
_atom_site_label
_atom_site_type_symbol
_atom_type_description
_atom_site_fract_x
_atom_site_fract_y
_atom_site_fract_z
_atom_type_partial_charge
O1    O     O_R   0.617180 0.809390 0.808140 -0.522161
O2    O     O_R   0.382820 0.190610 0.191860 -0.522920
O3    O     O_R   0.293300 0.672410 0.795490 -0.533372
O4    O     O_R   0.706700 0.327590 0.204510 -0.533858
O5    O     O_R   0.117220 0.690610 0.691850 -0.522272
O6    O     O_R   0.882780 0.309390 0.308150 -0.522076
C1    C     C_R   0.465397 0.647768 0.805238 0.700985
C2    C     C_R   0.534607 0.352244 0.194770 0.701188
O7    O     O_R   0.287840 0.807750 0.814460 -0.524310
O8    O     O_R   0.712160 0.192250 0.185540 -0.524638
O9    O     O_R   0.111720 0.826910 0.710960 -0.531943
O10   O     O_R   0.888280 0.173090 0.289040 -0.531844
C3    C     C_R   0.456539 0.830741 0.833179 0.718139
C4    C     C_R   0.543462 0.169254 0.166825 0.717429
O11   O     O_R   0.622680 0.673080 0.789040 -0.533257
O12   O     O_R   0.377320 0.326920 0.210960 -0.534030
O13   O     O_3   0.448820 0.756130 0.716020 -0.360181
O14   O     O_3   0.551180 0.243870 0.283980 -0.358451
V1    V     V_3+5 0.176220 0.748860 0.756300 1.447840
V2    V     V_3+5 0.823780 0.251140 0.243700 1.446839
O15   O     O_R   0.781670 0.827580 0.704500 -0.535305
O16   O     O_R   0.218330 0.172420 0.295500 -0.534130
C5    C     C_R   0.947286 0.851945 0.694150 0.700253
C6    C     C_R   0.052713 0.148068 0.305860 0.700375
O17   O     O_R   0.787130 0.692240 0.685530 -0.525673
O18   O     O_R   0.212870 0.307760 0.314470 -0.524786
C7    C     C_R   0.956072 0.669232 0.666786 0.716931
C8    C     C_R   0.043926 0.330763 0.333217 0.717672
V3    V     V_3+5 0.675510 0.751130 0.743690 1.443409
V4    V     V_3+5 0.324490 0.248870 0.256310 1.447229
O19   O     O_3   0.952780 0.743870 0.783980 -0.357848
O20   O     O_3   0.047220 0.256130 0.216020 -0.359509
C9    C     C_1   0.966542 0.617175 0.614731 -0.194402
C10   C     C_1   0.033452 0.382808 0.385280 -0.193705
C11   C     C_1   0.978118 0.573656 0.571918 0.034058
C12   C     C_1   0.021870 0.426317 0.428100 0.031538
C13   C     C_1   0.993390 0.521846 0.521324 0.039704
C14   C     C_1   0.006593 0.478119 0.478699 0.037807
C15   C     C_R   0.943014 0.914436 0.663713 -0.058657
C16   C     C_R   0.056992 0.085638 0.336366 -0.057617
C17   C     C_R   0.833364 0.032136 0.661640 -0.039509
C18   C     C_R   0.165601 0.967818 0.338348 -0.039152
C19   C     C_R   0.860331 0.974344 0.690817 -0.178082
C20   C     C_R   0.137603 0.025480 0.309055 -0.179319
C21   C     C_R   0.999725 0.912818 0.606311 -0.172976
C22   C     C_R   0.002373 0.087521 0.393978 -0.164651
C23   C     C_R   0.971199 0.971114 0.574609 0.068574
C24   C     C_R   0.031413 0.029289 0.425726 0.070198
C25   C     C_R   0.885097 0.031681 0.603560 -0.001791
C26   C     C_R   0.117293 0.968704 0.396749 -0.001865
C27   C     C_R   0.021209 0.970666 0.515105 0.008481
C28   C     C_R   0.982144 0.029829 0.485293 0.010885
C29   C     C_R   0.894765 0.087869 0.515859 -0.244729
C30   C     C_R   0.109078 0.912694 0.484578 -0.249374
C31   C     C_R   0.848788 0.089985 0.573743 0.387621
C32   C     C_R   0.156272 0.910753 0.426797 0.387684
H1    H     H_    0.945338 0.136092 0.412887 0.101579
H2    H     H_    0.057984 0.864388 0.587507 0.102929
H3    H     H_    0.182313 0.023459 0.264808 0.125749
H4    H     H_    0.813314 0.976078 0.734819 0.127710
H5    H     H_    0.767120 0.076523 0.685301 0.214053
H6    H     H_    0.229200 0.923089 0.314434 0.213147
H7    H     H_    0.858301 0.133052 0.495394 0.158939
H8    H     H_    0.144704 0.867400 0.504975 0.157718
C33   C     C_R   0.488123 0.585379 0.835208 -0.056447
C34   C     C_R   0.511952 0.414710 0.164885 -0.057486
C35   C     C_R   0.615727 0.469520 0.834256 -0.036919
C36   C     C_R   0.383659 0.530481 0.165811 -0.036825
C37   C     C_R   0.568740 0.526536 0.805732 -0.178290
C38   C     C_R   0.429404 0.473284 0.194230 -0.177143
C39   C     C_R   0.452261 0.586580 0.894065 -0.166030
C40   C     C_R   0.549979 0.413826 0.106187 -0.172599
C41   C     C_R   0.501263 0.529132 0.924992 0.069807
C42   C     C_R   0.501765 0.471390 0.075314 0.068825
C43   C     C_R   0.587409 0.469975 0.893887 -0.000471
C44   C     C_R   0.415507 0.530540 0.106410 0.000256
C45   C     C_R   0.472080 0.529321 0.985732 0.010335
C46   C     C_R   0.531817 0.471329 0.014625 0.008138
C47   C     C_R   0.619888 0.414883 0.982038 -0.254262
C48   C     C_R   0.384692 0.585875 0.018359 -0.249232
C49   C     C_R   0.647059 0.413183 0.923037 0.386002
C50   C     C_R   0.358751 0.587775 0.077426 0.386701
H9    H     H_    0.608720 0.366220 0.085894 0.103394
H10   H     H_    0.394543 0.634325 0.914407 0.101315
H11   H     H_    0.396834 0.474310 0.239418 0.127209
H12   H     H_    0.598958 0.525174 0.760359 0.125444
H13   H     H_    0.678373 0.425808 0.808735 0.212740
H14   H     H_    0.318452 0.573812 0.191166 0.213544
H15   H     H_    0.671605 0.370718 0.001661 0.158200
H16   H     H_    0.332364 0.629954 0.998714 0.159360
C51   C     C_1   0.467313 0.882793 0.885244 -0.195286
C52   C     C_1   0.532687 0.117189 0.114768 -0.194274
C53   C     C_1   0.478729 0.926307 0.928073 0.029132
C54   C     C_1   0.521267 0.073666 0.071945 0.032583
C55   C     C_1   0.493591 0.978117 0.978691 0.035368
C56   C     C_1   0.506401 0.021849 0.021332 0.037394
S1    S     S_3+6 0.741337 0.167243 0.606877 0.060328
O21   O     O_2   0.543378 0.152604 0.626079 -0.284780
O22   O     O_2   0.860361 0.193918 0.658561 -0.283906
O23   O     O_3   0.722268 0.228108 0.561210 -0.480900
H17   H     H_    0.853583 0.246054 0.559565 0.346678
S2    S     S_3+6 0.268554 0.834187 0.394060 0.063935
O24   O     O_2   0.144320 0.804459 0.344641 -0.251352
O25   O     O_2   0.460875 0.850496 0.371558 -0.314733
O26   O     O_3   0.300460 0.775002 0.440858 -0.475158
H18   H     H_    0.415607 0.789513 0.464308 0.339125
S3    S     S_3+6 0.761708 0.338645 0.887593 0.062637
O27   O     O_2   0.627708 0.305911 0.841964 -0.253305
O28   O     O_2   0.941200 0.358610 0.859565 -0.314500
O29   O     O_3   0.820525 0.280682 0.933732 -0.475132
H19   H     H_    0.939881 0.297682 0.953683 0.341595
S4    S     S_3+6 0.249190 0.663156 0.113140 0.062217
O30   O     O_2   0.062499 0.644816 0.137978 -0.282276
O31   O     O_2   0.379424 0.692651 0.161227 -0.284261
O32   O     O_3   0.203575 0.723123 0.067775 -0.479289
H20   H     H_    0.329684 0.743536 0.062254 0.344321

loop_
_geom_bond_atom_site_label_1
_geom_bond_atom_site_label_2
_ccdc_geom_bond_type
C49   S3    S    
C2    C34   S    
O6    C8    A    
O13   V3    S    
C55   C56   T    
C17   H5    S    
O4    C2    A    
V1    O19   S    
S4    O31   D    
S1    O21   D    
C23   C25   A    
C45   C46   A    
C7    C9    S    
C16   C22   A    
O9    V1    S    
C42   C44   A    
C11   C13   S    
O3    C1    A    
C9    C11   T    
C5    C15   S    
C1    C33   S    
C20   H3    S    
O12   V4    S    
O32   H20   S    
S2    O26   S    
C21   C23   A    
O7    C3    A    
O29   H19   S    
C6    C16   S    
O5    C7    A    
O7    V1    S    
C34   C40   A    
O8    V2    S    
S3    O27   D    
O3    V1    S    
O14   V4    S    
C18   H6    S    
C10   C12   T    
C15   C21   A    
C24   C26   A    
C8    C10   S    
C2    O12   A    
C3    C51   S    
S3    O28   D    
O10   V2    S    
C18   C20   A    
C17   C25   A    
S4    O30   D    
S1    O22   D    
O11   V3    S    
C22   C24   A    
C29   C31   A    
O17   V3    S    
C30   C32   A    
C21   H2    S    
C27   C28   A    
C40   C42   A    
O8    C4    A    
C44   C50   A    
C39   C41   A    
C46   C47   A    
C43   C49   A    
C15   C19   A    
C1    O11   A    
C25   C31   A    
O15   V3    S    
C26   C32   A    
C35   C37   A    
C50   S4    S    
S2    O25   D    
C13   C14   T    
C51   C53   T    
C16   C20   A    
C31   S1    S    
O1    V3    S    
C36   C44   A    
C54   C56   S    
C4    C52   S    
C19   H4    S    
C18   C26   A    
C48   C50   A    
O18   V4    S    
O15   C5    A    
C22   H1    S    
C36   H14   S    
S3    O29   S    
O16   C6    A    
O1    C3    A    
C41   C43   A    
S1    O23   S    
C28   C29   A    
C47   C49   A    
C39   H10   S    
V2    O20   S    
C45   C48   A    
O16   V4    S    
C35   H13   S    
C17   C19   A    
C23   C27   A    
O5    V1    S    
O17   C7    A    
O6    V2    S    
O26   H18   S    
O10   C6    A    
O18   C8    A    
O2    V4    S    
C27   C30   A    
C12   C14   S    
C32   S2    S    
V3    O19   S    
C33   C39   A    
V4    O20   S    
C29   H7    S    
C52   C54   T    
C34   C38   A    
C30   H8    S    
C33   C37   A    
O9    C5    A    
O23   H17   S    
O13   V1    S    
O14   V2    S    
C48   H16   S    
S2    O24   D    
O2    C4    A    
C47   H15   S    
C40   H9    S    
O4    V2    S    
C24   C28   A    
C35   C43   A    
C53   C55   S    
C42   C46   A    
C36   C38   A    
C41   C45   A    
C38   H11   S    
S4    O32   S    
C37   H12   S    
