data_mof_unit_1485.cif
_audit_creation_date              2012-12-10T19:05:16-0500
_audit_creation_method            fapswitch 2.2
_symmetry_space_group_name_H-M    P1
_symmetry_Int_Tables_number       1
_space_group_crystal_system       triclinic
_cell_length_a                    9.551115
_cell_length_b                    10.80218
_cell_length_c                    17.198195
_cell_angle_alpha                 90.554307
_cell_angle_beta                  85.371701
_cell_angle_gamma                 89.913096
_cell_volume                      1768.51354239

loop_
_atom_site_label
_atom_site_type_symbol
_atom_type_description
_atom_site_fract_x
_atom_site_fract_y
_atom_site_fract_z
_atom_type_partial_charge
C1    C     C_R   0.500506 0.737474 0.496172 0.775370
C2    C     C_R   0.380875 0.559628 0.785054 -0.034718
C3    C     C_R   0.434332 0.590635 0.150443 -0.092043
C4    C     C_R   0.432801 0.581424 0.230570 -0.174889
C5    C     C_R   0.631186 0.437620 0.216741 -0.033485
C6    C     C_R   0.630565 0.444860 0.134320 0.037035
C7    C     C_R   0.529474 0.521079 0.102415 0.104579
C8    C     C_2   0.457549 0.428527 0.979309 -0.055634
C9    C     C_2   0.512661 0.523080 0.018568 -0.285961
C10   C     C_R   0.528920 0.504875 0.264387 -0.132224
C11   C     C_R   0.381797 0.936725 0.516900 0.159010
C12   C     C_R   0.480972 0.499098 0.650051 0.753612
C13   C     C_R   0.500025 0.870766 0.486716 -0.203275
C14   C     C_R   0.612256 0.936248 0.446364 -0.027855
C15   C     C_R   0.611323 0.066396 0.450409 -0.175134
C16   C     C_R   0.499363 0.129554 0.491115 -0.118550
C17   C     C_R   0.380849 0.063802 0.518355 0.174896
C18   C     C_3   0.300659 0.069845 0.596448 -0.511401
C19   C     C_3   0.302252 0.929456 0.595178 -0.394414
C20   C     C_R   0.934311 0.430407 0.446596 0.233514
C21   C     C_R   0.918280 0.576779 0.547906 -0.137452
C22   C     C_R   0.066977 0.576675 0.548065 0.678939
C23   C     C_R   0.500162 0.262504 0.498569 0.810551
C24   C     C_R   0.081844 0.430908 0.446353 0.069613
C25   C     C_3   0.090451 0.293853 0.435880 -0.231241
C26   C     C_3   0.931262 0.292884 0.436816 -0.520107
C27   C     C_R   0.518944 0.499314 0.349774 0.765578
C28   C     C_R   0.469410 0.484028 0.734561 -0.109115
C29   C     C_R   0.547114 0.388022 0.764846 -0.158561
C30   C     C_R   0.538587 0.366608 0.844539 -0.161868
C31   C     C_R   0.453484 0.441981 0.894957 0.026703
C32   C     C_R   0.374166 0.537300 0.865424 -0.103196
Cu1   Cu    Cu3+1 0.359330 0.500020 0.500000 1.007794
Cu2   Cu    Cu3+1 0.640670 0.499980 0.500000 0.948292
H1    H     H_    0.614197 0.328997 0.726471 0.146065
H2    H     H_    0.697404 0.118435 0.422118 0.180040
H3    H     H_    0.362609 0.111023 0.642246 0.198966
H4    H     H_    0.193829 0.109524 0.593542 0.207687
H5    H     H_    0.365973 0.889560 0.640092 0.184271
H6    H     H_    0.196186 0.888604 0.591954 0.256190
H7    H     H_    0.856375 0.637149 0.587793 0.172578
H8    H     H_    0.355803 0.634823 0.266556 0.163788
H9    H     H_    0.129717 0.245488 0.486569 0.191789
H10   H     H_    0.890919 0.264031 0.380727 0.206809
H11   H     H_    0.880705 0.245779 0.488946 0.213651
H12   H     H_    0.545993 0.606852 0.987814 0.166292
H13   H     H_    0.310062 0.595787 0.905682 0.177892
H14   H     H_    0.357216 0.648866 0.125613 0.154131
H15   H     H_    0.601235 0.293563 0.867159 0.139196
N1    N     N_R   0.852130 0.499070 0.499500 -0.217859
N2    N     N_R   0.148040 0.499110 0.499500 -0.240562
O1    O     O_R   0.381190 0.680360 0.500000 -0.526382
O2    O     O_R   0.618770 0.680320 0.499990 -0.598689
O3    O     O_R   0.367430 0.500040 0.613600 -0.542261
O4    O     O_R   0.605020 0.500000 0.613590 -0.572790
O5    O     O_R   0.381230 0.319680 0.500010 -0.571144
O6    O     O_R   0.618810 0.319640 0.500000 -0.594722
O7    O     O_R   0.394980 0.500000 0.386410 -0.570218
O8    O     O_R   0.632570 0.499960 0.386400 -0.592013
C33   C     C_2   0.728039 0.370310 0.080360 0.448464
H16   H     H_    0.762022 0.405775 0.023105 0.053067
O9    O     O_2   0.765474 0.266596 0.097329 -0.486087
C34   C     C_2   0.728563 0.872402 0.399234 0.406701
H17   H     H_    0.718358 0.776709 0.381074 0.092885
O10   O     O_2   0.836933 0.927034 0.378626 -0.529813
F1    F     F_    0.128378 0.652085 0.598494 -0.682514
C35   C     C_2   0.163831 0.257836 0.358369 0.509502
H18   H     H_    0.135649 0.301695 0.305236 0.116255
O11   O     O_2   0.255898 0.179078 0.354633 -0.532146
C36   C     C_2   0.733993 0.358842 0.253673 0.476870
H19   H     H_    0.699298 0.302177 0.303260 0.047137
O12   O     O_2   0.858455 0.360185 0.230992 -0.528263
C37   C     C_2   0.301528 0.665257 0.755609 0.396777
H20   H     H_    0.318532 0.693135 0.695376 0.118705
O13   O     O_2   0.216649 0.723392 0.798626 -0.526823
C38   C     C_2   0.402844 0.311406 0.015151 0.436193
H21   H     H_    0.375502 0.235451 0.977513 0.071005
O14   O     O_2   0.383914 0.298945 0.085679 -0.504983

loop_
_geom_bond_atom_site_label_1
_geom_bond_atom_site_label_2
_ccdc_geom_bond_type
C10   C27   S    
C34   O10   D    
Cu1   O7    S    
C37   H20   S    
C25   C35   S    
C25   H9    S    
C26   H10   S    
C23   O5    A    
Cu1   O1    S    
C11   C19   S    
C5    C36   S    
C20   C26   S    
C12   C28   S    
C2    C32   A    
C28   C29   A    
C18   H3    S    
C38   O14   D    
C3    C7    A    
C5    C6    A    
C15   C16   A    
C3    H14   S    
C8    C38   S    
C33   O9    D    
C18   C19   S    
C1    O2    A    
C22   F1    S    
C20   N1    A    
C26   H11   S    
C20   C24   A    
C16   C17   A    
Cu2   O6    S    
C36   H19   S    
C24   N2    A    
Cu2   O4    S    
C13   C14   A    
C37   O13   D    
C21   N1    A    
C17   C18   S    
Cu2   N1    S    
C35   H18   S    
C6    C33   S    
C38   H21   S    
C8    C9    D    
C25   C26   S    
C33   H16   S    
C35   O11   D    
C29   C30   A    
C31   C32   A    
C23   O6    A    
Cu1   Cu2   S    
C24   C25   S    
C2    C37   S    
C19   H5    S    
C21   H7    S    
C30   H15   S    
C16   C23   S    
Cu2   O8    S    
C32   H13   S    
C1    C13   S    
C4    C10   A    
C3    C4    A    
C15   H2    S    
Cu1   O3    S    
C7    C9    S    
C11   C17   A    
C8    C31   S    
C27   O7    A    
C2    C28   A    
C6    C7    A    
Cu1   N2    S    
C29   H1    S    
C18   H4    S    
C5    C10   A    
C27   O8    A    
C11   C13   A    
C30   C31   A    
C4    H8    S    
Cu1   O5    S    
C14   C34   S    
C1    O1    A    
C12   O4    A    
C19   H6    S    
C34   H17   S    
C9    H12   S    
Cu2   O2    S    
C14   C15   A    
C36   O12   D    
C21   C22   A    
C12   O3    A    
C22   N2    A    
