data_mof_unit_269.cif
_audit_creation_date              2012-12-11T16:35:17-0500
_audit_creation_method            fapswitch 2.2
_symmetry_space_group_name_H-M    P1
_symmetry_Int_Tables_number       1
_space_group_crystal_system       triclinic
_cell_length_a                    6.960636
_cell_length_b                    17.67017
_cell_length_c                    19.593151
_cell_angle_alpha                 108.985322
_cell_angle_beta                  90.163351
_cell_angle_gamma                 90.924539
_cell_volume                      2278.39916448

loop_
_atom_site_label
_atom_site_type_symbol
_atom_type_description
_atom_site_fract_x
_atom_site_fract_y
_atom_site_fract_z
_atom_type_partial_charge
O1    O     O_R   0.505700 0.440210 0.561730 -0.537941
O2    O     O_R   0.169350 0.406300 0.412660 -0.539337
O3    O     O_R   0.005650 0.559790 0.438270 -0.541267
C1    C     C_R   0.338066 0.384105 0.384505 0.691443
O4    O     O_R   0.175560 0.430650 0.559600 -0.547007
O5    O     O_R   0.011900 0.584320 0.586250 -0.539108
C2    C     C_R   0.344222 0.415893 0.581363 0.718635
O6    O     O_R   0.499450 0.415680 0.413750 -0.535835
O7    O     O_3   0.341370 0.550390 0.508570 -0.369810
V1    V     V_3+5 0.063940 0.490650 0.498410 1.405491
O8    O     O_R   0.682570 0.593700 0.587340 -0.533779
C3    C     C_R   0.853478 0.617912 0.614074 0.688402
O9    O     O_R   0.676370 0.569350 0.440400 -0.551174
C4    C     C_R   0.845303 0.581119 0.416531 0.677417
V2    V     V_3+5 0.564750 0.509350 0.501590 1.409938
O10   O     O_3   0.837190 0.449610 0.491430 -0.367590
C5    C     C_R   0.043414 0.673809 0.280858 -0.153807
H1    H     H_    0.177160 0.673729 0.252748 0.104962
C6    C     C_R   0.030575 0.630230 0.328924 -0.166919
H2    H     H_    0.155627 0.598318 0.336962 0.121586
C7    C     C_R   0.858202 0.627241 0.365494 -0.045130
C8    C     C_R   0.699311 0.668966 0.352984 -0.176312
H3    H     H_    0.564917 0.668483 0.380579 0.120142
C9    C     C_R   0.712971 0.713441 0.305854 -0.142569
H4    H     H_    0.589023 0.746936 0.299727 0.101622
C10   C     C_R   0.884602 0.715903 0.268519 0.099117
C11   C     C_R   0.735159 0.770198 0.177812 -0.157210
H5    H     H_    0.602736 0.739273 0.182416 0.095411
C12   C     C_R   0.736180 0.822645 0.137063 0.134054
C13   C     C_R   0.909626 0.861035 0.127021 -0.075337
C14   C     C_R   0.066986 0.854365 0.168483 -0.231131
H6    H     H_    0.186096 0.892572 0.170730 0.147125
C15   C     C_R   0.063751 0.806259 0.212835 -0.151096
H7    H     H_    0.189013 0.806082 0.245675 0.109748
C16   C     C_R   0.897051 0.762725 0.217511 0.067965
H8    H     H_    0.142001 0.635870 0.917489 0.120304
C17   C     C_R   0.737635 0.903421 0.758832 -0.150020
C18   C     C_R   0.652305 0.915942 0.699579 -0.178044
C19   C     C_R   0.670506 0.859630 0.631963 -0.099947
C20   C     C_R   0.775454 0.789818 0.622639 0.139706
C21   C     C_R   0.823984 0.767499 0.684769 0.027170
C22   C     C_R   0.820698 0.829054 0.753579 0.055103
C23   C     C_R   0.874231 0.687999 0.681631 -0.185592
C24   C     C_R   0.944101 0.674353 0.745010 0.071175
C25   C     C_R   0.963678 0.738894 0.811072 0.070802
C26   C     C_R   0.902544 0.816311 0.815393 -0.175813
C27   C     C_R   0.994002 0.596485 0.744242 -0.138535
C28   C     C_R   0.066010 0.583268 0.805689 -0.101945
C29   C     C_R   0.087418 0.646522 0.869686 -0.120531
C30   C     C_R   0.035574 0.723332 0.872835 -0.144057
H9    H     H_    0.733194 0.952763 0.808676 0.125417
H10   H     H_    0.581727 0.971862 0.705462 0.126282
H11   H     H_    0.615694 0.873832 0.585878 0.116924
H12   H     H_    0.977309 0.544509 0.696536 0.116192
H13   H     H_    0.104186 0.523423 0.803685 0.140131
H14   H     H_    0.049725 0.769795 0.924641 0.107550
H15   H     H_    0.685213 0.474926 0.207184 0.124314
C31   C     C_R   0.177287 0.226181 0.366707 -0.136695
C32   C     C_R   0.091618 0.152355 0.359533 -0.117191
C33   C     C_R   0.102423 0.090417 0.294662 -0.136603
C34   C     C_R   0.204206 0.101144 0.237376 -0.148491
C35   C     C_R   0.298637 0.174733 0.243012 0.080148
C36   C     C_R   0.276016 0.239832 0.308449 0.069071
C37   C     C_R   0.414501 0.184136 0.185728 -0.190633
C38   C     C_R   0.492021 0.261279 0.192771 0.069014
C39   C     C_R   0.458547 0.327380 0.256624 0.075318
C40   C     C_R   0.353303 0.316476 0.315055 -0.190628
C41   C     C_R   0.595420 0.275362 0.135730 -0.140026
C42   C     C_R   0.666354 0.351398 0.141618 -0.115917
C43   C     C_R   0.632529 0.415667 0.203356 -0.129338
C44   C     C_R   0.528176 0.404340 0.259838 -0.137255
H16   H     H_    0.165286 0.271866 0.418762 0.112963
H17   H     H_    0.015174 0.143410 0.404425 0.112668
H18   H     H_    0.032628 0.033369 0.288703 0.118595
H19   H     H_    0.203375 0.050752 0.188944 0.117823
H20   H     H_    0.620539 0.228627 0.085278 0.122191
H21   H     H_    0.745390 0.360714 0.097423 0.123020
H22   H     H_    0.500246 0.457141 0.305327 0.109448
C45   C     C_R   0.537659 0.324228 0.718277 0.617103
C46   C     C_R   0.524415 0.368905 0.671063 -0.229233
H23   H     H_    0.646658 0.405777 0.666775 0.148183
C47   C     C_R   0.355252 0.367654 0.631145 -0.147362
C48   C     C_R   0.198722 0.320448 0.639808 -0.153848
H24   H     H_    0.066265 0.318001 0.609965 0.141009
C49   C     C_R   0.212497 0.274567 0.686142 -0.192461
H25   H     H_    0.090342 0.237525 0.690040 0.151940
C50   C     C_R   0.382218 0.275407 0.725967 -0.044180
C51   C     C_R   0.235389 0.217573 0.816564 -0.154124
H26   H     H_    0.101959 0.247063 0.813616 0.146430
C52   C     C_R   0.246330 0.171665 0.862829 -0.163392
H27   H     H_    0.120336 0.166508 0.893442 0.128788
C53   C     C_R   0.417960 0.133912 0.870302 -0.050755
C54   C     C_R   0.577712 0.142501 0.829494 -0.200996
H28   H     H_    0.711243 0.113296 0.833008 0.117094
C55   C     C_R   0.565730 0.187247 0.782193 -0.069277
H29   H     H_    0.689945 0.190081 0.749964 0.145151
C56   C     C_R   0.394963 0.226290 0.775557 0.124202
O11   O     O_R   0.273230 0.084330 0.086440 -0.538579
O12   O     O_R   0.596660 0.069390 0.940470 -0.547181
O13   O     O_R   0.760270 0.915710 0.913690 -0.538853
C57   C     C_R   0.427987 0.084557 0.919120 0.690224
O14   O     O_R   0.603330 0.093680 0.087390 -0.535903
O15   O     O_R   0.766990 0.940160 0.061660 -0.530907
C58   C     C_R   0.433901 0.115878 0.116114 0.685045
O16   O     O_R   0.266510 0.059870 0.938470 -0.536730
O17   O     O_3   0.431050 0.949630 0.991510 -0.371473
V3    V     V_3+5 0.708490 0.009340 0.001580 1.400184
O18   O     O_R   0.096270 0.930570 0.059390 -0.549238
C59   C     C_R   0.925663 0.913985 0.080112 0.675677
O19   O     O_R   0.089600 0.906290 0.912460 -0.536967
C60   C     C_R   0.919037 0.883757 0.884795 0.695513
V4    V     V_3+5 0.207670 0.990600 0.998190 1.398089
O20   O     O_3   0.935250 0.050360 0.008480 -0.366205
C61   C     C_3   0.852257 0.749334 0.547474 -0.366133
C62   C     C_3   0.961619 0.807593 0.517566 -0.762146
H30   H     H_    0.862298 0.849094 0.503872 0.222214
H31   H     H_    0.070619 0.842604 0.557407 0.231150
H32   H     H_    0.037064 0.773591 0.467360 0.226631
H33   H     H_    0.958399 0.703629 0.546547 0.187126
H34   H     H_    0.729532 0.722128 0.511216 0.177958
F1    F     F_    0.700803 0.331313 0.758150 -0.717596
C63   C     C_3   0.545760 0.850560 0.120866 -0.335844
C64   C     C_3   0.519283 0.936773 0.171896 -0.677790
H35   H     H_    0.460297 0.936640 0.224474 0.191221
H36   H     H_    0.653953 0.973161 0.185322 0.212846
H37   H     H_    0.423870 0.967217 0.144684 0.209485
H38   H     H_    0.533297 0.845317 0.063085 0.193692
H39   H     H_    0.428972 0.811139 0.129041 0.155452

loop_
_geom_bond_atom_site_label_1
_geom_bond_atom_site_label_2
_ccdc_geom_bond_type
C28   H13   S    
C54   H28   S    
C11   C12   A    
C21   C22   A    
C42   H21   S    
C55   H29   S    
C1    O6    A    
C45   C50   A    
C61   C62   S    
C64   H35   S    
O17   V4    S    
C49   H25   S    
C34   H19   S    
C45   F1    S    
C17   C18   A    
C48   H24   S    
C5    C10   A    
C4    C7    S    
C7    C8    A    
C6    C7    A    
C9    C10   A    
C3    C23   S    
O5    C3    A    
C13   C14   A    
C17   H9    S    
C64   H36   S    
C18   H10   S    
O17   V3    S    
C62   H30   S    
C63   H38   S    
O18   C59   A    
C22   C26   A    
C17   C22   A    
C19   H11   S    
O19   C60   A    
V3    O20   S    
C35   C37   A    
C5    C6    A    
O8    V2    S    
C20   C61   S    
C27   C28   A    
C41   C42   A    
C62   H31   S    
C14   C15   A    
C43   C44   A    
O1    V2    S    
H15   C43   S    
O7    V1    S    
C32   H17   S    
C51   C56   A    
C24   C27   A    
C38   C41   A    
C39   C40   A    
C32   C33   A    
C54   C55   A    
C26   C60   S    
C21   C23   A    
C42   C43   A    
V4    O20   S    
C15   H7    S    
C49   C50   A    
C57   O16   A    
C36   C40   A    
O11   V4    S    
C13   C59   S    
C9    H4    S    
C46   C47   A    
C19   C20   A    
O4    C2    A    
C64   H37   S    
C11   C16   A    
C31   C32   A    
C25   C26   A    
C30   H14   S    
O18   V4    S    
C33   C34   A    
O2    C1    A    
C23   C24   A    
C12   C13   A    
C52   C53   A    
C39   C44   A    
C62   H32   S    
C12   C63   S    
C35   C36   A    
C5    H1    S    
O14   V3    S    
O14   C58   A    
O3    C4    A    
C53   C57   S    
C27   H12   S    
C28   C29   A    
C48   C49   A    
O16   V4    S    
C51   C52   A    
C47   C48   A    
O6    V2    S    
O9    V2    S    
C8    C9    A    
O2    V1    S    
C24   C25   A    
C31   C36   A    
C37   C58   S    
C20   C21   A    
O13   V3    S    
O12   C57   A    
O1    C2    A    
C14   H6    S    
C61   H33   S    
C46   H23   S    
O5    V1    S    
C1    C40   S    
O8    C3    A    
C55   C56   A    
C41   H20   S    
O12   V3    S    
O15   C59   A    
C37   C38   A    
C6    H2    S    
O7    V2    S    
O4    V1    S    
O3    V1    S    
V1    O10   S    
C31   H16   S    
C52   H27   S    
C18   C19   A    
C25   C30   A    
O11   C58   A    
C33   H18   S    
C53   C54   A    
C15   C16   A    
C38   C39   A    
C63   H39   S    
C34   C35   A    
O19   V4    S    
C45   C46   A    
C10   C16   S    
C2    C47   S    
C51   H26   S    
O13   C60   A    
C29   C30   A    
C11   H5    S    
C8    H3    S    
O15   V3    S    
C63   C64   S    
O9    C4    A    
C44   H22   S    
C61   H34   S    
H8    C29   S    
V2    O10   S    
C50   C56   S    
