data_mof_unit_4373.cif
_audit_creation_date              2013-03-05T15:50:17-0500
_audit_creation_method            fapswitch 2.2
_symmetry_space_group_name_H-M    P1
_symmetry_Int_Tables_number       1
_space_group_crystal_system       triclinic
_cell_length_a                    8.617979
_cell_length_b                    14.423894
_cell_length_c                    17.359361
_cell_angle_alpha                 95.010958
_cell_angle_beta                  96.270964
_cell_angle_gamma                 91.722582
_cell_volume                      2135.03316628

loop_
_atom_site_label
_atom_site_type_symbol
_atom_site_description
_atom_site_fract_x
_atom_site_fract_y
_atom_site_fract_z
_atom_type_partial_charge
P1    P     P_3+3 0.940740 0.713140 0.550990 0.459881
O1    O     O_2   0.110000 0.727700 0.527600 -0.365967
O2    O     O_3   0.867340 0.611500 0.534090 -0.387344
O3    O     O_3   0.340010 0.670810 0.392610 -0.390659
O4    O     O_2   0.243868 0.835846 0.446283 -0.399043
O5    O     O_3   0.971788 0.738325 0.652073 -0.579958
O6    O     O_3   0.323028 0.825728 0.305378 -0.525011
H1    H     H_    0.361945 0.697958 0.247941 0.115317
C1    C     C_3   0.387275 0.808409 0.174685 -0.850130
H2    H     H_    0.262175 0.803073 0.150678 0.270156
P2    P     P_3+3 0.347910 0.426910 0.329700 0.547567
P3    P     P_3+3 0.875897 0.622632 0.256087 0.493291
O7    O     O_2   0.172060 0.454990 0.316770 -0.318867
O8    O     O_3   0.924740 0.623930 0.356360 -0.352803
O9    O     O_2   0.995249 0.560477 0.218149 -0.351635
O10   O     O_3   0.346825 0.309578 0.286573 -0.645072
O11   O     O_3   0.913654 0.732700 0.225494 -0.522101
C2    C     C_3   0.929559 0.798730 0.290454 0.335040
H3    H     H_    0.025839 0.781268 0.333878 0.180079
H4    H     H_    0.818753 0.802934 0.317747 0.043763
C3    C     C_3   0.970205 0.893374 0.264313 -0.657944
H5    H     H_    0.072405 0.889195 0.230655 0.269816
C4    C     C_3   0.801946 0.288505 0.281951 0.270566
C5    C     C_3   0.785227 0.220717 0.206488 -0.912906
H6    H     H_    0.698242 0.163754 0.211215 0.261705
H7    H     H_    0.740432 0.257670 0.155372 0.152356
Ba1   Ba    Ba6+2 0.148060 0.545480 0.461240 1.583250
C6    C     C_3   0.031993 0.661274 0.687375 0.281351
C7    C     C_3   0.067458 0.688129 0.774805 -0.710485
H8    H     H_    0.156454 0.746663 0.784970 0.249920
H9    H     H_    0.116460 0.628550 0.803954 0.149504
C8    C     C_3   0.323080 0.228862 0.325146 0.285757
C9    C     C_3   0.364039 0.142064 0.272375 -0.750754
H10   H     H_    0.315939 0.076627 0.291969 0.233658
H11   H     H_    0.491966 0.136935 0.277646 0.182738
P4    P     P_3+3 0.869550 0.286850 0.448950 0.612690
O12   O     O_2   0.700300 0.272240 0.472380 -0.377402
O13   O     O_3   0.942950 0.388490 0.465850 -0.278483
O14   O     O_3   0.470280 0.329180 0.607330 -0.365029
O15   O     O_3   0.852307 0.240401 0.347648 -0.566632
P5    P     P_3+3 0.924529 0.392233 0.745537 0.443643
O16   O     O_3   0.377250 0.547380 0.588690 -0.407028
O17   O     O_3   0.885550 0.376060 0.643580 -0.376315
O18   O     O_2   0.823078 0.472362 0.772559 -0.382760
O19   O     O_3   0.841604 0.297473 0.785551 -0.518373
Ba2   Ba    Ba6+2 0.662110 0.454510 0.538700 1.604599
P6    P     P_3+3 0.368632 0.791148 0.398924 0.431083
C10   C     C_3   0.407378 0.771506 0.254393 0.388806
H12   H     H_    0.534448 0.774699 0.275186 0.041929
O20   O     O_3   0.433040 0.452610 0.411250 -0.345664
C11   C     C_3   0.505380 0.738866 0.637823 0.290456
C12   C     C_3   0.506406 0.844881 0.653254 -0.786869
H13   H     H_    0.395555 0.865607 0.676064 0.239930
P7    P     P_3+3 0.463606 0.576293 0.684855 0.440012
O21   O     O_2   0.638240 0.544950 0.683210 -0.345495
O22   O     O_3   0.474883 0.697619 0.705364 -0.568707
H14   H     H_    0.869564 0.917124 0.226560 0.280390
C13   C     C_3   0.945560 0.223984 0.789290 0.308185
H15   H     H_    0.069606 0.249484 0.800421 -0.081200
C14   C     C_3   0.912060 0.167925 0.857628 -0.562013
P8    P     P_3+3 0.443496 0.209864 0.613180 0.514262
C15   C     C_3   0.397297 0.213530 0.757860 0.296790
H16   H     H_    0.292033 0.165945 0.743829 -0.001442
O23   O     O_2   0.568877 0.163865 0.566777 -0.319412
O24   O     O_3   0.509950 0.187962 0.708346 -0.464814
H17   H     H_    0.364580 0.286942 0.752644 0.072945
C16   C     C_3   0.468619 0.204395 0.841269 -0.620290
H18   H     H_    0.567769 0.256190 0.856770 0.233722
H19   H     H_    0.513981 0.133500 0.845211 0.209895
C17   C     C_R   0.008414 0.941063 0.543736 -0.097539
C18   C     C_R   0.821395 0.802489 0.504346 0.233077
C19   C     C_R   0.672908 0.770535 0.469455 -0.519355
C20   C     C_R   0.565703 0.832095 0.440132 0.223162
C21   C     C_R   0.609263 0.924920 0.438940 -0.236242
C22   C     C_R   0.760745 0.959375 0.468690 0.061832
C23   C     C_R   0.865148 0.900235 0.507097 -0.055253
H20   H     H_    0.637621 0.697678 0.468000 0.174502
C24   C     C_R   0.944459 0.096744 0.499736 -0.090483
C25   C     C_R   0.047723 0.037426 0.541292 0.119853
C26   C     C_R   0.986683 0.196194 0.502512 0.230414
C27   C     C_R   0.134502 0.227456 0.540686 -0.441392
C28   C     C_R   0.240730 0.166422 0.574442 0.219639
C29   C     C_R   0.194993 0.073004 0.576535 -0.262494
C30   C     C_R   0.808150 0.051318 0.456731 -0.053884
H21   H     H_    0.523605 0.970363 0.413761 0.181855
H22   H     H_    0.276704 0.027266 0.604441 0.144758
H23   H     H_    0.090443 0.898592 0.575006 0.163160
H24   H     H_    0.525065 0.562692 0.854286 0.149008
H25   H     H_    0.686684 0.593979 0.105436 0.174655
C31   C     C_R   0.582253 0.544449 0.281161 -0.408608
C32   C     C_R   0.437394 0.496833 0.257912 0.228017
C33   C     C_R   0.379347 0.487358 0.177097 -0.237231
C34   C     C_R   0.468743 0.525650 0.122466 0.031071
C35   C     C_R   0.615367 0.568740 0.147522 -0.314972
C36   C     C_R   0.673885 0.576451 0.226003 0.228456
C37   C     C_R   0.416471 0.523933 0.834029 -0.274143
C38   C     C_R   0.363753 0.513610 0.754387 0.316207
C39   C     C_R   0.127996 0.431287 0.781079 0.156381
C40   C     C_R   0.179861 0.442657 0.861034 -0.201746
C41   C     C_R   0.325312 0.487926 0.887636 0.081003
C42   C     C_1   0.377086 0.502167 0.970132 0.090532
C43   C     C_1   0.419563 0.513558 0.039258 0.093165
C44   C     C_R   0.222486 0.464553 0.728106 -0.478560
H26   H     H_    0.629706 0.549999 0.341789 0.197199
H27   H     H_    0.179728 0.459022 0.666818 0.157319
C45   C     C_2   0.934054 0.178428 0.187872 0.870685
H28   H     H_    0.029907 0.222464 0.174758 -0.072354
O25   O     O_2   0.946507 0.094203 0.185201 -0.530856
H29   H     H_    0.141982 0.641062 0.663842 0.107481
H30   H     H_    0.946248 0.601125 0.677653 0.125875
C46   C     C_2   0.922084 0.715099 0.810127 0.720351
H31   H     H_    0.824106 0.665299 0.806881 0.032499
O26   O     O_2   0.913127 0.792906 0.842776 -0.541312
C47   C     C_2   0.163272 0.224904 0.339511 0.379141
H32   H     H_    0.090027 0.161578 0.329382 0.070353
O27   O     O_2   0.122608 0.294979 0.373459 -0.564456
C48   C     C_2   0.406758 0.227430 0.404545 0.514183
H33   H     H_    0.434007 0.291234 0.441392 0.145106
O28   O     O_2   0.416595 0.153197 0.433115 -0.650476
C49   C     C_2   0.314680 0.146106 0.187027 0.688097
H34   H     H_    0.337538 0.208748 0.159021 0.038248
O29   O     O_2   0.254459 0.077449 0.147672 -0.519255
H35   H     H_    0.455656 0.766791 0.134441 0.218083
H36   H     H_    0.619994 0.717457 0.619899 0.070447
H37   H     H_    0.411976 0.718702 0.589375 0.144419
C50   C     C_2   0.644176 0.880847 0.709260 0.838532
H38   H     H_    0.761724 0.870202 0.694292 0.031120
O30   O     O_2   0.625209 0.923017 0.771387 -0.534070
H39   H     H_    0.512767 0.877055 0.597862 0.160009
H40   H     H_    0.429583 0.882416 0.179244 0.278187
C51   C     C_2   0.924231 0.163948 0.712886 0.600685
H41   H     H_    0.945383 0.194864 0.660310 -0.011662
O31   O     O_2   0.883235 0.081664 0.708675 -0.593768
H42   H     H_    0.790647 0.138137 0.847723 0.215323
H43   H     H_    0.991658 0.108809 0.861289 0.204462
C52   C     C_2   0.930808 0.228255 0.933416 0.613085
H44   H     H_    0.861022 0.289161 0.940583 0.053765
O32   O     O_2   0.022790 0.208846 0.987661 -0.558225
C53   C     C_2   0.351033 0.217734 0.898081 0.555199
H45   H     H_    0.251555 0.169353 0.894104 0.066820
O33   O     O_2   0.368879 0.280689 0.950341 -0.566092
H46   H     H_    0.170925 0.299914 0.540716 0.164363
C54   C     C_2   0.736959 0.083532 0.383941 0.555524
H47   H     H_    0.658928 0.138938 0.384493 0.102560
O34   O     O_2   0.758374 0.043159 0.321566 -0.611453
H48   H     H_    0.105364 0.418883 0.902328 0.166466
C55   C     C_2   0.232182 0.432387 0.148812 0.677863
H49   H     H_    0.199864 0.371652 0.176379 0.002550
O35   O     O_2   0.144379 0.454575 0.094002 -0.582627
H50   H     H_    0.999834 0.944355 0.315941 0.226497
C56   C     C_2   0.652130 0.324125 0.289452 0.462532
H51   H     H_    0.573690 0.332481 0.237535 -0.015581
O36   O     O_2   0.632517 0.360896 0.352512 -0.529012
C57   C     C_2   0.898447 0.372253 0.273317 0.630636
H52   H     H_    0.962459 0.376407 0.223439 -0.048169
O37   O     O_2   0.896206 0.439666 0.320725 -0.471583

loop_
_geom_bond_atom_site_label_1
_geom_bond_atom_site_label_2
_geom_bond_distance
_ccdc_geom_bond_type
H24   C37   1.083677 S    
C50   H38   1.084983 S    
C2    C3    1.518681 S    
P2    O7    1.577830 D    
C20   C21   1.382143 A    
C55   H49   1.077822 S    
C8    C48   1.486254 S    
C47   H32   1.084772 S    
C31   C36   1.404977 A    
C1    H40   1.110971 S    
C12   H13   1.112620 S    
O4    P6    1.545902 D    
C42   C43   1.211163 T    
C15   C16   1.528218 S    
C12   H39   1.109473 S    
C6    C7    1.528334 S    
C55   O35   1.220956 D    
C5    H7    1.113850 S    
P1    O1    1.569263 D    
P8    C28   1.871416 S    
C48   O28   1.220103 D    
C18   C23   1.443799 A    
C26   C27   1.412134 A    
C24   C26   1.464620 A    
C22   C30   1.415203 A    
C45   H28   1.082781 S    
Ba1   O13   2.842602 S    
C13   C14   1.540417 S    
C54   H47   1.059896 S    
C11   O22   1.406223 S    
O16   Ba2   3.005680 S    
H25   C35   1.084027 S    
C41   C42   1.447640 S    
C1    H35   1.110681 S    
C44   H27   1.082513 S    
O5    C6    1.401466 S    
C46   H31   1.085441 S    
Ba2   O21   2.755778 S    
C56   H51   1.083747 S    
P3    C36   1.848832 S    
P4    Ba2   3.417851 S    
O1    Ba1   2.819243 S    
O8    Ba1   2.832751 S    
C7    H8    1.112501 S    
C16   C53   1.494462 S    
C1    H2    1.110483 S    
C14   C52   1.503111 S    
C57   O37   1.219821 D    
Ba1   O20   3.006571 S    
C19   C20   1.388030 A    
C3    H5    1.109151 S    
C33   C55   1.487875 S    
C11   H36   1.111983 S    
P5    O17   1.758725 S    
C17   H23   1.081643 S    
C49   O29   1.220750 D    
C27   C28   1.406357 A    
O14   P8    1.742755 S    
P7    O22   1.752728 S    
O19   C13   1.409545 S    
C21   C22   1.409543 A    
C15   H17   1.112683 S    
C16   H18   1.112183 S    
C11   H37   1.111384 S    
P4    O15   1.815085 S    
C5    H6    1.109931 S    
P6    C20   1.829050 S    
C52   O32   1.220577 D    
P4    C26   1.918357 S    
C32   C33   1.430436 A    
C4    O15   1.420788 S    
C12   C50   1.498899 S    
C24   C25   1.434496 A    
C2    H3    1.108717 S    
C30   C54   1.462647 S    
C6    H30   1.111689 S    
C13   H15   1.110973 S    
C24   C30   1.429423 A    
C11   C12   1.528793 S    
P1    O2    1.569733 S    
O6    P6    1.747609 S    
P3    O11   1.749978 S    
P8    O23   1.548070 D    
C22   C23   1.412856 A    
H1    C10   1.111736 S    
C3    H14   1.109967 S    
C19   H20   1.082573 S    
P8    O24   1.747093 S    
P2    O10   1.789112 S    
C40   C41   1.408013 A    
P3    O9    1.547806 D    
P2    Ba1   3.385180 S    
C13   C51   1.509743 S    
C4    C5    1.555442 S    
C37   C38   1.400966 A    
C15   H16   1.112854 S    
O11   C2    1.402950 S    
C46   O26   1.220796 D    
C34   C35   1.399171 A    
P1    C18   1.858615 S    
C3    H50   1.110285 S    
C14   H43   1.112101 S    
C31   H26   1.081947 S    
C57   H52   1.081209 S    
C38   C44   1.400529 A    
C1    C10   1.519793 S    
O14   Ba2   2.836756 S    
Ba1   Ba2   4.719792 S    
C27   H46   1.082114 S    
C40   H48   1.083446 S    
P3    O8    1.743922 S    
C28   C29   1.397161 A    
C17   C23   1.412455 A    
P5    O18   1.541398 D    
C5    C45   1.491539 S    
C51   H41   1.080570 S    
C14   H42   1.108939 S    
O3    Ba1   2.837386 S    
C49   H34   1.085580 S    
P7    C38   1.840024 S    
C16   H19   1.110663 S    
C54   O34   1.218843 D    
C4    C56   1.418739 S    
P7    O21   1.586897 D    
C10   H12   1.113245 S    
C50   O30   1.220543 D    
C15   O24   1.402069 S    
C17   C25   1.426042 A    
C7    C46   1.500775 S    
C52   H44   1.085335 S    
C51   O31   1.221796 D    
C34   C43   1.454045 S    
C47   O27   1.205850 D    
C53   H45   1.081388 S    
C6    H29   1.109395 S    
O10   C8    1.413329 S    
Ba2   O20   2.797290 S    
O2    Ba2   2.843223 S    
C8    C9    1.558212 S    
P4    O13   1.569732 S    
C18   C19   1.401161 A    
C7    H9    1.106340 S    
P2    O20   1.531282 S    
C48   H33   1.078231 S    
O6    C10   1.406148 S    
C25   C29   1.408832 A    
C53   O33   1.220029 D    
Ba1   O16   2.797930 S    
C31   C32   1.408205 A    
C45   O25   1.220098 D    
C37   C41   1.404460 A    
O2    Ba1   2.992542 S    
C33   C34   1.422501 A    
C9    H11   1.101520 S    
C9    H10   1.114344 S    
C2    H4    1.112357 S    
C56   O36   1.205241 D    
C21   H21   1.083649 S    
C35   C36   1.393853 A    
O17   Ba2   2.833394 S    
O13   Ba2   2.993436 S    
P2    C32   1.883523 S    
C29   H22   1.083989 S    
C9    C49   1.502782 S    
P4    O12   1.569532 D    
C39   C40   1.404803 A    
C4    C57   1.473679 S    
P1    O5    1.750115 S    
P1    Ba1   3.417237 S    
P5    O19   1.754124 S    
P5    C39   1.848299 S    
O7    Ba1   2.755665 S    
C8    C47   1.426521 S    
O12   Ba2   2.819869 S    
O16   P7    1.761493 S    
C39   C44   1.398612 A    
O3    P6    1.738032 S    
