data_mof_unit_1569.cif
_audit_creation_date              2012-12-10T17:50:37-0500
_audit_creation_method            fapswitch 2.2
_symmetry_space_group_name_H-M    P1
_symmetry_Int_Tables_number       1
_space_group_crystal_system       triclinic
_cell_length_a                    15.74805
_cell_length_b                    10.721425
_cell_length_c                    9.974718
_cell_angle_alpha                 90.017161
_cell_angle_beta                  90.532442
_cell_angle_gamma                 95.936852
_cell_volume                      1675.04011665

loop_
_atom_site_label
_atom_site_type_symbol
_atom_type_description
_atom_site_fract_x
_atom_site_fract_y
_atom_site_fract_z
_atom_type_partial_charge
C1    C     C_R   0.502012 0.260814 0.500768 0.878449
C2    C     C_3   0.085399 0.524610 0.498708 -0.043766
C3    C     C_3   0.981101 0.640360 0.503068 -0.193208
C4    C     C_3   0.918165 0.520669 0.498888 -0.119508
C5    C     C_3   0.033334 0.585948 0.391120 0.222983
C6    C     C_3   0.969869 0.466177 0.387250 0.296458
C7    C     C_1   0.175876 0.519903 0.498344 0.156144
C8    C     C_1   0.826604 0.508996 0.499870 0.137763
C9    C     C_R   0.632989 0.154782 0.661201 -0.168663
C10   C     C_R   0.695644 0.102237 0.734359 -0.125699
C11   C     C_R   0.706714 0.976822 0.717263 -0.139052
C12   C     C_R   0.338379 0.502338 0.499501 0.944119
C13   C     C_R   0.654001 0.902411 0.627983 -0.051952
C14   C     C_R   0.580749 0.949422 0.570425 0.039341
C15   C     C_R   0.573733 0.079136 0.580237 0.094359
C16   C     C_R   0.509176 0.129415 0.504375 -0.078853
C17   C     C_R   0.449056 0.053232 0.431354 -0.108882
C18   C     C_R   0.451486 0.926643 0.429325 -0.168972
C19   C     C_R   0.515612 0.874093 0.498709 -0.071512
C20   C     C_R   0.349664 0.409194 0.133721 -0.131747
C21   C     C_R   0.272382 0.417922 0.064153 0.184196
C22   C     C_R   0.273201 0.410535 0.924359 0.211152
C23   C     C_R   0.507028 0.740030 0.500115 0.881469
C24   C     C_R   0.351315 0.402517 0.861201 0.207464
C25   C     C_R   0.427274 0.453066 0.926826 0.059878
C26   C     C_R   0.426691 0.455663 0.070363 0.030196
C27   C     C_R   0.570052 0.543529 0.072319 -0.044623
C28   C     C_R   0.569897 0.544076 0.929678 -0.079404
C29   C     C_R   0.661469 0.494623 0.500406 0.871788
C30   C     C_3   0.971106 0.459866 0.605854 -0.119413
C31   C     C_3   0.023104 0.403679 0.494391 -0.232523
C32   C     C_1   0.250382 0.511981 0.498531 -0.054684
C33   C     C_1   0.750882 0.498893 0.500735 -0.101010
C34   C     C_3   0.034401 0.579562 0.610844 0.239506
H1    H     H_    0.041762 0.306660 0.490661 0.237383
H2    H     H_    0.761934 0.941400 0.763567 0.198412
H3    H     H_    0.401545 0.868910 0.375797 0.171605
H4    H     H_    0.627279 0.579832 0.126082 0.162475
H5    H     H_    0.626953 0.580953 0.877494 0.175473
H6    H     H_    0.397453 0.090579 0.380405 0.183113
H7    H     H_    0.632825 0.254879 0.669441 0.167332
H8    H     H_    0.739567 0.160989 0.797457 0.177375
N1    N     N_R   0.499210 0.498800 0.142780 -0.101972
N2    N     N_R   0.499180 0.498720 0.857170 -0.102112
O1    O     O_R   0.500000 0.316780 0.614690 -0.590821
O2    O     O_R   0.499990 0.316750 0.385360 -0.594810
O3    O     O_R   0.376780 0.500000 0.614650 -0.600735
O4    O     O_R   0.376770 0.499980 0.385310 -0.620545
O5    O     O_R   0.500010 0.683250 0.614640 -0.621960
O6    O     O_R   0.500000 0.683220 0.385310 -0.590094
O7    O     O_R   0.623230 0.500020 0.614690 -0.609611
O8    O     O_R   0.623220 0.500000 0.385350 -0.617470
Zn1   Zn    Zn3+2 0.500010 0.500020 0.653130 1.008107
Zn2   Zn    Zn3+2 0.499990 0.499980 0.346870 1.012359
C35   C     C_2   0.691149 0.795483 0.569209 0.901779
O9    O     O_2   0.731658 0.729354 0.639945 -0.596745
O10   O     O_R   0.688275 0.780533 0.429750 -0.790405
H9    H     H_    0.727478 0.719055 0.395461 0.364091
C36   C     C_2   0.349379 0.294801 0.215708 1.022625
O11   O     O_2   0.395702 0.215109 0.184228 -0.621104
O12   O     O_R   0.289652 0.271531 0.318106 -0.774628
H10   H     H_    0.283720 0.182136 0.351502 0.344481
Br1   Br    Br    0.165012 0.397190 0.156280 -0.282117
Br2   Br    Br    0.168468 0.372003 0.824635 -0.304576
Br3   Br    Br    0.350707 0.251734 0.757423 -0.376729
C37   C     C_2   0.934615 0.390540 0.726060 1.028331
O13   O     O_2   0.945365 0.280253 0.742060 -0.570640
O14   O     O_R   0.888027 0.452658 0.818805 -0.743612
H11   H     H_    0.866148 0.396232 0.895221 0.366177
Br4   Br    Br    0.921707 0.384223 0.226514 -0.362490
Br5   Br    Br    0.078377 0.681992 0.237943 -0.289272
C38   C     C_2   0.962818 0.774751 0.505325 1.064943
O15   O     O_2   0.021736 0.857574 0.518454 -0.546209
O16   O     O_R   0.879459 0.805160 0.489632 -0.778871
H12   H     H_    0.875653 0.898963 0.492210 0.356930
Br6   Br    Br    0.081085 0.664939 0.771010 -0.277256

loop_
_geom_bond_atom_site_label_1
_geom_bond_atom_site_label_2
_ccdc_geom_bond_type
C37   O14   S    
C35   O9    D    
C10   H8    S    
C2    C7    S    
C12   O4    A    
O4    Zn2   S    
O6    Zn2   S    
C11   H2    S    
C18   H3    S    
C5    C6    S    
C1    O2    A    
C23   O5    A    
C27   H4    S    
C15   C16   A    
C29   C33   S    
C18   C19   A    
N2    Zn1   S    
C16   C17   A    
C9    C10   A    
C4    C8    S    
O3    Zn1   S    
C2    C34   S    
C6    C31   S    
O1    Zn1   S    
C36   O11   D    
C13   C14   A    
C12   C32   S    
C12   O3    A    
C25   N2    A    
O8    Zn2   S    
C26   N1    A    
C36   O12   S    
O16   H12   S    
C30   C34   S    
C24   C25   A    
C4    C6    S    
O14   H11   S    
C23   O6    A    
C28   H5    S    
C25   C26   A    
C28   N2    A    
C2    C31   S    
O7    Zn1   S    
C17   H6    S    
C19   C23   S    
N1    Zn2   S    
O2    Zn2   S    
C17   C18   A    
C1    C16   S    
C20   C36   S    
C30   C37   S    
C24   Br3   S    
C38   O16   S    
C35   O10   S    
C22   C24   A    
C2    C5    S    
C3    C4    S    
C29   O7    A    
C6    Br4   S    
C7    C32   T    
C14   C19   A    
C38   O15   D    
C3    C5    S    
C9    H7    S    
C3    C34   S    
C3    C38   S    
C9    C15   A    
C5    Br5   S    
C11   C13   A    
C1    O1    A    
O10   H9    S    
C30   C31   S    
C20   C26   A    
O5    Zn1   S    
C37   O13   D    
C31   H1    S    
C8    C33   T    
O12   H10   S    
C21   Br1   S    
C10   C11   A    
C22   Br2   S    
C27   N1    A    
C20   C21   A    
C27   C28   A    
C14   C15   A    
C21   C22   A    
C4    C30   S    
C34   Br6   S    
C13   C35   S    
C29   O8    A    
