data_mof_unit_678.cif
_audit_creation_date              2012-12-10T17:33:14-0500
_audit_creation_method            fapswitch 2.2
_symmetry_space_group_name_H-M    P1
_symmetry_Int_Tables_number       1
_space_group_crystal_system       triclinic
_cell_length_a                    12.047258
_cell_length_b                    12.920667
_cell_length_c                    13.622432
_cell_angle_alpha                 91.70776
_cell_angle_beta                  80.957517
_cell_angle_gamma                 92.958899
_cell_volume                      2090.79849436

loop_
_atom_site_label
_atom_site_type_symbol
_atom_type_description
_atom_site_fract_x
_atom_site_fract_y
_atom_site_fract_z
_atom_type_partial_charge
C1    C     C_R   0.522094 0.700236 0.492918 0.957626
C2    C     C_R   0.477927 0.300336 0.504943 0.966578
C3    C     C_R   0.453544 0.976995 0.528429 -0.174833
C4    C     C_R   0.553562 0.026782 0.481951 -0.187292
C5    C     C_R   0.964872 0.416507 0.392222 -0.076565
C6    C     C_R   0.041042 0.610575 0.582361 -0.065173
C7    C     C_R   0.847602 0.422587 0.406813 -0.078106
C8    C     C_R   0.156225 0.595621 0.576291 -0.114013
C9    C     C_R   0.853121 0.538240 0.544756 0.072422
C10   C     C_R   0.145529 0.454509 0.461870 0.082177
C11   C     C_R   0.973497 0.540647 0.530155 0.010867
C12   C     C_R   0.028839 0.469332 0.460282 0.010422
C13   C     C_R   0.481486 0.501396 0.686301 0.927465
C14   C     C_R   0.518388 0.497926 0.313681 0.899232
C15   C     C_1   0.529741 0.490923 0.210228 -0.155539
C16   C     C_1   0.468602 0.500097 0.789798 -0.115553
C17   C     C_2   0.543845 0.477320 0.017539 0.403888
C18   C     C_2   0.449044 0.496495 0.982829 0.397212
C19   C     C_1   0.457157 0.498522 0.877597 -0.069935
C20   C     C_1   0.538714 0.484048 0.122559 -0.072653
C21   C     C_R   0.465448 0.189900 0.514411 -0.279787
C22   C     C_R   0.534879 0.812016 0.483291 -0.292643
C23   C     C_R   0.649928 0.970055 0.449964 0.428126
C24   C     C_R   0.368236 0.034540 0.584212 0.437584
C25   C     C_R   0.640204 0.862031 0.446512 -0.205447
C26   C     C_R   0.373990 0.142350 0.577817 -0.193511
C27   C     C_R   0.439961 0.870661 0.517074 0.441170
C28   C     C_R   0.553299 0.131702 0.464080 0.464328
H1    H     H_    0.208021 0.647646 0.615889 0.168866
H2    H     H_    0.798425 0.383223 0.355646 0.139137
N1    N     N_R   0.206090 0.519450 0.517820 -0.144120
N2    N     N_R   0.793910 0.480550 0.482180 -0.134499
O1    O     O_R   0.421240 0.658850 0.504760 -0.601687
O2    O     O_R   0.578760 0.341150 0.495240 -0.589338
O3    O     O_R   0.609960 0.646370 0.493320 -0.622529
O4    O     O_R   0.390040 0.353630 0.506680 -0.616867
O5    O     O_R   0.392060 0.507120 0.646890 -0.589997
O6    O     O_R   0.607940 0.492880 0.353110 -0.601708
O7    O     O_R   0.580780 0.494630 0.635450 -0.635049
O8    O     O_R   0.419220 0.505370 0.364550 -0.648551
Zn1   Zn    Zn3+2 0.373990 0.508340 0.507630 0.966180
Zn2   Zn    Zn3+2 0.626010 0.491660 0.492370 0.979298
O9    O     O_3   0.351176 0.519318 0.048892 -0.652439
C29   C     C_3   0.253408 0.521767 0.003166 0.130608
H3    H     H_    0.179531 0.504092 0.060969 0.204516
H4    H     H_    0.250122 0.460309 0.944408 0.142190
C30   C     C_3   0.240984 0.630076 0.963968 -0.378185
H5    H     H_    0.231078 0.686924 0.027230 0.236033
H6    H     H_    0.317342 0.654308 0.911716 0.225801
C31   C     C_3   0.139565 0.632307 0.909726 -0.941493
H7    H     H_    0.148942 0.577332 0.844987 0.274626
H8    H     H_    0.133247 0.711542 0.882282 0.262548
H9    H     H_    0.061005 0.611252 0.960797 0.273466
O10   O     O_3   0.643111 0.459814 0.951353 -0.638898
C32   C     C_3   0.728316 0.417241 0.996416 0.120483
H10   H     H_    0.779994 0.370015 0.938736 0.173851
H11   H     H_    0.694116 0.362565 0.056671 0.107453
C33   C     C_3   0.805585 0.503262 0.032883 -0.336715
H12   H     H_    0.849038 0.547747 0.968177 0.243759
H13   H     H_    0.755597 0.557848 0.084265 0.239145
C34   C     C_3   0.893209 0.458375 0.087087 -0.932359
H14   H     H_    0.851137 0.413941 0.152295 0.255759
H15   H     H_    0.946803 0.522265 0.113896 0.280406
H16   H     H_    0.947723 0.406567 0.036241 0.262657
O11   O     O_3   0.639628 0.177425 0.397086 -0.597245
C35   C     C_3   0.602183 0.192611 0.305182 0.096540
H17   H     H_    0.653498 0.258834 0.268742 0.148902
H18   H     H_    0.512727 0.214492 0.313714 0.094999
C36   C     C_3   0.619836 0.096372 0.237050 -0.319170
H19   H     H_    0.708935 0.074781 0.229634 0.255023
H20   H     H_    0.564930 0.030500 0.269935 0.213354
C37   C     C_3   0.591590 0.115888 0.134059 -0.971108
H21   H     H_    0.502954 0.138231 0.139689 0.270383
H22   H     H_    0.602580 0.044143 0.087338 0.274718
H23   H     H_    0.648530 0.178507 0.097525 0.255114
O12   O     O_3   0.332221 0.824879 0.536221 -0.602271
C38   C     C_3   0.281761 0.822801 0.448520 0.125497
H24   H     H_    0.251133 0.741829 0.435478 0.178394
H25   H     H_    0.340272 0.845135 0.379498 0.103296
C39   C     C_3   0.181362 0.892771 0.462506 -0.312891
H26   H     H_    0.130392 0.880565 0.536879 0.271996
H27   H     H_    0.212303 0.975235 0.458231 0.226480
C40   C     C_3   0.106434 0.870548 0.383099 -0.919543
H28   H     H_    0.155374 0.882948 0.307864 0.260248
H29   H     H_    0.035684 0.923587 0.394713 0.269701
H30   H     H_    0.071003 0.789403 0.387962 0.279573
C41   C     C_2   0.284542 0.201242 0.639634 0.479266
H31   H     H_    0.198131 0.170256 0.650038 0.090811
O13   O     O_2   0.307242 0.280745 0.684512 -0.582352
C42   C     C_2   0.739077 0.806047 0.396604 0.512155
H32   H     H_    0.823294 0.831658 0.408252 0.088946
O14   O     O_2   0.728031 0.735179 0.337057 -0.565733
O15   O     O_3   0.754240 0.020448 0.423089 -0.622978
C43   C     C_3   0.801316 0.044061 0.510539 0.076605
H33   H     H_    0.840763 0.974323 0.533064 0.152253
H34   H     H_    0.737276 0.069639 0.573906 0.140327
C44   C     C_3   0.891011 0.132082 0.490554 -0.272438
H35   H     H_    0.958480 0.108493 0.429934 0.233522
H36   H     H_    0.852071 0.201237 0.466531 0.247149
C45   C     C_3   0.942320 0.160640 0.583983 -0.908410
H37   H     H_    0.875539 0.180321 0.646703 0.256505
H38   H     H_    0.001130 0.229343 0.570307 0.299142
H39   H     H_    0.989155 0.094990 0.605002 0.263427
O16   O     O_3   0.280534 0.985198 0.646811 -0.635613
C46   C     C_3   0.304135 0.987563 0.745661 0.083517
H40   H     H_    0.222354 0.989298 0.796261 0.162086
H41   H     H_    0.354433 0.058367 0.764349 0.128496
C47   C     C_3   0.363371 0.890240 0.766683 -0.315388
H42   H     H_    0.313316 0.819855 0.747665 0.245949
H43   H     H_    0.447866 0.889686 0.720410 0.209956
C48   C     C_3   0.378157 0.887141 0.875754 -0.982481
H44   H     H_    0.425610 0.958104 0.897091 0.272592
H45   H     H_    0.426239 0.818804 0.887619 0.266569
H46   H     H_    0.294815 0.881083 0.924024 0.269304
C49   C     C_2   0.200371 0.362748 0.412948 0.517763
H47   H     H_    0.279778 0.370526 0.364095 0.110770
O17   O     O_2   0.156644 0.276080 0.427170 -0.643107
C50   C     C_2   0.789484 0.588066 0.633259 0.535755
H48   H     H_    0.725513 0.641701 0.625742 0.091642
O18   O     O_2   0.807999 0.568838 0.716260 -0.585251
C51   C     C_2   0.014811 0.366001 0.297657 0.414118
H49   H     H_    0.971824 0.298495 0.268926 0.064221
O19   O     O_2   0.099520 0.403402 0.247546 -0.593156
C52   C     C_2   0.001387 0.707945 0.633155 0.406440
H50   H     H_    0.036243 0.736640 0.698153 0.078078
O20   O     O_2   0.936261 0.760878 0.598855 -0.632839

loop_
_geom_bond_atom_site_label_1
_geom_bond_atom_site_label_2
_ccdc_geom_bond_type
C35   H18   S    
C32   H10   S    
O15   C43   S    
C34   H16   S    
C48   H44   S    
O2    Zn2   S    
C6    C52   S    
C41   H31   S    
C44   H35   S    
C3    C24   A    
C1    O1    A    
C30   H6    S    
C38   H24   S    
C46   H41   S    
C25   C42   S    
C8    H1    S    
C24   C26   A    
O6    Zn2   S    
C36   H19   S    
C37   H23   S    
C35   C36   S    
C33   H13   S    
C49   H47   S    
C5    C51   S    
C17   C20   S    
C47   H42   S    
C34   H15   S    
C18   C19   S    
C36   H20   S    
O3    Zn2   S    
C50   H48   S    
C9    N2    A    
C4    C28   A    
C10   N1    A    
C40   H28   S    
C26   C41   S    
C49   O17   D    
C22   C25   A    
C31   H8    S    
C30   C31   S    
C13   O5    A    
C29   C30   S    
C2    O2    A    
C33   C34   S    
C35   H17   S    
C1    C22   S    
C7    H2    S    
C9    C50   S    
O4    Zn1   S    
C43   H33   S    
C39   C40   S    
O16   C46   S    
C44   H36   S    
C21   C26   A    
C29   H4    S    
C31   H7    S    
O7    Zn2   S    
C38   H25   S    
C15   C20   T    
C46   C47   S    
C31   H9    S    
C13   O7    A    
O12   C38   S    
C5    C12   A    
C37   H22   S    
C6    C11   A    
C5    C7    A    
C4    C23   A    
C39   H26   S    
C6    C8    A    
C43   C44   S    
C33   H12   S    
C45   H39   S    
C23   O15   S    
C24   O16   S    
C36   C37   S    
O9    C29   S    
C14   O6    A    
C42   O14   D    
C30   H5    S    
C2    C21   S    
C45   H38   S    
C17   C18   D    
C48   H45   S    
C43   H34   S    
C9    C11   A    
C51   H49   S    
C10   C12   A    
C39   H27   S    
O8    Zn1   S    
C40   H29   S    
C21   C28   A    
C22   C27   A    
C32   H11   S    
C32   C33   S    
C27   O12   S    
C44   C45   S    
C29   H3    S    
C1    O3    A    
C52   O20   D    
C38   C39   S    
C2    O4    A    
O10   C32   S    
C7    N2    A    
N1    Zn1   S    
C8    N1    A    
C37   H21   S    
C11   C12   A    
C46   H40   S    
C47   C48   S    
O1    Zn1   S    
C41   O13   D    
C28   O11   S    
C18   O9    S    
C42   H32   S    
C16   C19   T    
C3    C27   A    
C45   H37   S    
C47   H43   S    
C48   H46   S    
C23   C25   A    
O5    Zn1   S    
C34   H14   S    
C50   O18   D    
C51   O19   D    
C14   O8    A    
C40   H30   S    
O11   C35   S    
C13   C16   S    
N2    Zn2   S    
C14   C15   S    
C17   O10   S    
C10   C49   S    
C3    C4    A    
C52   H50   S    
