data_mof_unit_2195.cif
_audit_creation_date              2012-10-26T19:58:17-0400
_audit_creation_method            fapswitch 2.2
_symmetry_space_group_name_H-M    P1
_symmetry_Int_Tables_number       1
_space_group_crystal_system       triclinic
_cell_length_a                    7.502833
_cell_length_b                    8.684129
_cell_length_c                    13.356417
_cell_angle_alpha                 93.990384
_cell_angle_beta                  78.352565
_cell_angle_gamma                 103.11492
_cell_volume                      829.835998069

loop_
_atom_site_label
_atom_site_type_symbol
_atom_type_description
_atom_site_fract_x
_atom_site_fract_y
_atom_site_fract_z
_atom_type_partial_charge
C1    C     C_R   0.544947 0.799951 0.503518 0.557130
C2    C     C_R   0.344968 0.402130 0.796912 -0.019765
C3    C     C_2   0.569805 0.968059 0.505702 -0.163287
C4    C     C_R   0.399742 0.464788 0.691202 0.531983
C5    C     C_2   0.429420 0.032000 0.495965 -0.158234
C6    C     C_R   0.454799 0.200041 0.496979 0.534778
C7    C     C_R   0.599408 0.510371 0.306044 0.547772
C8    C     C_R   0.884315 0.572960 0.039419 -0.134736
C9    C     C_R   0.653830 0.514309 0.194342 -0.003180
C10   C     C_R   0.161014 0.330642 0.836415 -0.160541
C11   C     C_R   0.103827 0.299786 0.940515 -0.142144
C12   C     C_R   0.420249 0.406373 0.967369 0.017141
C13   C     C_R   0.229099 0.346676 0.006742 -0.126331
C14   C     C_3   0.715780 0.286054 0.740218 -0.253573
C15   C     C_3   0.697727 0.128984 0.790577 -0.462285
C16   C     C_R   0.478111 0.409949 0.859960 0.043298
C17   C     C_R   0.558130 0.458502 0.028924 0.019713
C18   C     C_R   0.747231 0.512097 0.980826 0.027630
C19   C     C_R   0.799355 0.489565 0.875482 -0.129192
C20   C     C_R   0.666481 0.411830 0.819385 0.037405
C21   C     C_R   0.514925 0.461249 0.135873 -0.129432
C22   C     C_R   0.838351 0.571959 0.145790 -0.141980
Cu1   Cu    Cu3+1 0.321300 0.483160 0.488710 0.935621
Cu2   Cu    Cu3+1 0.678700 0.516840 0.511290 0.930433
H1    H     H_    0.946657 0.615552 0.189883 0.132046
H2    H     H_    0.959791 0.247145 0.971336 0.129281
H3    H     H_    0.704924 0.039521 0.515040 0.128229
H4    H     H_    0.774752 0.144278 0.854180 0.151903
H5    H     H_    0.548657 0.077427 0.821693 0.158563
H6    H     H_    0.752824 0.044466 0.732898 0.145470
H7    H     H_    0.618095 0.257457 0.686803 0.188248
H8    H     H_    0.857325 0.326745 0.693945 0.159310
H9    H     H_    0.294192 0.960556 0.486851 0.136298
H10   H     H_    0.010691 0.618492 0.579562 0.239835
H11   H     H_    0.989093 0.381162 0.420674 0.240399
H12   H     H_    0.944153 0.519598 0.838779 0.117752
H13   H     H_    0.028456 0.615394 0.002880 0.124404
H14   H     H_    0.373697 0.420482 0.175465 0.122803
H15   H     H_    0.062909 0.299819 0.786195 0.128730
H16   H     H_    0.173155 0.329671 0.087040 0.105785
N1    N     N_2   0.947230 0.542220 0.528320 -0.269254
N2    N     N_2   0.052770 0.457780 0.471680 -0.265533
O1    O     O_R   0.383920 0.714220 0.492660 -0.496578
O2    O     O_R   0.685730 0.742660 0.511730 -0.491704
O3    O     O_R   0.275440 0.478800 0.636790 -0.511468
O4    O     O_R   0.577250 0.507240 0.655860 -0.505896
O5    O     O_R   0.314270 0.257340 0.488270 -0.499357
O6    O     O_R   0.616080 0.285780 0.507340 -0.525448
O7    O     O_R   0.422750 0.492760 0.344140 -0.502499
O8    O     O_R   0.724560 0.521200 0.363210 -0.499543

loop_
_geom_bond_atom_site_label_1
_geom_bond_atom_site_label_2
_ccdc_geom_bond_type
C12   C17   A    
C8    C22   A    
Cu1   Cu2   S    
Cu1   O3    S    
C2    C16   A    
N1    N2    D    
C1    O2    A    
C2    C4    S    
C19   C20   A    
C14   H7    S    
C16   C20   A    
Cu2   O4    S    
C3    H3    S    
C17   C18   A    
C4    O4    A    
Cu2   N1    S    
C11   C13   A    
C9    C21   A    
C15   H4    S    
H10   N1    S    
C6    O6    A    
C12   C16   A    
C6    O5    A    
C15   H5    S    
C4    O3    A    
Cu2   O8    S    
C5    C6    S    
Cu2   O2    S    
C17   C21   A    
C9    C22   A    
Cu1   O7    S    
Cu1   O5    S    
C8    H13   S    
C2    C10   A    
C5    H9    S    
C14   C20   S    
Cu1   O1    S    
C12   C13   A    
C7    O7    A    
C15   H6    S    
C18   C19   A    
C10   C11   A    
C7    C9    S    
H11   N2    S    
C14   C15   S    
C13   H16   S    
C11   H2    S    
C3    C5    D    
C19   H12   S    
C1    O1    A    
C8    C18   A    
C21   H14   S    
Cu1   N2    S    
C7    O8    A    
C14   H8    S    
C10   H15   S    
C1    C3    S    
C22   H1    S    
Cu2   O6    S    
