data_mof_unit_2735.cif
_audit_creation_date              2012-12-10T18:43:48-0500
_audit_creation_method            fapswitch 2.2
_symmetry_space_group_name_H-M    P1
_symmetry_Int_Tables_number       1
_space_group_crystal_system       triclinic
_cell_length_a                    10.564131
_cell_length_b                    10.5872
_cell_length_c                    9.98564
_cell_angle_alpha                 89.68897
_cell_angle_beta                  102.036096
_cell_angle_gamma                 92.038055
_cell_volume                      1091.59425222

loop_
_atom_site_label
_atom_site_type_symbol
_atom_type_description
_atom_site_fract_x
_atom_site_fract_y
_atom_site_fract_z
_atom_type_partial_charge
C1    C     C_R   0.497129 0.260652 0.499625 0.827592
C2    C     C_R   0.503208 0.739153 0.500320 0.843861
C3    C     C_R   0.258112 0.494168 0.444466 0.864475
C4    C     C_R   0.741223 0.494755 0.555191 0.882895
C5    C     C_R   0.563474 0.594600 0.085032 -0.080435
C6    C     C_R   0.449706 0.398863 0.919560 -0.060105
C7    C     C_R   0.561878 0.595422 0.941662 0.265976
C8    C     C_R   0.435304 0.407330 0.057793 0.327628
C9    C     C_2   0.118318 0.476114 0.417823 0.043645
C10   C     C_2   0.878982 0.476582 0.579315 0.039854
C11   C     C_2   0.063023 0.400194 0.500067 0.185912
C12   C     C_2   0.925725 0.400981 0.493862 0.227571
C13   C     C_R   0.381164 0.057333 0.447299 -0.049522
C14   C     C_R   0.620438 0.941904 0.548506 -0.064208
C15   C     C_R   0.387430 0.927358 0.448877 -0.093039
C16   C     C_R   0.613579 0.071953 0.550326 -0.092444
C17   C     C_R   0.505035 0.871662 0.499452 -0.129784
C18   C     C_R   0.495805 0.127848 0.499799 -0.108943
H1    H     H_    0.301115 0.868642 0.411179 0.190910
H2    H     H_    0.699902 0.130506 0.588287 0.190785
N1    N     N_R   0.499970 0.499970 0.857200 -0.150873
N2    N     N_R   0.500030 0.500030 0.142800 -0.142049
O1    O     O_R   0.499990 0.316750 0.614620 -0.646896
O2    O     O_R   0.500010 0.683250 0.385380 -0.618917
O3    O     O_R   0.499990 0.316780 0.385290 -0.570740
O4    O     O_R   0.500010 0.683220 0.614710 -0.564505
O5    O     O_R   0.317810 0.500000 0.571850 -0.575593
O6    O     O_R   0.682190 0.500000 0.428150 -0.543804
O7    O     O_R   0.317810 0.500030 0.342520 -0.564896
O8    O     O_R   0.682190 0.499970 0.657480 -0.572693
Zn1   Zn    Zn3+2 0.500000 0.499980 0.653120 1.040991
Zn2   Zn    Zn3+2 0.500000 0.500020 0.346880 1.060555
Br1   Br    Br    0.821832 0.283549 0.365280 -0.370079
Br2   Br    Br    0.153655 0.287775 0.634702 -0.336486
C19   C     C_2   0.630822 0.700333 0.169237 0.601402
H3    H     H_    0.604947 0.796671 0.141311 0.064853
O9    O     O_2   0.720690 0.682069 0.264830 -0.504643
C20   C     C_2   0.452048 0.270241 0.864416 0.571208
H4    H     H_    0.540205 0.239741 0.837198 0.075057
O10   O     O_2   0.362413 0.193525 0.860061 -0.468338
Br3   Br    Br    0.989113 0.574839 0.722221 -0.319060
Br4   Br    Br    0.017893 0.570741 0.270490 -0.290745
Br5   Br    Br    0.671023 0.719134 0.874733 -0.391421
Br6   Br    Br    0.319807 0.289861 0.123049 -0.329597
C21   C     C_2   0.255934 0.117276 0.392404 0.583818
H5    H     H_    0.250206 0.219149 0.388966 0.052989
O11   O     O_2   0.157192 0.053521 0.349959 -0.476515
C22   C     C_2   0.747128 0.881300 0.593708 0.574142
H6    H     H_    0.754202 0.779750 0.586325 0.072152
O12   O     O_2   0.845662 0.944296 0.639278 -0.471941

loop_
_geom_bond_atom_site_label_1
_geom_bond_atom_site_label_2
_ccdc_geom_bond_type
C15   H1    S    
C11   C12   S    
C6    C20   S    
C15   C17   A    
C3    C9    S    
C7    Br5   S    
N1    Zn1   S    
C8    N2    A    
C19   H3    S    
C16   H2    S    
O3    Zn2   S    
C22   O12   D    
C1    C18   S    
O4    Zn1   S    
C2    O4    A    
C16   C18   A    
C21   H5    S    
C10   Br3   S    
C13   C21   S    
C9    C11   D    
C14   C17   A    
C9    Br4   S    
C20   H4    S    
N2    Zn2   S    
C13   C18   A    
C6    C8    A    
C10   C12   D    
C3    O5    A    
C22   H6    S    
C20   O10   D    
C1    O1    A    
O7    Zn2   S    
C13   C15   A    
C2    O2    A    
O8    Zn1   S    
C14   C16   A    
C4    C10   S    
C5    C19   S    
O6    Zn2   S    
C5    C7    A    
C4    O6    A    
C21   O11   D    
O2    Zn2   S    
C3    O7    A    
C14   C22   S    
C19   O9    D    
C12   Br1   S    
C7    N1    A    
C6    N1    A    
O5    Zn1   S    
C1    O3    A    
C11   Br2   S    
C4    O8    A    
C5    N2    A    
C8    Br6   S    
C2    C17   S    
O1    Zn1   S    
