data_mof_unit_686.cif
_audit_creation_date              2012-12-10T17:28:34-0500
_audit_creation_method            fapswitch 2.2
_symmetry_space_group_name_H-M    P1
_symmetry_Int_Tables_number       1
_space_group_crystal_system       triclinic
_cell_length_a                    10.678821
_cell_length_b                    12.001156
_cell_length_c                    12.731034
_cell_angle_alpha                 92.751725
_cell_angle_beta                  91.127075
_cell_angle_gamma                 84.642883
_cell_volume                      1622.39746025

loop_
_atom_site_label
_atom_site_type_symbol
_atom_type_description
_atom_site_fract_x
_atom_site_fract_y
_atom_site_fract_z
_atom_type_partial_charge
C1    C     C_R   0.495947 0.521700 0.700110 0.944411
C2    C     C_R   0.504053 0.478300 0.299890 0.944417
C3    C     C_R   0.520961 0.465042 0.189781 -0.142726
C4    C     C_R   0.479039 0.534959 0.810219 -0.142730
C5    C     C_R   0.338223 0.550973 0.956214 -0.299116
C6    C     C_R   0.661778 0.449033 0.043786 -0.299119
C7    C     C_R   0.358166 0.563649 0.850005 0.515322
C8    C     C_R   0.641836 0.436355 0.149995 0.515321
C9    C     C_R   0.580607 0.501649 0.874302 -0.361215
C10   C     C_R   0.419393 0.498354 0.125698 -0.361204
C11   C     C_R   0.561207 0.488005 0.979471 0.117992
C12   C     C_R   0.438794 0.511999 0.020529 0.117991
C13   C     C_R   0.407684 0.956062 0.384487 -0.366200
C14   C     C_R   0.592318 0.043937 0.615511 -0.366202
C15   C     C_R   0.413760 0.838674 0.396132 0.658726
C16   C     C_R   0.586240 0.161325 0.603868 0.658719
C17   C     C_R   0.536154 0.858044 0.552780 -0.116297
C18   C     C_R   0.463847 0.141956 0.447219 -0.116289
C19   C     C_R   0.532410 0.975303 0.542630 0.025630
C20   C     C_R   0.467592 0.024696 0.457368 0.025634
C21   C     C_R   0.740426 0.499095 0.512423 0.909013
C22   C     C_R   0.259574 0.500905 0.487577 0.909010
C23   C     C_R   0.913933 0.285297 0.506555 -0.200830
C24   C     C_R   0.086067 0.714704 0.493451 -0.200834
C25   C     C_R   0.979419 0.192360 0.456786 -0.320930
C26   C     C_R   0.020581 0.807640 0.543222 -0.320942
C27   C     C_R   0.084779 0.205928 0.395747 0.599025
C28   C     C_R   0.915220 0.794071 0.604260 0.599044
C29   C     C_R   0.131970 0.310814 0.399566 -0.209789
C30   C     C_R   0.868028 0.689185 0.600437 -0.209777
C31   C     C_R   0.069737 0.403923 0.455644 0.004524
C32   C     C_R   0.930261 0.596077 0.544358 0.004524
C33   C     C_R   0.951414 0.394427 0.496936 0.109885
C34   C     C_R   0.048585 0.605574 0.503067 0.109891
C35   C     C_R   0.123715 0.505938 0.471936 -0.189666
C36   C     C_R   0.876283 0.494062 0.528066 -0.189668
H1    H     H_    0.356521 0.993988 0.319397 0.201699
H2    H     H_    0.643480 0.006011 0.680602 0.201701
H3    H     H_    0.837188 0.269280 0.555652 0.224483
H4    H     H_    0.162812 0.730722 0.444355 0.224487
H5    H     H_    0.946467 0.110832 0.465491 0.152604
H6    H     H_    0.053535 0.889168 0.534521 0.152603
H7    H     H_    0.216466 0.319860 0.356260 0.145668
H8    H     H_    0.783532 0.680138 0.643743 0.145665
H9    H     H_    0.326882 0.518948 0.159164 0.156234
H10   H     H_    0.673118 0.481055 0.840836 0.156236
H11   H     H_    0.244318 0.568527 0.987377 0.157222
H12   H     H_    0.755684 0.431483 0.012624 0.157221
H13   H     H_    0.413269 0.180856 0.382014 0.165576
H14   H     H_    0.586733 0.819144 0.617985 0.165577
N1    N     N_R   0.523130 0.207800 0.519340 -0.144673
N2    N     N_R   0.476870 0.792200 0.480660 -0.144674
O1    O     O_R   0.506170 0.421700 0.658830 -0.566715
O2    O     O_R   0.493830 0.578300 0.341170 -0.566711
O3    O     O_R   0.491330 0.609310 0.646410 -0.641210
O4    O     O_R   0.508670 0.390690 0.353590 -0.641207
O5    O     O_R   0.690650 0.406190 0.506220 -0.600602
O6    O     O_R   0.309350 0.593810 0.493780 -0.600601
O7    O     O_R   0.675800 0.593810 0.493800 -0.617470
O8    O     O_R   0.324200 0.406190 0.506200 -0.617470
Zn1   Zn    Zn3+2 0.509910 0.374730 0.508290 0.988518
Zn2   Zn    Zn3+2 0.490090 0.625270 0.491710 0.988518
O9    O     O_3   0.848549 0.881171 0.661162 -0.639001
C37   C     C_3   0.927391 0.960079 0.704825 -0.356510
H15   H     H_    0.947112 0.020774 0.645502 0.183960
H16   H     H_    0.016263 0.919563 0.738685 0.152250
H17   H     H_    0.877150 0.008291 0.770180 0.190717
O10   O     O_3   0.151452 0.118824 0.338849 -0.638997
C38   C     C_3   0.072608 0.039917 0.295189 -0.356518
H18   H     H_    0.983734 0.080435 0.261331 0.152251
H19   H     H_    0.052890 0.979223 0.354514 0.183967
H20   H     H_    0.122848 0.991703 0.229833 0.190716
O11   O     O_3   0.742581 0.410785 0.217222 -0.605922
C39   C     C_3   0.774774 0.294181 0.209518 -0.309713
H21   H     H_    0.807052 0.265926 0.129185 0.146891
H22   H     H_    0.694916 0.247478 0.232313 0.166635
H23   H     H_    0.853883 0.273594 0.264933 0.201704
O12   O     O_3   0.257421 0.589227 0.782781 -0.605922
C40   C     C_3   0.225257 0.705836 0.790473 -0.309717
H24   H     H_    0.305128 0.752518 0.767673 0.166641
H25   H     H_    0.192984 0.734103 0.870802 0.146895
H26   H     H_    0.146155 0.726434 0.735056 0.201701
O13   O     O_3   0.650896 0.230071 0.672089 -0.606674
C41   C     C_3   0.627736 0.210029 0.778115 -0.339005
H27   H     H_    0.684884 0.134063 0.803993 0.147346
H28   H     H_    0.525888 0.204970 0.792502 0.168803
H29   H     H_    0.658368 0.280574 0.828214 0.199414
O14   O     O_3   0.349098 0.769926 0.327916 -0.606664
C42   C     C_3   0.372235 0.789975 0.221885 -0.339036
H30   H     H_    0.474078 0.795031 0.207483 0.168811
H31   H     H_    0.315087 0.865943 0.196019 0.147346
H32   H     H_    0.341592 0.719437 0.171787 0.199407

loop_
_geom_bond_atom_site_label_1
_geom_bond_atom_site_label_2
_ccdc_geom_bond_type
O6    Zn2   S    
C4    C9    A    
C27   C29   A    
O11   C39   S    
C19   C20   A    
N1    Zn1   S    
C41   H29   S    
C21   C36   S    
C22   C35   S    
C5    H11   S    
C6    H12   S    
C32   C36   A    
C24   C26   A    
C21   O7    A    
C22   O8    A    
O3    Zn2   S    
C33   C36   A    
C18   C20   A    
C34   C35   A    
C38   H19   S    
C1    O1    A    
C27   O10   S    
C17   C19   A    
O1    Zn1   S    
O10   C38   S    
O7    Zn2   S    
C39   H23   S    
C31   C33   A    
C42   H31   S    
C13   H1    S    
C9    H10   S    
C29   H7    S    
C30   H8    S    
C4    C7    A    
C17   N2    A    
C18   N1    A    
C39   H21   S    
C37   H17   S    
C41   H27   S    
C5    C12   A    
C3    C8    A    
C2    O2    A    
C25   H5    S    
C6    C11   A    
C40   H25   S    
O12   C40   S    
C6    C8    A    
O2    Zn2   S    
C23   C33   A    
C16   O13   S    
C24   C34   A    
C40   H24   S    
O8    Zn1   S    
C32   C34   A    
C38   H20   S    
C21   O5    A    
C14   H2    S    
O13   C41   S    
C10   H9    S    
C15   N2    A    
C42   H32   S    
C9    C11   A    
C10   C12   A    
C7    O12   S    
C13   C15   A    
C14   C16   A    
C39   H22   S    
C26   H6    S    
C5    C7    A    
C16   N1    A    
C13   C20   A    
C14   C19   A    
C41   H28   S    
C17   H14   S    
C22   O6    A    
C40   H26   S    
C11   C12   A    
O5    Zn1   S    
C25   C27   A    
C26   C28   A    
C1    C4    S    
C37   H15   S    
C28   C30   A    
C2    C3    S    
C1    O3    A    
C29   C31   A    
C3    C10   A    
N2    Zn2   S    
C30   C32   A    
C23   H3    S    
C8    O11   S    
C24   H4    S    
C31   C35   A    
C23   C25   A    
C38   H18   S    
O9    C37   S    
C28   O9    S    
O14   C42   S    
O4    Zn1   S    
C2    O4    A    
C42   H30   S    
C18   H13   S    
C37   H16   S    
C15   O14   S    
