data_mof_unit_1102.cif
_audit_creation_date              2012-12-10T18:15:18-0500
_audit_creation_method            fapswitch 2.2
_symmetry_space_group_name_H-M    P1
_symmetry_Int_Tables_number       1
_space_group_crystal_system       triclinic
_cell_length_a                    12.699403
_cell_length_b                    13.04247
_cell_length_c                    23.374456
_cell_angle_alpha                 92.536812
_cell_angle_beta                  103.009762
_cell_angle_gamma                 81.512824
_cell_volume                      3730.61812719

loop_
_atom_site_label
_atom_site_type_symbol
_atom_type_description
_atom_site_fract_x
_atom_site_fract_y
_atom_site_fract_z
_atom_type_partial_charge
C1    C     C_R   0.438460 0.691122 0.489744 0.980968
C2    C     C_R   0.468965 0.725445 0.032862 0.584374
C3    C     C_R   0.470100 0.728499 0.973343 0.368455
C4    C     C_R   0.480848 0.635073 0.940662 -0.194883
C5    C     C_R   0.485062 0.539141 0.967824 -0.131427
C6    C     C_R   0.492486 0.445247 0.935276 -0.201153
C7    C     C_R   0.499708 0.349665 0.963264 0.364364
C8    C     C_R   0.495068 0.348489 0.022269 0.576316
C9    C     C_R   0.488053 0.634055 0.881534 0.630734
C10   C     C_R   0.493002 0.450070 0.875575 0.655533
C11   C     C_R   0.596438 0.499094 0.774178 0.344662
C12   C     C_R   0.500928 0.502595 0.610273 0.953496
C13   C     C_R   0.596692 0.484356 0.714804 0.536040
C14   C     C_R   0.501424 0.515909 0.672297 -0.320595
C15   C     C_R   0.407315 0.565260 0.689172 -0.381342
C16   C     C_R   0.406278 0.578623 0.748271 0.642385
C17   C     C_R   0.499658 0.543064 0.790740 -0.034323
C18   C     C_R   0.397110 0.491092 0.225019 -0.259099
C19   C     C_R   0.401726 0.480965 0.284457 0.662509
C20   C     C_R   0.490875 0.510422 0.326352 -0.288150
C21   C     C_R   0.573441 0.551576 0.307570 -0.360055
C22   C     C_R   0.569549 0.559536 0.248127 0.695014
C23   C     C_R   0.561579 0.308287 0.507519 0.949376
C24   C     C_R   0.481344 0.529172 0.206754 0.041664
C25   C     C_R   0.723520 0.047722 0.487604 0.446529
C26   C     C_R   0.599321 0.197026 0.508033 -0.305489
C27   C     C_R   0.291289 0.842391 0.481526 0.489480
C28   C     C_R   0.259750 0.948886 0.479326 0.478167
C29   C     C_R   0.336257 0.014885 0.479225 0.455573
C30   C     C_R   0.445450 0.973612 0.477108 -0.124219
C31   C     C_R   0.468768 0.866990 0.465432 -0.290835
C32   C     C_R   0.532488 0.033062 0.485943 0.040762
C33   C     C_R   0.635030 0.989704 0.474152 -0.322393
C34   C     C_R   0.497714 0.501508 0.389342 0.994868
C35   C     C_R   0.646005 0.890459 0.448939 0.595523
C36   C     C_R   0.562769 0.830370 0.443567 0.627887
C37   C     C_R   0.522002 0.133021 0.508964 -0.193278
C38   C     C_R   0.703466 0.153507 0.500845 0.595391
C39   C     C_R   0.397711 0.800601 0.476641 -0.290879
C40   C     C_R   0.090086 0.351929 0.410147 0.343510
C41   C     C_R   0.805170 0.618105 0.576826 0.566851
C42   C     C_R   0.915350 0.618455 0.603864 0.204666
C43   C     C_R   0.995394 0.560576 0.578488 0.480519
C44   C     C_R   0.965401 0.514984 0.521856 -0.191307
C45   C     C_R   0.488158 0.441082 0.114948 0.599733
C46   C     C_R   0.854334 0.502163 0.501931 -0.123510
C47   C     C_R   0.042811 0.470909 0.488407 -0.217328
C48   C     C_R   0.011601 0.402204 0.440359 -0.305489
C49   C     C_R   0.903220 0.384078 0.423931 0.474250
C50   C     C_R   0.828413 0.429508 0.455966 0.610881
C51   C     C_R   0.149706 0.495874 0.499041 0.719572
C52   C     C_R   0.196165 0.374489 0.426672 0.620973
C53   C     C_R   0.471307 0.625964 0.119770 0.681894
C54   C     C_R   0.474027 0.630467 0.060293 -0.210644
C55   C     C_R   0.482212 0.536993 0.027694 -0.162721
C56   C     C_R   0.488063 0.441271 0.055039 -0.185775
H1    H     H_    0.642246 0.576084 0.338803 0.243396
H2    H     H_    0.452640 0.164587 0.526631 0.248168
H3    H     H_    0.334356 0.592509 0.656562 0.275126
H4    H     H_    0.328901 0.467640 0.192878 0.207622
N1    N     N_R   0.479604 0.532365 0.145605 -0.345224
N2    N     N_R   0.493515 0.542758 0.850874 -0.316781
N3    N     N_R   0.222200 0.444670 0.469780 -0.247768
N4    N     N_R   0.776960 0.554790 0.529910 -0.148763
O1    O     O_R   0.366740 0.627150 0.485570 -0.537842
O2    O     O_2   0.459947 0.713969 0.151765 -0.417182
O3    O     O_2   0.490603 0.722766 0.854615 -0.510917
O4    O     O_2   0.492461 0.363317 0.841862 -0.503616
O5    O     O_R   0.544830 0.662520 0.504870 -0.552171
O6    O     O_R   0.410930 0.482340 0.574190 -0.611113
O7    O     O_R   0.589010 0.517710 0.593490 -0.542243
O8    O     O_R   0.455170 0.337480 0.495130 -0.587188
O9    O     O_R   0.633260 0.372850 0.514430 -0.503866
O10   O     O_R   0.410990 0.482290 0.406510 -0.527519
O11   O     O_R   0.589070 0.517660 0.425810 -0.551857
O12   O     O_2   0.498378 0.350587 0.142927 -0.459981
Zn1   Zn    Zn3+2 0.381090 0.476380 0.487110 1.118693
Zn2   Zn    Zn3+2 0.618910 0.523620 0.512890 1.115381
F1    F     F_    0.463956 0.816459 0.063436 -0.573205
F2    F     F_    0.319801 0.441248 0.300457 -0.579569
F3    F     F_    0.652663 0.594636 0.230716 -0.620649
F4    F     F_    0.785694 0.211676 0.507591 -0.595548
F5    F     F_    0.736558 0.851406 0.429033 -0.584291
O13   O     O_3   0.829350 0.002543 0.488071 -0.502419
C57   C     C_3   0.870562 0.948298 0.541440 0.082134
H5    H     H_    0.823382 0.883894 0.544311 0.157051
H6    H     H_    0.867844 0.001382 0.579982 0.132135
C58   C     C_3   0.988631 0.901226 0.545079 -0.507537
H7    H     H_    0.040270 0.963915 0.549631 0.280385
H8    H     H_    0.017798 0.850611 0.584099 0.207679
H9    H     H_    0.995953 0.854050 0.505053 0.308575
F6    F     F_    0.217983 0.781002 0.488987 -0.576625
F7    F     F_    0.299530 0.117863 0.476940 -0.685032
F8    F     F_    0.155281 0.988906 0.479822 -0.635099
O14   O     O_3   0.466858 0.823576 0.948526 -0.535106
C59   C     C_3   0.356658 0.868676 0.930452 0.154645
H10   H     H_    0.316731 0.882096 0.968484 0.165661
H11   H     H_    0.310081 0.818439 0.897303 0.152031
C60   C     C_3   0.351968 0.972865 0.902519 -0.674410
H12   H     H_    0.391546 0.962395 0.864440 0.266177
H13   H     H_    0.265590 0.008209 0.887107 0.199288
H14   H     H_    0.394726 0.025935 0.935159 0.279991
F9    F     F_    0.571586 0.738830 0.413838 -0.639151
F10   F     F_    0.272878 0.330641 0.397611 -0.566607
O15   O     O_3   0.871762 0.313023 0.379618 -0.537348
C61   C     C_3   0.798446 0.364937 0.331456 0.144794
H15   H     H_    0.821674 0.441252 0.323014 0.150433
H16   H     H_    0.714632 0.376467 0.339383 0.180836
C62   C     C_3   0.796812 0.298588 0.276201 -0.686691
H17   H     H_    0.772997 0.222045 0.282607 0.262421
H18   H     H_    0.736676 0.337855 0.238776 0.230064
H19   H     H_    0.878708 0.287063 0.265599 0.273998
O16   O     O_3   0.061594 0.288035 0.361834 -0.558908
C63   C     C_3   0.102619 0.183882 0.377268 0.241991
H20   H     H_    0.090273 0.165256 0.421222 0.217955
H21   H     H_    0.190714 0.167895 0.376711 0.224910
C64   C     C_3   0.043478 0.111874 0.332413 -0.704233
H22   H     H_    0.080145 0.030189 0.342478 0.235045
H23   H     H_    0.955958 0.120700 0.334062 0.283809
H24   H     H_    0.050645 0.129957 0.287576 0.251273
F11   F     F_    0.180513 0.577006 0.533809 -0.563398
F12   F     F_    0.726112 0.672441 0.600923 -0.652989
O17   O     O_3   0.098373 0.534663 0.614020 -0.510664
C65   C     C_3   0.106068 0.432860 0.634899 0.088721
H25   H     H_    0.097422 0.375273 0.598121 0.147820
H26   H     H_    0.042351 0.427854 0.660121 0.132765
C66   C     C_3   0.216914 0.402547 0.675450 -0.723534
H27   H     H_    0.228032 0.457002 0.713425 0.283104
H28   H     H_    0.222370 0.323060 0.692077 0.214100
H29   H     H_    0.282419 0.403504 0.651137 0.260549
O18   O     O_3   0.947411 0.672389 0.655759 -0.559825
C67   C     C_3   0.912791 0.630487 0.702105 0.165446
H30   H     H_    0.903855 0.546574 0.695827 0.135588
H31   H     H_    0.833222 0.674466 0.706747 0.193600
C68   C     C_3   0.996552 0.641707 0.759013 -0.762181
H32   H     H_    0.005106 0.724740 0.768072 0.267059
H33   H     H_    0.970267 0.610261 0.796059 0.190571
H34   H     H_    0.076945 0.598180 0.755491 0.294755
F13   F     F_    0.736791 0.387179 0.445178 -0.616513
O19   O     O_3   0.506850 0.256432 0.932785 -0.540403
C69   C     C_3   0.617896 0.212797 0.941878 0.159691
H35   H     H_    0.652108 0.193124 0.988915 0.171336
H36   H     H_    0.667351 0.266909 0.927861 0.146982
C70   C     C_3   0.627617 0.113580 0.905557 -0.692136
H37   H     H_    0.594113 0.130600 0.858275 0.272052
H38   H     H_    0.714768 0.079311 0.911767 0.200909
H39   H     H_    0.581828 0.056619 0.919603 0.266410
F14   F     F_    0.497436 0.255465 0.046889 -0.583915
O20   O     O_3   0.687851 0.462027 0.816134 -0.557435
C71   C     C_3   0.752270 0.542487 0.831977 0.111059
H40   H     H_    0.706275 0.610609 0.850387 0.156285
H41   H     H_    0.779872 0.567253 0.793400 0.151408
C72   C     C_3   0.852632 0.503565 0.878836 -0.776275
H42   H     H_    0.901871 0.436970 0.861414 0.268416
H43   H     H_    0.903532 0.566574 0.892106 0.207446
H44   H     H_    0.827505 0.478510 0.917986 0.256203
F15   F     F_    0.688590 0.436626 0.698966 -0.640931
F16   F     F_    0.313369 0.622446 0.764363 -0.645317

loop_
_geom_bond_atom_site_label_1
_geom_bond_atom_site_label_2
_ccdc_geom_bond_type
C68   H34   S    
C29   F7    S    
C55   C56   A    
C24   N1    S    
C41   C42   A    
O14   C59   S    
C8    C56   A    
C66   H28   S    
C63   H20   S    
O20   C71   S    
O17   C65   S    
C8    F14   S    
C53   C54   A    
O8    Zn1   S    
C36   F9    S    
C18   C24   A    
C28   C29   A    
C69   H36   S    
C57   H5    S    
C5    C6    A    
C25   C38   A    
C61   H15   S    
C15   C16   A    
C59   C60   S    
C28   F8    S    
C18   C19   A    
C23   C26   S    
C2    F1    S    
C62   H18   S    
C53   N1    A    
C11   O20   S    
C11   C17   A    
C35   C36   A    
C45   C56   A    
C27   C39   A    
C16   C17   A    
C71   C72   S    
C59   H11   S    
C47   C48   A    
C1    O1    A    
O9    Zn2   S    
C42   O18   S    
C72   H43   S    
C31   C36   A    
C37   H2    S    
C44   C47   A    
C34   O11   A    
C20   C34   S    
C68   H32   S    
C68   H33   S    
C13   C14   A    
C38   F4    S    
O6    Zn1   S    
O5    Zn2   S    
C10   N2    A    
C69   H35   S    
C15   H3    S    
C23   O9    A    
C70   H39   S    
C13   F15   S    
C44   C46   A    
C57   H6    S    
O1    Zn1   S    
C16   F16   S    
C9    N2    A    
C22   F3    S    
C7    C8    A    
C51   N3    A    
O19   C69   S    
C70   H38   S    
C2    C54   A    
C69   C70   S    
C35   F5    S    
C50   F13   S    
C26   C38   A    
C47   C51   A    
C40   C52   A    
O10   Zn1   S    
C1    O5    A    
C3    C4    A    
C62   H19   S    
C46   N4    A    
C41   F12   S    
C43   C44   A    
C9    O3    S    
C21   H1    S    
C29   C30   A    
C17   N2    S    
C25   O13   S    
C63   H21   S    
C40   O16   S    
C58   H9    S    
C59   H10   S    
C20   C21   A    
C27   F6    S    
C32   C37   A    
O13   C57   S    
C72   H44   S    
C53   O2    S    
C34   O10   A    
C65   C66   S    
C18   H4    S    
C48   C49   A    
C60   H13   S    
C12   O7    A    
C58   H8    S    
C45   O12   S    
C51   F11   S    
C22   C24   A    
C64   H24   S    
C42   C43   A    
O18   C67   S    
C43   O17   S    
C65   H26   S    
O16   C63   S    
N3    Zn1   S    
C57   C58   S    
C40   C48   A    
C12   O6    A    
C54   C55   A    
C52   F10   S    
C71   H40   S    
N4    Zn2   S    
C23   O8    A    
C5    C55   A    
C12   C14   S    
C4    C5    A    
C52   N3    A    
C6    C10   A    
C49   O15   S    
C26   C37   A    
C6    C7    A    
C10   O4    S    
O15   C61   S    
C46   C50   A    
C60   H12   S    
C70   H37   S    
C32   C33   A    
C19   C20   A    
C64   H23   S    
C2    C3    A    
C4    C9    A    
C66   H29   S    
C64   H22   S    
C30   C32   A    
C11   C13   A    
C30   C31   A    
C61   H16   S    
C67   C68   S    
C45   N1    A    
C33   C35   A    
C31   C39   A    
C67   H30   S    
C71   H41   S    
C19   F2    S    
O11   Zn2   S    
C63   C64   S    
C1    C39   S    
C7    O19   S    
C60   H14   S    
C58   H7    S    
C67   H31   S    
C49   C50   A    
C62   H17   S    
C27   C28   A    
C14   C15   A    
C3    O14   S    
C41   N4    A    
C72   H42   S    
C21   C22   A    
O7    Zn2   S    
C66   H27   S    
C25   C33   A    
C65   H25   S    
C61   C62   S    
