data_mof_unit_315.cif
_audit_creation_date              2012-12-11T15:50:29-0500
_audit_creation_method            fapswitch 2.2
_symmetry_space_group_name_H-M    P1
_symmetry_Int_Tables_number       1
_space_group_crystal_system       triclinic
_cell_length_a                    18.900975
_cell_length_b                    11.053007
_cell_length_c                    18.752954
_cell_angle_alpha                 89.941966
_cell_angle_beta                  90.918616
_cell_angle_gamma                 90.009344
_cell_volume                      3917.22297337

loop_
_atom_site_label
_atom_site_type_symbol
_atom_type_description
_atom_site_fract_x
_atom_site_fract_y
_atom_site_fract_z
_atom_type_partial_charge
C1    C     C_R   0.273617 0.039316 0.855199 0.561556
C2    C     C_R   0.726597 0.039967 0.144991 0.539701
C3    C     C_R   0.773617 0.539315 0.855199 0.560666
C4    C     C_R   0.226599 0.539971 0.144993 0.540054
C5    C     C_3   0.553828 0.777378 0.967887 -0.118146
C6    C     C_3   0.506699 0.711273 0.021755 -0.080717
C7    C     C_3   0.053837 0.277382 0.967883 -0.118008
C8    C     C_3   0.006708 0.211273 0.021751 -0.081239
C9    C     C_R   0.241243 0.575448 0.071314 -0.037730
C10   C     C_R   0.759604 0.573018 0.929222 -0.036124
C11   C     C_R   0.741241 0.075445 0.071313 -0.037149
C12   C     C_R   0.259605 0.073017 0.929223 -0.036051
C13   C     C_R   0.302200 0.540141 0.035720 -0.058119
C14   C     C_R   0.698705 0.536544 0.964984 -0.055248
C15   C     C_R   0.802201 0.040144 0.035720 -0.057574
C16   C     C_R   0.198706 0.036544 0.964985 -0.055175
C17   C     C_R   0.305089 0.544236 0.961506 -0.007585
C18   C     C_R   0.695938 0.541924 0.039478 0.020315
C19   C     C_R   0.805090 0.044241 0.961507 -0.007669
C20   C     C_R   0.195939 0.041923 0.039479 0.020179
C21   C     C_R   0.183862 0.611884 0.955853 0.098121
C22   C     C_R   0.817116 0.613378 0.044117 0.080132
C23   C     C_R   0.683861 0.111882 0.955852 0.098057
C24   C     C_R   0.317117 0.113375 0.044118 0.080138
C25   C     C_R   0.183804 0.618462 0.029802 -0.158054
C26   C     C_R   0.817842 0.614021 0.970301 -0.152247
C27   C     C_R   0.683802 0.118457 0.029801 -0.158053
C28   C     C_R   0.317844 0.114017 0.970302 -0.152000
C29   C     C_3   0.340024 0.422735 0.039536 -0.182661
C30   C     C_3   0.666056 0.414475 0.962570 -0.186548
C31   C     C_3   0.840028 0.922740 0.039536 -0.182671
C32   C     C_3   0.166057 0.914474 0.962571 -0.186668
C33   C     C_3   0.342068 0.425151 0.958895 0.045599
C34   C     C_3   0.667355 0.416081 0.042949 0.032374
C35   C     C_3   0.842071 0.925158 0.958894 0.045480
C36   C     C_3   0.167357 0.916080 0.042950 0.032338
C37   C     C_R   0.246518 0.580593 0.920366 0.003564
C38   C     C_R   0.754054 0.582986 0.079591 -0.003937
C39   C     C_R   0.746519 0.080594 0.920366 0.003347
C40   C     C_R   0.254055 0.082985 0.079592 -0.004467
C41   C     C_R   0.513639 0.827973 0.428618 0.008894
C42   C     C_R   0.501387 0.837657 0.577672 0.022021
C43   C     C_R   0.036612 0.326050 0.434620 0.006107
C44   C     C_R   0.006869 0.335469 0.580629 0.027203
C45   C     C_R   0.468433 0.821411 0.856290 0.564467
C46   C     C_R   0.529744 0.820801 0.144593 0.552431
C47   C     C_R   0.968437 0.321412 0.856287 0.564318
C48   C     C_R   0.029747 0.320801 0.144592 0.560239
C49   C     C_R   0.542454 0.738148 0.472888 0.029232
C50   C     C_R   0.537293 0.742522 0.545671 0.035275
C51   C     C_R   0.060971 0.236241 0.480979 0.011277
C52   C     C_R   0.046876 0.240479 0.552921 0.051432
C53   C     C_R   0.482024 0.938188 0.534966 -0.171449
C54   C     C_R   0.486830 0.932487 0.460545 -0.175882
C55   C     C_R   0.988869 0.432964 0.535669 -0.174990
C56   C     C_R   0.001193 0.426363 0.462666 -0.171668
C57   C     C_3   0.534401 0.604010 0.470828 -0.239180
C58   C     C_3   0.531217 0.607800 0.551481 -0.257565
C59   C     C_3   0.048009 0.103266 0.477451 -0.245001
C60   C     C_3   0.036337 0.106439 0.556899 -0.252607
C61   C     C_R   0.250004 0.601653 0.419488 0.010670
C62   C     C_R   0.781687 0.514741 0.562917 0.036739
C63   C     C_R   0.748850 0.100036 0.420018 0.011518
C64   C     C_R   0.281574 0.016901 0.563074 0.038491
C65   C     C_R   0.198249 0.664581 0.457223 0.055801
C66   C     C_R   0.829645 0.588112 0.527895 0.010508
C67   C     C_R   0.695902 0.159224 0.458170 0.060124
C68   C     C_R   0.327485 0.095708 0.529391 0.014503
C69   C     C_R   0.201632 0.666907 0.529652 -0.027591
C70   C     C_R   0.821734 0.612581 0.456989 0.001815
C71   C     C_R   0.700040 0.163455 0.530416 -0.025569
C72   C     C_R   0.319823 0.120627 0.458581 0.002944
C73   C     C_R   0.316468 0.574176 0.529167 -0.126682
C74   C     C_R   0.719283 0.482393 0.450291 -0.155635
C75   C     C_R   0.816871 0.077771 0.528932 -0.124015
C76   C     C_R   0.223179 0.978894 0.448997 -0.162077
C77   C     C_R   0.312594 0.566309 0.454910 -0.172467
C78   C     C_R   0.728374 0.455805 0.522917 -0.154868
C79   C     C_R   0.812422 0.068554 0.454815 -0.167361
C80   C     C_R   0.230889 0.954039 0.521983 -0.158486
C81   C     C_3   0.119422 0.645415 0.460252 0.036059
C82   C     C_3   0.854980 0.713493 0.545244 0.037668
C83   C     C_3   0.617511 0.135164 0.461757 0.039616
C84   C     C_3   0.346878 0.223611 0.547917 0.036880
C85   C     C_3   0.124603 0.651778 0.540417 -0.242084
C86   C     C_3   0.848987 0.739412 0.466450 -0.223655
C87   C     C_3   0.623453 0.143157 0.541894 -0.241513
C88   C     C_3   0.340827 0.250487 0.469261 -0.225338
C89   C     C_R   0.259430 0.633064 0.850228 0.571001
C90   C     C_R   0.740613 0.633882 0.149668 0.562705
C91   C     C_R   0.759430 0.133065 0.850228 0.570340
C92   C     C_R   0.240613 0.133881 0.149669 0.563075
C93   C     C_R   0.257461 0.615430 0.567099 0.051252
C94   C     C_R   0.762154 0.570486 0.419115 0.027797
C95   C     C_R   0.757318 0.115508 0.567306 0.049238
C96   C     C_R   0.262960 0.072071 0.419226 0.025199
C97   C     C_R   0.290741 0.997950 0.638654 0.572038
C98   C     C_R   0.729010 0.047656 0.352817 0.542867
C99   C     C_R   0.790837 0.497488 0.638711 0.571699
C100  C     C_R   0.229204 0.547998 0.352704 0.535486
C101  C     C_R   0.470075 0.824089 0.647323 0.541426
C102  C     C_R   0.531232 0.822895 0.353710 0.537673
C103  C     C_R   0.970906 0.323703 0.647963 0.539634
C104  C     C_R   0.057092 0.319691 0.360624 0.544918
C105  C     C_R   0.261394 0.641328 0.641893 0.575402
C106  C     C_R   0.741652 0.634263 0.354817 0.548430
C107  C     C_R   0.761415 0.141477 0.641939 0.573504
C108  C     C_R   0.241887 0.134040 0.354576 0.541569
C109  C     C_3   0.441136 0.873783 0.033626 -0.135050
C110  C     C_3   0.487767 0.941023 0.979371 -0.059694
C111  C     C_3   0.941143 0.373780 0.033622 -0.134490
C112  C     C_3   0.987772 0.441023 0.979367 -0.059762
C113  C     C_3   0.439980 0.762136 0.984715 -0.124673
C114  C     C_3   0.555229 0.890156 0.016404 -0.088901
C115  C     C_3   0.939988 0.262133 0.984711 -0.124403
C116  C     C_3   0.055236 0.390159 0.016400 -0.089843
C117  C     C_3   0.487464 0.828469 0.931741 0.047186
C118  C     C_3   0.507928 0.824198 0.069544 0.042377
C119  C     C_3   0.987471 0.328469 0.931737 0.047372
C120  C     C_3   0.007935 0.324197 0.069540 0.040531
Cr1   Cr    Cr6+3 0.229640 0.835880 0.747370 1.060167
Cr2   Cr    Cr6+3 0.770360 0.835880 0.252630 1.069139
Cr3   Cr    Cr6+3 0.729640 0.335880 0.747370 1.059346
Cr4   Cr    Cr6+3 0.270360 0.335880 0.252630 1.061885
Cr5   Cr    Cr6+3 0.387390 0.989720 0.750850 1.070485
Cr6   Cr    Cr6+3 0.612610 0.989720 0.249150 1.106982
Cr7   Cr    Cr6+3 0.887390 0.489720 0.750850 1.073107
Cr8   Cr    Cr6+3 0.112610 0.489720 0.249150 1.104030
Cr9   Cr    Cr6+3 0.385770 0.677220 0.749340 1.078294
Cr10  Cr    Cr6+3 0.614230 0.677220 0.250660 1.085182
Cr11  Cr    Cr6+3 0.885770 0.177220 0.749340 1.080094
Cr12  Cr    Cr6+3 0.114230 0.177220 0.250660 1.085408
H1    H     H_    0.363217 0.541601 0.556827 0.152288
H2    H     H_    0.675796 0.442717 0.420509 0.177458
H3    H     H_    0.864707 0.049074 0.556187 0.155820
H4    H     H_    0.182146 0.935012 0.417876 0.183082
H5    H     H_    0.354718 0.521740 0.426615 0.133171
H6    H     H_    0.690794 0.397456 0.548705 0.152875
H7    H     H_    0.855343 0.026895 0.426176 0.137772
H8    H     H_    0.194006 0.894167 0.547297 0.152945
H9    H     H_    0.105247 0.554776 0.440690 0.162315
H10   H     H_    0.910282 0.716061 0.566228 0.142301
H11   H     H_    0.604071 0.043102 0.442951 0.166952
H12   H     H_    0.401670 0.232539 0.569701 0.143190
H13   H     H_    0.111895 0.565143 0.567453 0.147419
H14   H     H_    0.901112 0.752390 0.440985 0.166204
H15   H     H_    0.612905 0.056077 0.569466 0.144524
H16   H     H_    0.392539 0.271467 0.444708 0.161623
H17   H     H_    0.805329 0.850664 0.060290 0.167400
H18   H     H_    0.202628 0.846652 0.940313 0.158672
H19   H     H_    0.305324 0.350660 0.060292 0.167744
H20   H     H_    0.702626 0.346652 0.940313 0.158806
O1    O     O_R   0.214300 0.709080 0.827500 -0.473000
O2    O     O_R   0.785700 0.709080 0.172500 -0.473996
O3    O     O_R   0.714300 0.209080 0.827500 -0.473235
O4    O     O_R   0.285700 0.209080 0.172500 -0.473289
O5    O     O_R   0.445900 0.919370 0.676500 -0.526928
O6    O     O_R   0.554100 0.919370 0.323500 -0.494532
O7    O     O_R   0.945900 0.419370 0.676500 -0.525913
O8    O     O_R   0.054100 0.419370 0.323500 -0.495779
O9    O     O_R   0.456660 0.717710 0.669820 -0.520214
O10   O     O_R   0.543340 0.717710 0.330180 -0.509494
O11   O     O_R   0.956660 0.217710 0.669820 -0.521976
O12   O     O_R   0.043340 0.217710 0.330180 -0.501342
O13   O     O_R   0.320590 0.625770 0.672930 -0.495419
O14   O     O_R   0.679410 0.625770 0.327070 -0.501037
O15   O     O_R   0.820590 0.125770 0.672930 -0.493403
O16   O     O_R   0.179410 0.125770 0.327070 -0.509395
O17   O     O_3   0.334270 0.834280 0.749190 -0.312983
O18   O     O_3   0.665730 0.834280 0.250810 -0.287215
O19   O     O_3   0.834270 0.334280 0.749190 -0.313546
O20   O     O_3   0.165730 0.334280 0.250810 -0.301579
O21   O     O_R   0.236190 0.958390 0.823150 -0.491846
O22   O     O_R   0.763810 0.958390 0.176850 -0.499671
O23   O     O_R   0.736190 0.458390 0.823150 -0.492121
O24   O     O_R   0.263810 0.458390 0.176850 -0.498500
O25   O     O_R   0.332090 0.075280 0.831290 -0.498994
O26   O     O_R   0.667910 0.075280 0.168710 -0.498196
O27   O     O_R   0.832090 0.575280 0.831290 -0.498921
O28   O     O_R   0.167910 0.575280 0.168710 -0.497238
O29   O     O_R   0.446280 0.918040 0.826620 -0.492439
O30   O     O_R   0.553720 0.918040 0.173380 -0.478284
O31   O     O_R   0.946280 0.418040 0.826620 -0.492496
O32   O     O_R   0.053720 0.418040 0.173380 -0.473986
O33   O     O_R   0.457080 0.716270 0.831760 -0.476142
O34   O     O_R   0.542920 0.716270 0.168240 -0.499177
O35   O     O_R   0.957080 0.216270 0.831760 -0.476159
O36   O     O_R   0.042920 0.216270 0.168240 -0.495436
O37   O     O_R   0.320980 0.624440 0.823040 -0.473292
O38   O     O_R   0.679020 0.624440 0.176960 -0.475817
O39   O     O_R   0.820980 0.124440 0.823040 -0.473089
O40   O     O_R   0.179020 0.124440 0.176960 -0.475192
O41   O     O_R   0.213880 0.710510 0.665560 -0.529649
O42   O     O_R   0.786120 0.710510 0.334440 -0.514124
O43   O     O_R   0.713880 0.210510 0.665560 -0.530404
O44   O     O_R   0.286120 0.210510 0.334440 -0.513629
O45   O     O_R   0.235800 0.959720 0.673040 -0.498580
O46   O     O_R   0.764200 0.959720 0.326960 -0.512521
O47   O     O_R   0.735800 0.459720 0.673040 -0.500080
O48   O     O_R   0.264200 0.459720 0.326960 -0.514985
O49   O     O_R   0.331670 0.076720 0.669350 -0.467348
O50   O     O_R   0.668330 0.076720 0.330650 -0.482849
O51   O     O_R   0.831670 0.576720 0.669350 -0.462042
O52   O     O_R   0.168330 0.576720 0.330650 -0.489889
H21   H     H_    0.391628 0.713892 0.968392 0.152431
H22   H     H_    0.603953 0.936983 0.033124 0.138994
H23   H     H_    0.891639 0.213885 0.968388 0.152428
H24   H     H_    0.103958 0.436986 0.033122 0.138885
H25   H     H_    0.458349 0.017330 0.558421 0.142240
H26   H     H_    0.469429 0.008563 0.428323 0.167679
H27   H     H_    0.960292 0.509830 0.555807 0.136531
H28   H     H_    0.982886 0.499258 0.428403 0.170111
H29   H     H_    0.095429 0.052434 0.462642 0.177033
H30   H     H_    0.982176 0.078286 0.571050 0.154816
H31   H     H_    0.582181 0.558809 0.450810 0.179480
H32   H     H_    0.479960 0.575510 0.571836 0.156407
H33   H     H_    0.483886 0.575039 0.444924 0.153878
H34   H     H_    0.578537 0.566896 0.577963 0.163357
H35   H     H_    0.999404 0.079775 0.446188 0.169047
H36   H     H_    0.079309 0.061178 0.588106 0.165719
Br1   Br    Br    0.064179 0.775636 0.417880 -0.601667
Br2   Br    Br    0.786683 0.807508 0.599249 -0.515892
Br3   Br    Br    0.560572 0.263652 0.419637 -0.598552
Br4   Br    Br    0.273858 0.306766 0.601853 -0.519438
H37   H     H_    0.100059 0.733737 0.563766 0.172420
H38   H     H_    0.808997 0.809697 0.452781 0.188197
H39   H     H_    0.597275 0.223718 0.565121 0.173110
H40   H     H_    0.297540 0.314649 0.455258 0.184638
H41   H     H_    0.393600 0.904115 0.062256 0.153704
H42   H     H_    0.477695 0.034720 0.961234 0.207771
H43   H     H_    0.893605 0.404113 0.062250 0.154444
H44   H     H_    0.977697 0.534719 0.961231 0.207695
H45   H     H_    0.600001 0.739373 0.939778 0.137060
H46   H     H_    0.511395 0.616552 0.039733 0.212641
H47   H     H_    0.100009 0.239380 0.939773 0.137336
H48   H     H_    0.011408 0.116552 0.039728 0.212586
Br5   Br    Br    0.095592 0.645738 0.906711 -0.497088
Br6   Br    Br    0.905664 0.653550 0.092208 -0.480911
Br7   Br    Br    0.595592 0.145731 0.906711 -0.497944
Br8   Br    Br    0.405664 0.153544 0.092213 -0.483038
H49   H     H_    0.134710 0.644988 0.054320 0.219172
H50   H     H_    0.866987 0.639332 0.945508 0.198282
H51   H     H_    0.634707 0.144980 0.054319 0.219219
H52   H     H_    0.366989 0.139327 0.945510 0.198315
H53   H     H_    0.392573 0.431552 0.066475 0.226704
H54   H     H_    0.612206 0.416930 0.937968 0.236780
H55   H     H_    0.892577 0.931561 0.066474 0.226842
H56   H     H_    0.112206 0.916928 0.937970 0.236728
Br9   Br    Br    0.437086 0.438799 0.922062 -0.449947
Br10  Br    Br    0.574847 0.404898 0.085509 -0.446852
Br11  Br    Br    0.937089 0.938812 0.922060 -0.449174
Br12  Br    Br    0.074852 0.904894 0.085514 -0.445484
H57   H     H_    0.309171 0.354275 0.932608 0.137429
H58   H     H_    0.706508 0.352432 0.067074 0.127645
H59   H     H_    0.809176 0.854280 0.932607 0.137295
H60   H     H_    0.206512 0.852432 0.067075 0.127394

loop_
_geom_bond_atom_site_label_1
_geom_bond_atom_site_label_2
_ccdc_geom_bond_type
C79   H7    S    
C55   C56   A    
C49   C50   A    
C67   C83   S    
C115  H23   S    
C5    C114  S    
C97   O45   A    
C111  H43   S    
C35   Br11  S    
C14   C18   A    
Cr1   O17   S    
C111  C112  S    
Cr8   O32   S    
C73   C93   A    
C82   H10   S    
C103  O7    A    
Cr12  O36   S    
C107  O43   A    
C76   H4    S    
C9    C25   A    
C7    C8    S    
C48   C120  S    
C63   C79   A    
C53   C54   A    
Cr6   O50   S    
C15   C19   A    
C1    O21   A    
C36   H60   S    
C75   C79   A    
C87   H15   S    
C32   H56   S    
C69   C93   A    
C106  O14   A    
C98   O46   A    
C13   C29   S    
C16   C20   A    
C70   C94   A    
C77   H5    S    
C48   O36   A    
C63   C98   S    
Cr9   O33   S    
C60   H36   S    
C42   C53   A    
C5    C6    S    
C31   H17   S    
C65   C69   A    
C71   C95   A    
Cr5   O5    S    
C84   H12   S    
Cr7   O19   S    
C22   C38   A    
C53   H25   S    
C29   C33   S    
C30   H20   S    
Cr9   O17   S    
C49   C57   S    
C41   C102  S    
C46   C118  S    
C58   H32   S    
Cr8   O52   S    
C4    O24   A    
C41   C49   A    
C19   C35   S    
C3    O27   A    
C43   C104  S    
C9    C13   A    
Cr10  O38   S    
C52   C60   S    
C8    C115  S    
C93   C105  S    
C58   H34   S    
C109  H41   S    
Cr1   O21   S    
Cr7   O31   S    
C12   C16   A    
C61   C77   A    
Cr2   O18   S    
C55   H27   S    
Cr9   O37   S    
C45   O33   A    
Cr3   O19   S    
C76   C80   A    
Cr8   O28   S    
C23   C27   A    
C90   O2    A    
C110  H42   S    
C110  C114  S    
C74   C78   A    
C24   Br8   S    
Cr11  O35   S    
C109  C113  S    
Cr12  O40   S    
C83   Br3   S    
Cr10  O10   S    
C47   C119  S    
C32   C36   S    
C108  O16   A    
Cr11  O15   S    
C59   C60   S    
C5    H45   S    
C95   C107  S    
C35   H59   S    
C64   C80   A    
C102  O6    A    
C1    C12   S    
C1    O25   A    
C4    O28   A    
C92   O40   A    
C2    C11   S    
C86   H14   S    
C110  C117  S    
C39   C91   S    
C72   C88   S    
C44   C103  S    
C62   C78   A    
C109  C118  S    
C51   C59   S    
C107  O15   A    
Cr6   O6    S    
C88   H16   S    
C7    H47   S    
C30   C34   S    
C75   C95   A    
C51   C52   A    
C68   C84   S    
C57   H31   S    
C106  O42   A    
C10   C14   A    
C97   O49   A    
C37   C89   S    
C48   O32   A    
C62   C66   A    
C20   C36   S    
Cr3   O3    S    
Cr12  O16   S    
C6    C118  S    
Cr2   O22   S    
C91   O39   A    
C15   C31   S    
Cr2   O46   S    
C114  H22   S    
Cr3   O43   S    
C5    C117  S    
C103  O11   A    
C50   C58   S    
C7    C116  S    
C105  O41   A    
C101  O9    A    
Cr12  O12   S    
C6    C113  S    
C91   O3    A    
Cr2   O42   S    
Cr6   O18   S    
C69   C85   S    
C7    C119  S    
C76   C96   A    
C29   H19   S    
C23   Br7   S    
C38   C90   S    
Cr10  O14   S    
C44   C52   A    
C89   O1    A    
C63   C67   A    
Cr4   O20   S    
C11   C27   A    
C68   C72   A    
Cr5   O49   S    
Cr4   O44   S    
Cr8   O20   S    
Cr10  O34   S    
C10   C26   A    
C104  O8    A    
C85   H37   S    
Cr9   O9    S    
C17   C33   S    
Cr5   O29   S    
C116  H24   S    
C40   C92   S    
Cr11  O19   S    
C33   Br9   S    
C18   C34   S    
Cr1   O45   S    
C114  C118  S    
C19   C39   A    
C42   C50   A    
C71   C87   S    
C8    H48   S    
Cr1   O41   S    
C47   O31   A    
C64   C97   S    
C73   H1    S    
Cr2   O2    S    
C11   C15   A    
Cr4   O4    S    
Cr5   O25   S    
C86   H38   S    
C87   H39   S    
C31   C35   S    
Cr6   O30   S    
C61   C100  S    
C108  O44   A    
C17   C37   A    
C47   O35   A    
C92   O4    A    
C42   C101  S    
C64   C68   A    
C112  C116  S    
Cr3   O47   S    
Cr5   O17   S    
C102  O10   A    
Cr8   O8    S    
C24   C28   A    
C3    O23   A    
C90   O38   A    
C113  C117  S    
C45   C117  S    
C8    C120  S    
C21   C25   A    
C59   H29   S    
C94   C106  S    
C89   O37   A    
C30   H54   S    
C2    O26   A    
C99   O51   A    
C21   Br5   S    
Cr7   O7    S    
C29   H53   S    
C98   O50   A    
C45   O29   A    
C84   C88   S    
C36   Br12  S    
C85   H13   S    
C32   H18   S    
C27   H51   S    
C83   C87   S    
C104  O12   A    
C112  C119  S    
Cr3   O23   S    
C59   H35   S    
C26   H50   S    
C56   H28   S    
Cr4   O24   S    
C25   H49   S    
C16   C32   S    
C82   Br2   S    
Cr4   O48   S    
C115  C119  S    
C112  H44   S    
Cr9   O13   S    
C34   H58   S    
Cr11  O39   S    
Cr7   O27   S    
C46   O30   A    
C33   H57   S    
C18   C38   A    
C31   H55   S    
Cr1   O1    S    
C3    C10   S    
C80   H8    S    
C109  C110  S    
C78   H6    S    
C84   Br4   S    
C82   C86   S    
C62   C99   S    
C100  O52   A    
C44   C55   A    
C43   C51   A    
C57   C58   S    
C88   H40   S    
C75   H3    S    
C57   H33   S    
C81   Br1   S    
Cr10  O18   S    
C20   C40   A    
C74   H2    S    
C81   H9    S    
C24   C40   A    
C105  O13   A    
Cr6   O26   S    
C67   C71   A    
C111  C120  S    
C61   C65   A    
C6    H46   S    
C81   C85   S    
C41   C54   A    
C100  O48   A    
C2    O22   A    
Cr12  O20   S    
C101  O5    A    
C13   C17   A    
C72   C96   A    
C116  C120  S    
C43   C56   A    
C54   H26   S    
C21   C37   A    
C66   C70   A    
C46   O34   A    
C111  C115  S    
Cr11  O11   S    
C22   C26   A    
C99   O47   A    
C74   C94   A    
C34   Br10  S    
C73   C77   A    
C65   C81   S    
C96   C108  S    
C83   H11   S    
C60   H30   S    
C28   H52   S    
C12   C28   A    
C4    C9    S    
Cr7   O51   S    
C23   C39   A    
C14   C30   S    
C66   C82   S    
C113  H21   S    
C22   Br6   S    
C70   C86   S    
