data_mof_unit_4715.cif
_audit_creation_date              2012-12-10T18:47:47-0500
_audit_creation_method            fapswitch 2.2
_symmetry_space_group_name_H-M    P1
_symmetry_Int_Tables_number       1
_space_group_crystal_system       triclinic
_cell_length_a                    9.854193
_cell_length_b                    10.716517
_cell_length_c                    15.32514
_cell_angle_alpha                 90.041939
_cell_angle_beta                  68.7107
_cell_angle_gamma                 90.026878
_cell_volume                      1507.93514781

loop_
_atom_site_label
_atom_site_type_symbol
_atom_type_description
_atom_site_fract_x
_atom_site_fract_y
_atom_site_fract_z
_atom_type_partial_charge
C1    C     C_R   0.500048 0.740089 0.500019 0.884411
C2    C     C_R   0.390235 0.935952 0.480757 -0.159833
C3    C     C_R   0.499989 0.127426 0.499927 -0.022573
C4    C     C_R   0.500059 0.872532 0.499974 -0.024324
C5    C     C_R   0.946739 0.399579 0.467005 -0.080229
C6    C     C_R   0.053559 0.600703 0.532466 -0.011934
C7    C     C_R   0.090509 0.399683 0.466901 -0.061291
C8    C     C_R   0.910129 0.600892 0.531991 0.024917
C9    C     C_R   0.409725 0.503612 0.676386 0.873797
C10   C     C_R   0.590479 0.501589 0.323664 0.879782
C11   C     C_R   0.358215 0.535653 0.775917 -0.085043
C12   C     C_R   0.499961 0.259900 0.499960 0.867940
C13   C     C_R   0.646951 0.518287 0.222231 -0.087016
C14   C     C_R   0.193747 0.648659 0.909385 -0.195652
C15   C     C_R   0.845417 0.521181 0.072497 -0.183729
C16   C     C_R   0.225331 0.597037 0.820360 -0.193684
C17   C     C_R   0.795370 0.504134 0.169027 -0.176841
C18   C     C_R   0.458087 0.527294 0.820764 -0.161786
C19   C     C_R   0.550721 0.554835 0.178965 -0.166466
C20   C     C_R   0.436593 0.592349 0.903505 0.117532
C21   C     C_R   0.600614 0.582790 0.083576 0.116623
C22   C     C_R   0.298028 0.644629 0.952077 0.094624
C23   C     C_R   0.366926 0.680036 0.086573 0.376631
C24   C     C_R   0.748353 0.557264 0.029178 0.097376
C25   C     C_R   0.546577 0.598610 0.942089 -0.071322
C26   C     C_R   0.503801 0.620980 0.039286 -0.077691
C27   C     C_R   0.697493 0.585171 0.887965 0.383801
C28   C     C_R   0.267020 0.693122 0.041711 -0.261103
C29   C     C_R   0.796414 0.565739 0.932161 -0.266571
C30   C     C_R   0.609865 0.936147 0.519135 -0.170222
C31   C     C_R   0.390190 0.063801 0.480751 -0.176457
C32   C     C_R   0.609865 0.063990 0.519077 -0.185120
Cl1   Cl    Cl    0.325136 0.761642 0.193360 -0.649666
Cl2   Cl    Cl    0.773549 0.615766 0.766757 -0.693142
H1    H     H_    0.163834 0.739244 0.077755 0.186484
H2    H     H_    0.305245 0.112403 0.465189 0.154109
H3    H     H_    0.694832 0.112751 0.534596 0.158433
H4    H     H_    0.305321 0.887179 0.465181 0.170655
H5    H     H_    0.907595 0.319227 0.440432 0.132808
H6    H     H_    0.092717 0.681128 0.558950 0.136467
H7    H     H_    0.159704 0.319462 0.440158 0.129529
H8    H     H_    0.841375 0.681562 0.557941 0.150433
H9    H     H_    0.910437 0.553004 0.890262 0.172133
H10   H     H_    0.435481 0.555478 0.219567 0.201737
H11   H     H_    0.554383 0.470650 0.789477 0.194280
H12   H     H_    0.871648 0.476488 0.201531 0.164063
H13   H     H_    0.148544 0.608200 0.785268 0.177312
H14   H     H_    0.089708 0.694079 0.943823 0.152619
H15   H     H_    0.958971 0.503260 0.031655 0.149049
H16   H     H_    0.694785 0.887545 0.534729 0.158674
N1    N     N_R   0.142780 0.500030 0.500020 -0.085318
N2    N     N_R   0.857220 0.499970 0.499980 -0.085911
O1    O     O_R   0.385370 0.683250 0.500010 -0.626424
O2    O     O_R   0.614630 0.316750 0.499990 -0.631098
O3    O     O_R   0.614700 0.683220 0.500000 -0.627259
O4    O     O_R   0.385300 0.316780 0.500000 -0.628597
O5    O     O_R   0.319830 0.500020 0.632250 -0.606370
O6    O     O_R   0.680170 0.499980 0.367750 -0.611316
O7    O     O_R   0.549160 0.499990 0.632240 -0.582905
O8    O     O_R   0.450840 0.500010 0.367760 -0.605554
Zn1   Zn    Zn3+2 0.346870 0.500020 0.500000 0.971599
Zn2   Zn    Zn3+2 0.653130 0.499980 0.500000 0.974633

loop_
_geom_bond_atom_site_label_1
_geom_bond_atom_site_label_2
_ccdc_geom_bond_type
O6    Zn2   S    
C2    C4    A    
C21   C26   A    
C18   H11   S    
C11   C18   A    
O5    Zn1   S    
C6    N1    A    
C27   C29   A    
C11   C16   A    
C2    H4    S    
C10   O8    A    
N1    Zn1   S    
C13   C17   A    
C1    C4    S    
C1    O1    A    
C14   C22   A    
C15   H15   S    
C1    O3    A    
C17   H12   S    
C7    N1    A    
C5    N2    A    
C22   C28   A    
C23   C28   A    
C29   H9    S    
C3    C31   A    
C9    C11   S    
C12   O4    A    
C14   H14   S    
C16   H13   S    
C15   C24   A    
C10   O6    A    
C8    H8    S    
C18   C20   A    
C7    H7    S    
C27   Cl2   S    
C30   H16   S    
C3    C32   A    
C14   C16   A    
C21   C24   A    
C4    C30   A    
C25   C27   A    
C20   C25   A    
C13   C19   A    
C30   C32   A    
O3    Zn2   S    
C32   H3    S    
C24   C29   A    
C6    H6    S    
C19   H10   S    
C23   Cl1   S    
C9    O5    A    
C5    C7    A    
C23   C26   A    
C15   C17   A    
C5    H5    S    
C8    N2    A    
O4    Zn1   S    
C2    C31   A    
O7    Zn2   S    
C6    C8    A    
C3    C12   S    
O2    Zn2   S    
C19   C21   A    
C25   C26   A    
C31   H2    S    
O1    Zn1   S    
N2    Zn2   S    
C12   O2    A    
C28   H1    S    
C20   C22   A    
O8    Zn1   S    
C9    O7    A    
C10   C13   S    
