data_mof_unit_2255.cif
_audit_creation_date              2012-12-10T20:26:26-0500
_audit_creation_method            fapswitch 2.2
_symmetry_space_group_name_H-M    P1
_symmetry_Int_Tables_number       1
_space_group_crystal_system       triclinic
_cell_length_a                    10.688094
_cell_length_b                    10.6744
_cell_length_c                    9.859052
_cell_angle_alpha                 90.12871
_cell_angle_beta                  90.904865
_cell_angle_gamma                 90.106068
_cell_volume                      1124.66418175

loop_
_atom_site_label
_atom_site_type_symbol
_atom_type_description
_atom_site_fract_x
_atom_site_fract_y
_atom_site_fract_z
_atom_type_partial_charge
C1    C     C_R   0.496199 0.259889 0.499829 0.911130
C2    C     C_R   0.475631 0.128517 0.499468 -0.111204
C3    C     C_R   0.456837 0.064257 0.376620 -0.174527
C4    C     C_R   0.455896 0.934854 0.376897 -0.156670
C5    C     C_R   0.473767 0.871279 0.500074 -0.131612
C6    C     C_R   0.467154 0.936362 0.622485 0.217968
C7    C     C_3   0.548959 0.929372 0.747468 -0.248036
C8    C     C_3   0.552048 0.071806 0.745530 -0.561099
C9    C     C_R   0.427378 0.416668 0.069978 0.174039
C10   C     C_R   0.580009 0.574125 0.073535 -0.120141
C11   C     C_R   0.580174 0.573948 0.929522 -0.061725
C12   C     C_R   0.262567 0.504895 0.498570 1.020228
C13   C     C_R   0.427723 0.416275 0.927240 0.036958
C14   C     C_3   0.288614 0.404504 0.918323 -0.327415
C15   C     C_3   0.288240 0.406431 0.073671 0.105913
C16   C     C_R   0.495561 0.740092 0.500069 0.902788
C17   C     C_R   0.737522 0.506203 0.501269 0.936764
C18   C     C_2   0.930551 0.558668 0.394125 -0.238312
C19   C     C_2   0.868104 0.531624 0.506366 -0.318753
C20   C     C_2   0.064878 0.577225 0.401954 0.007024
C21   C     C_2   0.130026 0.508713 0.493669 -0.293929
C22   C     C_R   0.469320 0.064315 0.621906 0.113635
H1    H     H_    0.883145 0.567926 0.296264 0.168994
H2    H     H_    0.646191 0.110484 0.723226 0.214001
H3    H     H_    0.642598 0.636070 0.129119 0.133321
H4    H     H_    0.642912 0.635704 0.876335 0.122923
H5    H     H_    0.243269 0.488635 0.872863 0.194469
H6    H     H_    0.244055 0.491977 0.115800 0.146480
H7    H     H_    0.912213 0.535001 0.606379 0.162600
H8    H     H_    0.085240 0.443334 0.561633 0.176038
H9    H     H_    0.452526 0.112641 0.280232 0.207776
H10   H     H_    0.450877 0.885796 0.280624 0.193489
H11   H     H_    0.641550 0.885616 0.729063 0.132453
H12   H     H_    0.504559 0.117677 0.831974 0.200126
N1    N     N_R   0.499170 0.499140 0.142800 -0.113104
N2    N     N_R   0.499170 0.499180 0.857150 -0.088876
O1    O     O_R   0.500020 0.316790 0.614690 -0.621648
O2    O     O_R   0.500000 0.316760 0.385350 -0.603565
O3    O     O_R   0.319080 0.500020 0.614640 -0.612254
O4    O     O_R   0.319070 0.499980 0.385300 -0.574240
O5    O     O_R   0.500000 0.683240 0.614650 -0.608942
O6    O     O_R   0.499980 0.683210 0.385310 -0.612736
O7    O     O_R   0.680930 0.500020 0.614700 -0.630471
O8    O     O_R   0.680920 0.499980 0.385360 -0.619898
Zn1   Zn    Zn3+2 0.500010 0.500020 0.653130 0.984294
Zn2   Zn    Zn3+2 0.499990 0.499980 0.346870 0.997884
C23   C     C_2   0.249349 0.283344 0.851739 0.586607
H13   H     H_    0.293893 0.195770 0.880229 0.087046
O9    O     O_2   0.167049 0.282701 0.764576 -0.584604
Cl1   Cl    Cl    0.240153 0.265716 0.156675 -0.618091
C24   C     C_2   0.119508 0.670345 0.307586 0.437073
H14   H     H_    0.068255 0.695581 0.215770 0.055455
O10   O     O_2   0.217497 0.724606 0.334152 -0.563648
C25   C     C_2   0.484071 0.877618 0.869993 0.468556
H15   H     H_    0.527440 0.888976 0.969516 0.041483
O11   O     O_2   0.384331 0.822110 0.859345 -0.542012

loop_
_geom_bond_atom_site_label_1
_geom_bond_atom_site_label_2
_ccdc_geom_bond_type
C2    C22   A    
C8    C22   S    
C17   O7    A    
C12   O4    A    
C10   N1    A    
C14   H5    S    
C7    H11   S    
C21   H8    S    
C6    C7    S    
C23   H13   S    
C11   H4    S    
C1    O1    A    
O3    Zn1   S    
C12   O3    A    
C2    C3    A    
C9    C15   S    
C17   O8    A    
N2    Zn1   S    
C23   O9    D    
C19   H7    S    
C8    H12   S    
C13   C14   S    
C3    H9    S    
O7    Zn1   S    
C15   H6    S    
C4    H10   S    
C1    O2    A    
C16   O5    A    
C10   H3    S    
C11   N2    A    
C17   C19   S    
O8    Zn2   S    
C1    C2    S    
C20   C24   S    
C18   C20   S    
C5    C6    A    
C25   O11   D    
O2    Zn2   S    
C10   C11   A    
O4    Zn2   S    
O1    Zn1   S    
C18   H1    S    
C6    C22   A    
C16   O6    A    
C7    C8    S    
C24   H14   S    
C20   C21   D    
C13   N2    A    
C18   C19   D    
O6    Zn2   S    
C15   Cl1   S    
C9    N1    A    
C9    C13   A    
C14   C15   S    
C5    C16   S    
O5    Zn1   S    
C7    C25   S    
C8    H2    S    
C25   H15   S    
C14   C23   S    
C12   C21   S    
C3    C4    A    
C4    C5    A    
C24   O10   D    
N1    Zn2   S    
