data_mof_unit_963.cif
_audit_creation_date              2012-12-11T15:48:34-0500
_audit_creation_method            fapswitch 2.2
_symmetry_space_group_name_H-M    P1
_symmetry_Int_Tables_number       1
_space_group_crystal_system       triclinic
_cell_length_a                    10.990182
_cell_length_b                    11.001721
_cell_length_c                    18.758512
_cell_angle_alpha                 89.992811
_cell_angle_beta                  90.100253
_cell_angle_gamma                 60.167479
_cell_volume                      1967.54210489

loop_
_atom_site_label
_atom_site_type_symbol
_atom_type_description
_atom_site_fract_x
_atom_site_fract_y
_atom_site_fract_z
_atom_type_partial_charge
C1    C     C_R   0.241249 0.644657 0.610655 0.535960
C2    C     C_3   0.651518 0.568063 0.800465 -0.250297
C3    C     C_3   0.701807 0.674457 0.811346 0.042908
C4    C     C_3   0.671797 0.648168 0.675435 0.054539
C5    C     C_3   0.825069 0.608789 0.691178 -0.244516
C6    C     C_3   0.633580 0.552795 0.720390 -0.213883
C7    C     C_R   0.682234 0.152537 0.822086 0.009038
C8    C     C_R   0.779470 0.173988 0.784487 -0.020692
C9    C     C_R   0.774274 0.182235 0.710176 0.006205
C10   C     C_R   0.581154 0.137821 0.709400 -0.184274
C11   C     C_R   0.575818 0.146755 0.782536 -0.172876
C12   C     C_R   0.654726 0.622779 0.600207 0.534404
C13   C     C_3   0.934695 0.091303 0.786181 -0.244799
C14   C     C_3   0.930491 0.098575 0.705504 -0.269898
C15   C     C_R   0.676101 0.161940 0.671688 0.009026
C16   C     C_R   0.183945 0.668378 0.835921 0.032549
C17   C     C_R   0.161764 0.573828 0.795934 -0.037605
C18   C     C_R   0.171980 0.569307 0.721913 -0.046613
C19   C     C_R   0.221096 0.759558 0.725647 -0.148695
C20   C     C_R   0.219492 0.759156 0.800015 0.054617
C21   C     C_3   0.243172 0.418352 0.802108 -0.234173
C22   C     C_3   0.256920 0.413503 0.721452 -0.081539
C23   C     C_R   0.630503 0.225162 0.601638 0.536144
C24   C     C_R   0.200080 0.663103 0.685562 -0.027658
C25   C     C_R   0.718440 0.714373 0.183067 0.023850
C26   C     C_R   0.813955 0.594638 0.219428 -0.006912
C27   C     C_R   0.798506 0.575551 0.290363 0.001950
C28   C     C_R   0.601924 0.807805 0.297689 -0.147537
C29   C     C_R   0.619014 0.827071 0.224362 -0.116804
C30   C     C_3   0.863759 0.445532 0.201795 -0.228765
C31   C     C_3   0.849177 0.423395 0.279882 -0.216046
C32   C     C_R   0.683055 0.674500 0.328826 0.008108
C33   C     C_R   0.660823 0.153671 0.177536 -0.033298
C34   C     C_R   0.224917 0.648337 0.400219 0.545256
C35   C     C_R   0.553593 0.150525 0.214498 -0.013778
C36   C     C_R   0.549024 0.151572 0.287334 0.061997
C37   C     C_R   0.771678 0.143474 0.292146 -0.140658
C38   C     C_R   0.775377 0.146604 0.217448 -0.003009
C39   C     C_3   0.399467 0.239060 0.205202 -0.229930
C40   C     C_3   0.391985 0.241809 0.285902 -0.031090
C41   C     C_R   0.652026 0.160946 0.326954 -0.028025
C42   C     C_R   0.164903 0.653545 0.178697 0.000314
C43   C     C_R   0.249166 0.700913 0.208259 0.033199
C44   C     C_R   0.260140 0.704458 0.280743 0.011330
C45   C     C_R   0.646015 0.626441 0.394277 0.537396
C46   C     C_R   0.129734 0.584369 0.296272 -0.177905
C47   C     C_R   0.120838 0.578764 0.222233 -0.169840
C48   C     C_3   0.252631 0.833432 0.198256 -0.035318
C49   C     C_3   0.261738 0.839164 0.278865 -0.176980
C50   C     C_R   0.190228 0.658605 0.325935 0.011548
C51   C     C_R   0.701906 0.100203 0.895326 0.539569
C52   C     C_R   0.724466 0.688823 0.887780 0.546486
C53   C     C_R   0.119338 0.706061 0.906325 0.551390
C54   C     C_R   0.676303 0.107537 0.103977 0.526482
C55   C     C_R   0.733909 0.718372 0.105255 0.573876
C56   C     C_R   0.617318 0.227405 0.395888 0.539856
C57   C     C_R   0.095886 0.706841 0.111466 0.540197
C58   C     C_3   0.594122 0.817527 0.777868 -0.229858
C59   C     C_3   0.574215 0.802035 0.697912 -0.236002
C60   C     C_3   0.842920 0.623150 0.771211 -0.216963
Cr1   Cr    Cr6+3 0.392960 0.397920 0.502240 0.995332
Cr2   Cr    Cr6+3 0.398340 0.708480 0.501250 1.010444
Cr3   Cr    Cr6+3 0.708670 0.393570 0.496460 1.009440
Cr4   Cr    Cr6+3 0.937650 0.938540 0.007610 1.010321
Cr5   Cr    Cr6+3 0.625330 0.937370 0.994520 1.001400
Cr6   Cr    Cr6+3 0.937940 0.625230 0.001190 0.998561
H1    H     H_    0.635159 0.890321 0.784486 0.143710
H2    H     H_    0.702986 0.442192 0.705030 0.149559
H3    H     H_    0.924544 0.519665 0.792140 0.161180
H4    H     H_    0.897771 0.498779 0.675043 0.158276
H5    H     H_    0.500703 0.125497 0.682393 0.158690
H6    H     H_    0.493926 0.134250 0.807515 0.160001
H7    H     H_    0.971135 0.984747 0.807332 0.192682
H8    H     H_    0.981917 0.149912 0.811081 0.166936
H9    H     H_    0.975784 0.161228 0.683511 0.182936
H10   H     H_    0.967446 0.995438 0.679338 0.141446
H11   H     H_    0.246410 0.831747 0.699420 0.146283
H12   H     H_    0.491941 0.863285 0.805670 0.127813
H13   H     H_    0.177900 0.375945 0.824031 0.175854
H14   H     H_    0.343864 0.382701 0.830758 0.119262
H15   H     H_    0.363924 0.379753 0.702082 0.147389
H16   H     H_    0.518940 0.891979 0.327706 0.150999
H17   H     H_    0.547599 0.924490 0.198872 0.154178
H18   H     H_    0.973909 0.388202 0.182752 0.157114
H19   H     H_    0.786859 0.434352 0.167835 0.151498
H20   H     H_    0.766118 0.396223 0.290277 0.165348
H21   H     H_    0.462540 0.834146 0.687813 0.144364
H22   H     H_    0.951018 0.356320 0.307138 0.157870
H23   H     H_    0.854029 0.145641 0.323042 0.172024
H24   H     H_    0.352498 0.181154 0.179175 0.165075
H25   H     H_    0.370092 0.342240 0.181011 0.120180
H26   H     H_    0.353974 0.346502 0.309727 0.172733
H27   H     H_    0.089717 0.532007 0.329796 0.127201
H28   H     H_    0.070414 0.525946 0.199277 0.141823
H29   H     H_    0.157223 0.920252 0.174929 0.222546
H30   H     H_    0.599048 0.872371 0.666272 0.116969
H31   H     H_    0.361530 0.825332 0.299286 0.173025
H32   H     H_    0.166618 0.926614 0.303634 0.164292
H33   H     H_    0.880180 0.699420 0.779529 0.125184
H34   H     H_    0.853633 0.677525 0.660453 0.110311
H35   H     H_    0.729178 0.464550 0.823240 0.134859
H36   H     H_    0.550365 0.603185 0.828361 0.111408
H37   H     H_    0.523777 0.578468 0.709376 0.124922
O1    O     O_R   0.507380 0.255700 0.581440 -0.534976
O2    O     O_R   0.524480 0.695810 0.424040 -0.507692
O3    O     O_R   0.736390 0.504290 0.414790 -0.522985
O4    O     O_R   0.691300 0.277290 0.422170 -0.511064
O5    O     O_3   0.499990 0.499990 0.499980 -0.247781
O6    O     O_R   0.089400 0.825690 0.930570 -0.483283
O7    O     O_R   0.818460 0.054440 0.929850 -0.497999
O8    O     O_R   0.606060 0.077150 0.915510 -0.533590
O9    O     O_R   0.646550 0.806680 0.917570 -0.506934
O10   O     O_R   0.837170 0.593410 0.915250 -0.522428
O11   O     O_R   0.065200 0.635530 0.931570 -0.512107
O12   O     O_R   0.280320 0.527350 0.578930 -0.515290
O13   O     O_R   0.068260 0.828890 0.091840 -0.532260
O14   O     O_R   0.798870 0.057410 0.079340 -0.523431
O15   O     O_R   0.584930 0.080350 0.076780 -0.523040
O16   O     O_R   0.626960 0.809650 0.067060 -0.503334
O17   O     O_R   0.816040 0.596610 0.076510 -0.525578
O18   O     O_R   0.045610 0.638500 0.081060 -0.526170
O19   O     O_3   0.833640 0.833710 0.001100 -0.273237
O20   O     O_R   0.260510 0.739590 0.584590 -0.526408
O21   O     O_R   0.532300 0.695080 0.573820 -0.509992
O22   O     O_R   0.744840 0.503500 0.576370 -0.528390
O23   O     O_R   0.699120 0.276560 0.571960 -0.497793
O24   O     O_R   0.498940 0.256500 0.419860 -0.528180
O25   O     O_R   0.272500 0.528080 0.429150 -0.511877
O26   O     O_R   0.252060 0.740380 0.423010 -0.519885
N1    N     N_3   0.246666 0.855879 0.838943 -0.610512
H38   H     H_    0.259911 0.922949 0.804426 0.227406
H39   H     H_    0.339928 0.797856 0.867422 0.227324
C61   C     C_2   0.185802 0.346230 0.682715 0.204641
H40   H     H_    0.146471 0.380149 0.629057 0.123675
O27   O     O_2   0.175917 0.250527 0.709724 -0.565560
C62   C     C_2   0.892959 0.156138 0.184201 0.202994
H41   H     H_    0.888797 0.187628 0.129161 0.136571
O28   O     O_2   0.993816 0.137898 0.219711 -0.600932
N2    N     N_3   0.322299 0.167798 0.313068 -0.641917
H42   H     H_    0.215160 0.230048 0.302357 0.235447
H43   H     H_    0.332742 0.162306 0.368539 0.247611
N3    N     N_3   0.379789 0.808651 0.161822 -0.620514
H44   H     H_    0.383896 0.761781 0.112696 0.249176
H45   H     H_    0.366583 0.907113 0.149430 0.236901

loop_
_geom_bond_atom_site_label_1
_geom_bond_atom_site_label_2
_ccdc_geom_bond_type
C44   C49   S    
C8    C13   S    
Cr4   O13   S    
Cr6   O10   S    
C32   C45   S    
N1    H39   S    
C35   C36   A    
C9    C14   S    
C60   H33   S    
Cr2   O21   S    
C7    C8    A    
C56   O4    A    
Cr2   O2    S    
C55   O16   A    
C52   O10   A    
C53   O11   A    
C7    C11   A    
C26   C27   A    
C5    H4    S    
C18   C24   A    
C28   C29   A    
C48   H29   S    
C29   H17   S    
C10   C15   A    
C30   C31   S    
C3    C52   S    
Cr2   O5    S    
C2    H36   S    
C53   O6    A    
C40   N2    S    
C4    C59   S    
C56   O24   A    
C19   H11   S    
Cr1   O5    S    
C16   C53   S    
Cr5   O8    S    
C49   H32   S    
C19   C20   A    
C34   O26   A    
C16   C17   A    
Cr1   O12   S    
Cr5   O15   S    
Cr6   O19   S    
C38   C62   S    
C4    C12   S    
C43   C48   S    
C39   H24   S    
C3    C60   S    
C15   C23   S    
C31   H20   S    
Cr6   O17   S    
C21   C22   S    
C37   C41   A    
Cr2   O26   S    
C36   C41   A    
C2    C6    S    
C42   C57   S    
C39   H25   S    
Cr2   O20   S    
C45   O2    A    
C57   O13   A    
C55   O17   A    
C25   C29   A    
C34   C50   S    
C22   C61   S    
C27   C31   S    
C22   H15   S    
C28   C32   A    
Cr1   O1    S    
C4    C6    S    
C39   C40   S    
C11   H6    S    
C8    C9    A    
C12   O22   A    
C2    H35   S    
C25   C26   A    
C6    H37   S    
C28   H16   S    
C17   C21   S    
Cr4   O14   S    
Cr3   O3    S    
C14   H10   S    
C35   C39   S    
C43   C44   A    
C1    O20   A    
C41   C56   S    
C37   C38   A    
Cr4   O7    S    
C23   O1    A    
C12   O21   A    
C5    H34   S    
C36   C40   S    
C16   C20   A    
C21   H13   S    
C17   C18   A    
Cr5   O16   S    
Cr6   O18   S    
C48   N3    S    
Cr1   O24   S    
Cr5   O19   S    
C40   H26   S    
C30   H19   S    
Cr3   O22   S    
C23   O23   A    
C62   O28   D    
C48   C49   S    
C13   H7    S    
C26   C30   S    
C51   O7    A    
C54   O15   A    
C61   H40   S    
N3    H45   S    
C42   C43   A    
Cr5   O9    S    
Cr3   O4    S    
C45   O3    A    
C44   C50   A    
C33   C54   S    
C46   C47   A    
C51   O8    A    
C31   H22   S    
Cr6   O11   S    
C5    C60   S    
C27   C32   A    
C18   C22   S    
C19   C24   A    
C25   C55   S    
C20   N1    S    
C4    C5    S    
N2    H42   S    
C46   C50   A    
C33   C38   A    
C37   H23   S    
C14   H9    S    
C2    C3    S    
C58   C59   S    
C7    C51   S    
C10   H5    S    
N2    H43   S    
Cr4   O6    S    
C46   H27   S    
C60   H3    S    
Cr4   O19   S    
C21   H14   S    
C6    H2    S    
C33   C35   A    
C47   H28   S    
N1    H38   S    
Cr1   O25   S    
C42   C47   A    
C30   H18   S    
C59   H21   S    
Cr3   O23   S    
C10   C11   A    
C58   H12   S    
C57   O18   A    
C3    C58   S    
C58   H1    S    
C13   H8    S    
C1    C24   S    
C34   O25   A    
C59   H30   S    
C54   O14   A    
C61   O27   D    
C52   O9    A    
N3    H44   S    
C62   H41   S    
C1    O12   A    
Cr3   O5    S    
C13   C14   S    
C9    C15   A    
C49   H31   S    
