data_mof_unit_2324.cif
_audit_creation_date              2012-12-10T17:33:03-0500
_audit_creation_method            fapswitch 2.2
_symmetry_space_group_name_H-M    P1
_symmetry_Int_Tables_number       1
_space_group_crystal_system       triclinic
_cell_length_a                    12.454867
_cell_length_b                    13.265878
_cell_length_c                    14.26076
_cell_angle_alpha                 94.383118
_cell_angle_beta                  108.371222
_cell_angle_gamma                 117.45282
_cell_volume                      1914.32477901

loop_
_atom_site_label
_atom_site_type_symbol
_atom_type_description
_atom_site_fract_x
_atom_site_fract_y
_atom_site_fract_z
_atom_type_partial_charge
C1    C     C_R   0.648839 0.713671 0.505888 0.916092
C2    C     C_R   0.852844 0.508180 0.926586 -0.091552
C3    C     C_R   0.804263 0.522778 0.000679 -0.283997
C4    C     C_R   0.978212 0.518771 0.958944 -0.029125
C5    C     C_R   0.036196 0.510769 0.058490 -0.137410
C6    C     C_R   0.985439 0.523601 0.131545 0.602325
C7    C     C_R   0.872163 0.531131 0.103148 0.637708
C8    C     C_R   0.053240 0.550056 0.898540 -0.123977
C9    C     C_R   0.178292 0.564424 0.932473 0.642718
C10   C     C_R   0.228004 0.540075 0.024770 -0.057459
C11   C     C_R   0.151774 0.503833 0.084554 -0.004352
C12   C     C_R   0.611666 0.507500 0.685943 0.914958
C13   C     C_R   0.352556 0.551189 0.058625 -0.049191
C14   C     C_R   0.401786 0.527922 0.151124 -0.152596
C15   C     C_R   0.193604 0.460805 0.167329 0.338651
C16   C     C_R   0.129573 0.960517 0.352347 0.317159
C17   C     C_R   0.244358 0.159934 0.458281 -0.097193
C18   C     C_R   0.724818 0.924948 0.560463 -0.223061
C19   C     C_R   0.813172 0.043002 0.575254 0.695809
C20   C     C_R   0.912621 0.075270 0.539175 -0.188980
C21   C     C_R   0.921731 0.989093 0.482621 -0.024743
C22   C     C_R   0.819889 0.869608 0.455122 -0.029946
C23   C     C_R   0.344379 0.284686 0.483800 0.806309
C24   C     C_R   0.028095 0.018184 0.451581 0.099537
C25   C     C_R   0.022629 0.931804 0.381736 -0.015494
C26   C     C_R   0.910348 0.819303 0.342673 -0.179055
C27   C     C_R   0.810270 0.788553 0.377882 0.609894
C28   C     C_R   0.142299 0.129938 0.491608 -0.091122
C29   C     C_R   0.239021 0.074582 0.390170 -0.172608
C30   C     C_R   0.729635 0.836782 0.504073 -0.164254
C31   C     C_R   0.262845 0.722309 0.614579 -0.196026
C32   C     C_R   0.646869 0.329049 0.372855 -0.060298
C33   C     C_R   0.717371 0.291000 0.338102 0.495762
C34   C     C_R   0.381556 0.482935 0.313106 0.845524
C35   C     C_R   0.854210 0.358534 0.376785 0.673922
C36   C     C_R   0.924603 0.465191 0.454634 -0.212601
C37   C     C_R   0.847423 0.505367 0.484495 0.111380
C38   C     C_R   0.067693 0.535271 0.503361 -0.078308
C39   C     C_R   0.126716 0.654188 0.556826 -0.067677
C40   C     C_R   0.048418 0.700791 0.561873 0.238539
C41   C     C_R   0.919090 0.623637 0.549140 0.276555
C42   C     C_R   0.156484 0.494257 0.505176 0.838263
C43   C     C_R   0.342275 0.675991 0.617506 0.387921
C44   C     C_R   0.669078 0.503288 0.793314 -0.271487
C45   C     C_R   0.323641 0.485774 0.207314 -0.176677
C46   C     C_R   0.688425 0.527775 0.970517 0.686972
C47   C     C_R   0.622964 0.521573 0.868537 0.153857
C48   C     C_R   0.773119 0.479982 0.822219 0.254002
Cu1   Cu    Cu3+1 0.416420 0.526630 0.522910 1.105261
Cu2   Cu    Cu3+1 0.583580 0.473370 0.477090 1.062445
H1    H     H_    0.414181 0.582409 0.016051 0.257936
H2    H     H_    0.317722 0.097363 0.363637 0.185026
H3    H     H_    0.898597 0.753436 0.284533 0.259812
H4    H     H_    0.154859 0.196031 0.549743 0.174400
H5    H     H_    0.653766 0.902898 0.594863 0.216957
H6    H     H_    0.978168 0.168502 0.553607 0.186549
H7    H     H_    0.308681 0.809731 0.663080 0.236243
H8    H     H_    0.540491 0.276298 0.340633 0.179352
H9    H     H_    0.500793 0.543303 0.178634 0.274984
H10   H     H_    0.019143 0.571047 0.827367 0.214624
N1    N     N_R   0.290690 0.566960 0.557640 -0.274805
N2    N     N_R   0.709100 0.433710 0.442970 -0.205408
O1    O     O_R   0.545970 0.684450 0.528810 -0.583542
O2    O     O_R   0.687130 0.639470 0.490120 -0.514708
O3    O     O_R   0.519670 0.535100 0.660030 -0.525895
O4    O     O_R   0.660830 0.490120 0.621340 -0.518145
O5    O     O_R   0.312870 0.360530 0.509880 -0.520158
O6    O     O_R   0.454030 0.315550 0.471190 -0.598946
O7    O     O_R   0.339170 0.509880 0.378660 -0.531621
O8    O     O_R   0.480330 0.464900 0.339970 -0.554346
F1    F     F_    0.829348 0.546086 0.176772 -0.577511
Br1   Br    Br    0.131956 0.848991 0.259850 -0.420081
F2    F     F_    0.805672 0.126979 0.628593 -0.601746
F3    F     F_    0.699269 0.682375 0.328579 -0.659065
Br2   Br    Br    0.521834 0.767001 0.713758 -0.348400
Br3   Br    Br    0.067055 0.333778 0.201576 -0.251682
Br4   Br    Br    0.126188 0.869623 0.612053 -0.450556
F4    F     F_    0.111005 0.380540 0.462807 -0.598003
F5    F     F_    0.912951 0.324225 0.327552 -0.515375
F6    F     F_    0.651945 0.189351 0.263240 -0.574271
Br5   Br    Br    0.900881 0.676623 0.669578 -0.426567
F7    F     F_    0.249234 0.599890 0.873811 -0.615585
F8    F     F_    0.639175 0.540565 0.040224 -0.588094
Br6   Br    Br    0.461599 0.523005 0.837100 -0.315863
Br7   Br    Br    0.775570 0.369558 0.725952 -0.358967
F9    F     F_    0.053952 0.544513 0.233127 -0.588916

loop_
_geom_bond_atom_site_label_1
_geom_bond_atom_site_label_2
_ccdc_geom_bond_type
C1    O2    A    
Cu1   O1    S    
Cu2   O2    S    
C35   C36   A    
C16   Br1   S    
C32   H8    S    
C20   H6    S    
C37   N2    A    
C14   H9    S    
C26   C27   A    
C17   C23   S    
C31   C43   A    
C36   C37   A    
C38   C42   A    
C3    C7    A    
C7    F1    S    
C38   C39   A    
C17   C29   A    
C18   C19   A    
C23   O5    A    
C13   H1    S    
C11   C15   A    
C19   C20   A    
C8    C9    A    
C18   C30   A    
C27   F3    S    
C22   C30   A    
C9    C10   A    
C34   O8    A    
C44   C47   A    
C4    C8    A    
C9    F7    S    
C15   Br3   S    
Cu1   O7    S    
C21   C22   A    
C1    O1    A    
C14   C45   A    
C43   Br2   S    
Cu1   N1    S    
C19   F2    S    
C24   C25   A    
C39   C40   A    
C28   H4    S    
C2    C48   A    
C25   C26   A    
C12   O4    A    
C23   O6    A    
C2    C4    A    
C34   O7    A    
C41   Br5   S    
C34   C45   S    
C47   Br6   S    
Cu2   O4    S    
C42   N1    A    
Cu1   O3    S    
C18   H5    S    
C40   C41   A    
C42   F4    S    
C22   C27   A    
Cu2   N2    S    
C15   C45   A    
C26   H3    S    
C43   N1    A    
C16   C25   A    
C46   C47   A    
Cu1   O5    S    
C48   Br7   S    
C17   C28   A    
C24   C28   A    
C4    C5    A    
C10   C13   A    
C33   F6    S    
C5    C11   A    
C6    C7    A    
C12   O3    A    
C3    C46   A    
C6    F9    S    
C32   C33   A    
C31   H7    S    
C36   C38   A    
C2    C3    A    
Cu2   O8    S    
C32   N2    A    
C12   C44   S    
C8    H10   S    
C5    C6    A    
C35   F5    S    
C1    C30   S    
C33   C35   A    
C31   C39   A    
C37   C41   A    
C10   C11   A    
C46   F8    S    
C20   C21   A    
C16   C29   A    
Cu1   Cu2   S    
C21   C24   A    
C40   Br4   S    
C13   C14   A    
Cu2   O6    S    
C44   C48   A    
C29   H2    S    
