data_mof_unit_3474.cif
_audit_creation_date              2012-12-10T17:31:18-0500
_audit_creation_method            fapswitch 2.2
_symmetry_space_group_name_H-M    P1
_symmetry_Int_Tables_number       1
_space_group_crystal_system       triclinic
_cell_length_a                    18.753662
_cell_length_b                    18.622896
_cell_length_c                    12.416731
_cell_angle_alpha                 90.68746
_cell_angle_beta                  130.425679
_cell_angle_gamma                 89.427091
_cell_volume                      3300.90855271

loop_
_atom_site_label
_atom_site_type_symbol
_atom_type_description
_atom_site_fract_x
_atom_site_fract_y
_atom_site_fract_z
_atom_type_partial_charge
C1    C     C_R   0.611203 0.896366 0.650714 0.796541
C2    C     C_R   0.607256 0.105641 0.646633 0.808064
C3    C     C_R   0.111204 0.396366 0.650714 0.796540
C4    C     C_R   0.107256 0.605641 0.646634 0.808065
C5    C     C_R   0.225818 0.782619 0.023672 0.039867
C6    C     C_R   0.254734 0.242537 0.065020 0.037851
C7    C     C_R   0.725818 0.282618 0.023674 0.039859
C8    C     C_R   0.754734 0.742537 0.065019 0.037850
C9    C     C_R   0.660670 0.259632 0.038348 0.147952
C10   C     C_R   0.675521 0.752223 0.055030 0.145170
C11   C     C_R   0.160671 0.759632 0.038349 0.147953
C12   C     C_R   0.175521 0.252222 0.055028 0.145171
C13   C     C_R   0.584688 0.216786 0.932093 0.092610
C14   C     C_R   0.594684 0.784509 0.934207 0.125546
C15   C     C_R   0.084688 0.716786 0.932094 0.092611
C16   C     C_R   0.094683 0.284508 0.934204 0.125546
C17   C     C_R   0.577649 0.194865 0.817328 -0.209298
C18   C     C_R   0.593357 0.803663 0.824419 -0.213282
C19   C     C_R   0.077649 0.694865 0.817327 -0.209298
C20   C     C_R   0.093357 0.303662 0.824417 -0.213284
C21   C     C_R   0.306313 0.818630 0.137278 -0.229061
C22   C     C_R   0.320375 0.190404 0.157597 -0.233988
C23   C     C_R   0.806313 0.318628 0.137281 -0.229052
C24   C     C_R   0.820373 0.690402 0.157594 -0.233986
C25   C     C_R   0.245558 0.826947 0.258784 -0.215940
C26   C     C_R   0.248276 0.177485 0.261807 -0.229382
C27   C     C_R   0.745556 0.326949 0.258782 -0.215941
C28   C     C_R   0.748278 0.677486 0.261810 -0.229383
C29   C     C_R   0.654756 0.176488 0.712560 -0.188839
C30   C     C_R   0.678156 0.837148 0.741301 -0.178109
C31   C     C_R   0.154756 0.676488 0.712560 -0.188838
C32   C     C_R   0.178158 0.337149 0.741303 -0.178109
C33   C     C_R   0.686560 0.974169 0.295718 -0.288587
C34   C     C_R   0.186560 0.474170 0.295718 -0.288586
C35   C     C_R   0.342385 0.014328 0.624381 0.036949
C36   C     C_R   0.842386 0.514329 0.624381 0.036947
C37   C     C_R   0.308157 0.029387 0.694501 0.102363
C38   C     C_R   0.808158 0.529388 0.694502 0.102364
C39   C     C_R   0.384988 0.100248 0.344378 0.789208
C40   C     C_R   0.385043 0.899712 0.343816 0.790486
C41   C     C_R   0.884988 0.600248 0.344378 0.789208
C42   C     C_R   0.885043 0.399712 0.343816 0.790486
C43   C     C_R   0.369692 0.025075 0.842336 -0.289007
C44   C     C_R   0.869693 0.525076 0.842337 -0.289006
C45   C     C_R   0.464183 0.004985 0.921721 -0.076980
C46   C     C_R   0.964183 0.504986 0.921721 -0.076984
C47   C     C_R   0.498293 0.996523 0.846785 0.252325
C48   C     C_R   0.998294 0.496523 0.846785 0.252325
C49   C     C_R   0.526932 0.997335 0.073907 -0.019085
C50   C     C_R   0.026932 0.497336 0.073907 -0.019085
C51   C     C_R   0.621774 0.979599 0.148150 0.150746
C52   C     C_R   0.121775 0.479600 0.148150 0.150745
C53   C     C_R   0.654433 0.971710 0.077270 -0.308577
C54   C     C_R   0.154433 0.471710 0.077270 -0.308579
C55   C     C_R   0.598679 0.986396 0.934229 0.187219
C56   C     C_R   0.098679 0.486396 0.934229 0.187219
C57   C     C_R   0.500839 0.005821 0.158011 0.011476
C58   C     C_R   0.000838 0.505821 0.158011 0.011477
C59   C     C_R   0.657352 0.985994 0.371368 0.058442
C60   C     C_R   0.157352 0.485994 0.371368 0.058442
C61   C     C_R   0.671942 0.281806 0.157428 -0.195220
C62   C     C_R   0.676237 0.723433 0.160091 -0.180757
C63   C     C_R   0.171945 0.781804 0.157431 -0.195217
C64   C     C_R   0.176235 0.223431 0.160088 -0.180754
C65   C     C_R   0.312813 0.846164 0.248190 -0.056099
C66   C     C_R   0.317791 0.157677 0.255671 -0.047565
C67   C     C_R   0.812812 0.346165 0.248190 -0.056093
C68   C     C_R   0.817791 0.657677 0.255670 -0.047564
C69   C     C_R   0.707936 0.210901 0.682000 0.110611
C70   C     C_R   0.756641 0.823205 0.750986 0.123506
C71   C     C_R   0.207938 0.710900 0.682001 0.110612
C72   C     C_R   0.256644 0.323208 0.750990 0.123508
C73   C     C_R   0.251155 0.776727 0.748838 -0.176842
C74   C     C_R   0.341650 0.306036 0.883790 -0.185304
C75   C     C_R   0.751155 0.276727 0.748838 -0.176835
C76   C     C_R   0.841648 0.806033 0.883785 -0.185303
C77   C     C_R   0.250333 0.806515 0.851854 0.121883
C78   C     C_R   0.346084 0.289859 0.997889 0.123804
C79   C     C_R   0.750334 0.306514 0.851857 0.121889
C80   C     C_R   0.846083 0.789857 0.997885 0.123808
C81   C     C_R   0.711332 0.266160 0.898909 0.062595
C82   C     C_R   0.760305 0.778158 0.970310 0.049819
C83   C     C_R   0.211330 0.766161 0.898907 0.062602
C84   C     C_R   0.260306 0.278159 0.970312 0.049822
C85   C     C_R   0.648081 0.210909 0.809765 -0.009289
C86   C     C_R   0.676512 0.806010 0.843910 -0.011792
C87   C     C_R   0.148080 0.710909 0.809764 -0.009294
C88   C     C_R   0.176513 0.306010 0.843911 -0.011792
Cu1   Cu    Cu3+1 0.526340 0.000000 0.421010 0.914209
Cu2   Cu    Cu3+1 0.026340 0.500000 0.421010 0.914209
Cu3   Cu    Cu3+1 0.473640 1.000000 0.578990 0.926767
Cu4   Cu    Cu3+1 0.973640 0.500000 0.578990 0.926767
H1    H     H_    0.249536 0.846990 0.344743 0.155622
H2    H     H_    0.245819 0.153615 0.338399 0.150732
H3    H     H_    0.749533 0.346993 0.344739 0.155623
H4    H     H_    0.745822 0.653617 0.338403 0.150732
H5    H     H_    0.728692 0.961572 0.137440 0.145088
H6    H     H_    0.228692 0.461572 0.137440 0.145089
H7    H     H_    0.759709 0.961743 0.352405 0.136172
H8    H     H_    0.259709 0.461744 0.352405 0.136172
H9    H     H_    0.429321 0.015470 0.111755 0.123444
H10   H     H_    0.929321 0.515469 0.111755 0.123442
H11   H     H_    0.297112 0.017143 0.510637 0.149239
H12   H     H_    0.797113 0.517144 0.510638 0.149240
H13   H     H_    0.341573 0.037838 0.893296 0.147151
H14   H     H_    0.841574 0.537840 0.893297 0.147151
H15   H     H_    0.622842 0.266146 0.170973 0.151188
H16   H     H_    0.619065 0.733120 0.159767 0.166280
H17   H     H_    0.122845 0.766142 0.170977 0.151187
H18   H     H_    0.119062 0.233117 0.159761 0.166281
H19   H     H_    0.364814 0.824990 0.140691 0.155317
H20   H     H_    0.368580 0.170391 0.144694 0.153227
H21   H     H_    0.864816 0.324986 0.140696 0.155311
H22   H     H_    0.868577 0.670388 0.144689 0.153226
H23   H     H_    0.284559 0.807151 0.718957 0.152500
H24   H     H_    0.405647 0.308559 0.899920 0.173530
H25   H     H_    0.784559 0.307151 0.718958 0.152499
H26   H     H_    0.905644 0.808555 0.899913 0.173532
H27   H     H_    0.513407 0.168753 0.731000 0.185044
H28   H     H_    0.526168 0.816678 0.723579 0.166533
H29   H     H_    0.013407 0.668753 0.731000 0.185043
H30   H     H_    0.026169 0.316677 0.723577 0.166533
H31   H     H_    0.706528 0.982109 0.485355 0.115520
H32   H     H_    0.206528 0.482110 0.485355 0.115519
N1    N     N_R   0.566260 0.000000 0.302220 -0.180568
N2    N     N_R   0.066260 0.500000 0.302220 -0.180568
N3    N     N_R   0.434410 1.000000 0.697680 -0.222621
N4    N     N_R   0.934410 0.500000 0.697680 -0.222621
O1    O     O_R   0.608610 0.924520 0.551740 -0.590125
O2    O     O_R   0.608610 0.075480 0.551740 -0.594224
O3    O     O_R   0.108610 0.424520 0.551740 -0.590125
O4    O     O_R   0.108610 0.575480 0.551740 -0.594224
O5    O     O_R   0.564110 0.924510 0.685150 -0.546279
O6    O     O_R   0.564110 0.075490 0.685150 -0.548678
O7    O     O_R   0.064110 0.424510 0.685150 -0.546279
O8    O     O_R   0.064110 0.575490 0.685150 -0.548678
O9    O     O_R   0.435880 0.075470 0.314850 -0.591588
O10   O     O_R   0.435880 0.924530 0.314850 -0.578925
O11   O     O_R   0.935880 0.575470 0.314850 -0.591588
O12   O     O_R   0.935880 0.424530 0.314850 -0.578925
O13   O     O_R   0.391380 0.075460 0.448260 -0.598189
O14   O     O_R   0.391380 0.924540 0.448260 -0.592398
O15   O     O_R   0.891380 0.575460 0.448260 -0.598189
O16   O     O_R   0.891380 0.424540 0.448260 -0.592398
C89   C     C_3   0.207228 0.050901 0.617918 -0.415046
C90   C     C_3   0.145270 0.060644 0.457987 -0.881209
H33   H     H_    0.174481 0.102743 0.433812 0.245494
H34   H     H_    0.138494 0.009162 0.405938 0.247482
H35   H     H_    0.074160 0.077906 0.414262 0.251602
H36   H     H_    0.174607 0.009485 0.637228 0.217843
H37   H     H_    0.207034 0.102396 0.664010 0.213193
C91   C     C_3   0.707229 0.550905 0.617920 -0.415029
C92   C     C_3   0.645270 0.560644 0.457985 -0.881199
H38   H     H_    0.674479 0.602742 0.433805 0.245489
H39   H     H_    0.638494 0.509159 0.405941 0.247479
H40   H     H_    0.574159 0.577905 0.414261 0.251601
H41   H     H_    0.674609 0.509490 0.637235 0.217839
H42   H     H_    0.707037 0.602402 0.664009 0.213187
N5    N     N_3   0.652157 0.002354 0.893295 -0.493306
H43   H     H_    0.691720 0.048499 0.948381 0.200251
H44   H     H_    0.700142 0.960764 0.925268 0.204051
N6    N     N_3   0.152157 0.502354 0.893295 -0.493307
H45   H     H_    0.191720 0.548499 0.948381 0.200251
H46   H     H_    0.200142 0.460764 0.925268 0.204050
N7    N     N_3   0.516197 0.194065 0.942472 -0.628433
H47   H     H_    0.462285 0.165386 0.852006 0.229734
H48   H     H_    0.549228 0.157923 0.026349 0.224202
N8    N     N_3   0.511572 0.791754 0.917484 -0.606827
H49   H     H_    0.463491 0.826026 0.833389 0.215321
H50   H     H_    0.480396 0.741144 0.891040 0.211185
N9    N     N_3   0.016199 0.694064 0.942473 -0.628435
H51   H     H_    0.962286 0.665386 0.852007 0.229734
H52   H     H_    0.049229 0.657922 0.026349 0.224203
N10   N     N_3   0.011570 0.291751 0.917478 -0.606829
H53   H     H_    0.963490 0.326026 0.833388 0.215322
H54   H     H_    0.980393 0.241141 0.891026 0.211186
C93   C     C_3   0.712737 0.180771 0.571373 -0.339065
C94   C     C_3   0.765701 0.224962 0.539834 -0.919172
H55   H     H_    0.732206 0.278407 0.497509 0.249214
H56   H     H_    0.840344 0.231050 0.636083 0.251211
H57   H     H_    0.763184 0.196758 0.458085 0.255738
H58   H     H_    0.747032 0.127157 0.606698 0.213793
H59   H     H_    0.640155 0.175308 0.468895 0.225138
C95   C     C_3   0.754202 0.831287 0.626929 -0.370491
C96   C     C_3   0.799265 0.767624 0.611392 -0.867344
H60   H     H_    0.876544 0.769243 0.695137 0.262858
H61   H     H_    0.772348 0.715998 0.616355 0.263683
H62   H     H_    0.782420 0.770547 0.507718 0.245563
H63   H     H_    0.681103 0.833351 0.525577 0.231252
H64   H     H_    0.790960 0.881381 0.640463 0.192504
C97   C     C_3   0.212741 0.680769 0.571378 -0.339064
C98   C     C_3   0.265709 0.724958 0.539844 -0.919170
H65   H     H_    0.232214 0.778403 0.497515 0.249213
H66   H     H_    0.340352 0.731046 0.636096 0.251211
H67   H     H_    0.263195 0.696753 0.458099 0.255737
H68   H     H_    0.247035 0.627154 0.606705 0.213791
H69   H     H_    0.140160 0.675306 0.468898 0.225138
C99   C     C_3   0.254206 0.331290 0.626934 -0.370493
C100  C     C_3   0.299272 0.267628 0.611401 -0.867345
H70   H     H_    0.376551 0.269251 0.695144 0.262861
H71   H     H_    0.272359 0.216002 0.616369 0.263685
H72   H     H_    0.282426 0.270550 0.507725 0.245563
H73   H     H_    0.181107 0.333352 0.525582 0.231253
H74   H     H_    0.290962 0.381385 0.640467 0.192504
C101  C     C_3   0.272876 0.886354 0.883700 -0.402374
C102  C     C_3   0.191952 0.930085 0.853018 -0.835608
H75   H     H_    0.126405 0.919792 0.743025 0.250248
H76   H     H_    0.208361 0.988212 0.865205 0.225773
H77   H     H_    0.180449 0.917029 0.927512 0.264741
H78   H     H_    0.338752 0.897427 0.991691 0.203088
H79   H     H_    0.284791 0.908086 0.814019 0.207829
C103  C     C_3   0.441516 0.297054 0.145984 -0.393656
C104  C     C_3   0.439820 0.352036 0.236772 -0.830853
H80   H     H_    0.411430 0.404118 0.180631 0.243886
H81   H     H_    0.396594 0.332904 0.262450 0.259380
H82   H     H_    0.512219 0.360763 0.337801 0.240613
H83   H     H_    0.470431 0.245474 0.202158 0.194860
H84   H     H_    0.494060 0.316642 0.138826 0.195641
C105  C     C_3   0.772879 0.386353 0.883706 -0.402376
C106  C     C_3   0.691951 0.430085 0.853008 -0.835621
H85   H     H_    0.626415 0.419804 0.743000 0.250242
H86   H     H_    0.708371 0.488211 0.865230 0.225777
H87   H     H_    0.680424 0.417017 0.927469 0.264745
H88   H     H_    0.838751 0.397426 0.991700 0.203091
H89   H     H_    0.784805 0.408084 0.814036 0.207830
C107  C     C_3   0.941516 0.797050 0.145979 -0.393659
C108  C     C_3   0.939824 0.852034 0.236768 -0.830865
H90   H     H_    0.911442 0.904117 0.180632 0.243888
H91   H     H_    0.896593 0.832907 0.262439 0.259384
H92   H     H_    0.012223 0.860757 0.337799 0.240616
H93   H     H_    0.970429 0.745470 0.202153 0.194863
H94   H     H_    0.994060 0.816635 0.138821 0.195644

loop_
_geom_bond_atom_site_label_1
_geom_bond_atom_site_label_2
_ccdc_geom_bond_type
C26   H2    S    
C83   C87   A    
N9    H51   S    
C39   O9    A    
C24   H22   S    
N7    H47   S    
C40   O14   A    
C14   C18   A    
C53   C55   A    
C27   H3    S    
C75   H25   S    
C25   C63   A    
C21   C65   A    
C106  H86   S    
C94   H55   S    
C49   C57   A    
C32   C72   A    
C10   C62   A    
C101  C102  S    
C15   C19   A    
N9    H52   S    
C108  H90   S    
C2    O6    A    
Cu3   N3    S    
C2    C29   S    
C9    C61   A    
C101  H78   S    
C28   C68   A    
C5    C11   A    
C1    O1    A    
C57   N1    A    
C12   C64   A    
Cu1   Cu3   S    
C102  H76   S    
C94   H56   S    
C96   H61   S    
C47   N3    A    
C62   H16   S    
C103  H83   S    
C101  H79   S    
C93   H58   S    
C6    C22   A    
C56   N6    S    
Cu1   O1    S    
C95   C96   S    
C48   C56   A    
C43   H13   S    
C23   C67   A    
C60   N2    A    
C60   H32   S    
Cu4   O15   S    
C26   C64   A    
C97   H68   S    
C22   C66   A    
C9    C13   A    
C34   C52   A    
C27   C61   A    
C69   C93   S    
C105  H88   S    
N10   H53   S    
C79   C105  S    
C12   C16   A    
C44   C46   A    
C49   C51   A    
C40   O10   A    
C100  H72   S    
C34   H8    S    
C76   C80   A    
N5    H44   S    
C99   C100  S    
C58   H10   S    
C30   C86   A    
C104  H81   S    
C29   C85   A    
C89   H36   S    
C4    C31   S    
C4    O8    A    
Cu3   O14   S    
Cu2   O4    S    
C82   C86   A    
N8    H50   S    
C100  H70   S    
C33   C59   A    
C34   C60   A    
Cu4   O8    S    
C11   C15   A    
C1    O5    A    
C64   H18   S    
Cu4   N4    S    
C6    C12   A    
C38   C91   S    
C106  H85   S    
C30   C70   A    
C58   N2    A    
C52   C54   A    
Cu2   O11   S    
C41   C68   S    
C90   H34   S    
C45   C47   A    
C59   H31   S    
Cu2   Cu4   S    
C46   C48   A    
C3    O7    A    
C6    C84   A    
C28   C62   A    
C90   H33   S    
C42   O12   A    
C97   C98   S    
C26   C66   A    
C98   H67   S    
C84   C88   A    
C31   C87   A    
C72   C74   A    
C10   C14   A    
C105  C106  S    
C79   C81   A    
C2    O2    A    
C102  H75   S    
C96   H62   S    
Cu1   N1    S    
C37   C89   S    
C53   H5    S    
C17   C85   A    
C104  H80   S    
C24   C68   A    
C76   H26   S    
Cu1   O2    S    
C33   H7    S    
C50   C58   A    
C63   H17   S    
C5    C83   A    
C38   C44   A    
C77   C101  S    
C23   H21   S    
C90   H35   S    
C21   H19   S    
C50   C52   A    
N5    H43   S    
Cu3   O5    S    
C45   C49   A    
C25   H1    S    
C16   C20   A    
C74   H24   S    
Cu2   N2    S    
C25   C65   A    
C18   C86   A    
C13   N7    S    
C105  H89   S    
C92   H40   S    
C35   N3    A    
C43   C45   A    
Cu1   O10   S    
C89   H37   S    
C91   H42   S    
C39   O13   A    
Cu2   O3    S    
C70   C95   S    
N8    H49   S    
C7    C81   A    
C93   C94   S    
Cu1   O9    S    
C40   C65   S    
C42   O16   A    
C42   C67   S    
C15   N9    S    
C39   C66   S    
C3    O3    A    
C37   C43   A    
Cu4   O7    S    
C92   H39   S    
C70   C76   A    
C14   N8    S    
C107  H94   S    
C18   H28   S    
C89   C90   S    
C36   N4    A    
C35   C37   A    
C47   C55   A    
N6    H45   S    
C104  H82   S    
C16   N10   S    
C7    C9    A    
C91   H41   S    
C19   H29   S    
C73   C77   A    
C36   H12   S    
C108  H91   S    
C20   H30   S    
C8    C10   A    
C54   H6    S    
C97   H69   S    
C78   C103  S    
Cu2   O12   S    
C54   C56   A    
C41   O15   A    
C44   H14   S    
C33   C51   A    
C57   H9    S    
C46   C50   A    
C35   H11   S    
C73   H23   S    
C13   C17   A    
C28   H4    S    
C71   C97   S    
C98   H65   S    
C36   C38   A    
C19   C87   A    
N6    H46   S    
C93   H59   S    
C59   N1    A    
C99   H74   S    
C4    O4    A    
C102  H77   S    
C96   H60   S    
Cu3   O6    S    
C103  H84   S    
C48   N4    A    
C7    C23   A    
C20   C88   A    
C55   N5    S    
C1    C30   S    
C8    C24   A    
C80   C82   A    
C69   C75   A    
C95   H64   S    
C3    C32   S    
Cu4   O16   S    
N10   H54   S    
C41   O11   A    
C94   H57   S    
C27   C67   A    
C17   H27   S    
C51   C53   A    
C72   C99   S    
C78   C84   A    
C8    C82   A    
C108  H92   S    
C5    C21   A    
C103  C104  S    
N7    H48   S    
C107  C108  S    
C74   C78   A    
C61   H15   S    
C71   C73   A    
C99   H73   S    
C100  H71   S    
C77   C83   A    
C95   H63   S    
C29   C69   A    
C91   C92   S    
C80   C107  S    
C92   H38   S    
C11   C63   A    
C75   C79   A    
C106  H87   S    
C81   C85   A    
C107  H93   S    
C22   H20   S    
C98   H66   S    
C31   C71   A    
Cu3   O13   S    
C32   C88   A    
