data_mof_unit_3120.cif
_audit_creation_date              2012-12-10T20:28:42-0500
_audit_creation_method            fapswitch 2.2
_symmetry_space_group_name_H-M    P1
_symmetry_Int_Tables_number       1
_space_group_crystal_system       triclinic
_cell_length_a                    10.643748
_cell_length_b                    10.629604
_cell_length_c                    9.879591
_cell_angle_alpha                 89.925328
_cell_angle_beta                  88.248367
_cell_angle_gamma                 90.072009
_cell_volume                      1117.241132

loop_
_atom_site_label
_atom_site_type_symbol
_atom_type_description
_atom_site_fract_x
_atom_site_fract_y
_atom_site_fract_z
_atom_type_partial_charge
C1    C     C_R   0.499335 0.260485 0.500263 0.945542
C2    C     C_R   0.057129 0.494287 0.632495 -0.044429
C3    C     C_R   0.126985 0.462609 0.512939 -0.064456
C4    C     C_R   0.066323 0.437558 0.392847 -0.081950
C5    C     C_R   0.939327 0.457947 0.386183 -0.155413
C6    C     C_R   0.874890 0.512521 0.496501 -0.008872
C7    C     C_R   0.572819 0.064035 0.584959 -0.064691
C8    C     C_R   0.491556 0.128896 0.503215 -0.235350
C9    C     C_R   0.393912 0.066679 0.438937 0.636136
C10   C     C_R   0.390790 0.935948 0.440908 0.182498
C11   C     C_R   0.488538 0.871619 0.504021 -0.210756
C12   C     C_R   0.260577 0.484717 0.503233 0.931926
C13   C     C_R   0.571591 0.935823 0.585100 -0.003377
C14   C     C_3   0.711645 0.928263 0.590236 0.504992
C15   C     C_3   0.712872 0.070931 0.588736 -0.458031
C16   C     C_R   0.573665 0.418883 0.068705 -0.049743
C17   C     C_R   0.433632 0.588042 0.073736 0.637238
C18   C     C_R   0.433084 0.587758 0.929935 0.600004
C19   C     C_R   0.574515 0.419607 0.926300 -0.003507
C20   C     C_3   0.572615 0.279611 0.919168 -0.437922
C21   C     C_3   0.569396 0.278530 0.072799 0.530552
C22   C     C_R   0.496943 0.739629 0.500340 0.990340
C23   C     C_R   0.740345 0.508593 0.498274 0.857263
C24   C     C_R   0.099926 0.480552 0.766735 0.193590
C25   C     C_R   0.042131 0.550782 0.871973 0.216625
C26   C     C_R   0.937767 0.625143 0.845732 0.598005
C27   C     C_R   0.883207 0.618740 0.719820 -0.285247
C28   C     C_R   0.937677 0.544187 0.615534 -0.019686
H1    H     H_    0.117776 0.403686 0.304021 0.224065
H2    H     H_    0.745447 0.112369 0.684689 0.173197
H3    H     H_    0.756200 0.112396 0.494939 0.229503
H4    H     H_    0.485622 0.242024 0.874543 0.269292
H5    H     H_    0.661632 0.241621 0.874243 0.156154
H6    H     H_    0.653510 0.235661 0.118167 0.078475
H7    H     H_    0.798109 0.671628 0.704764 0.194428
H8    H     H_    0.891939 0.431355 0.294967 0.184004
H9    H     H_    0.744998 0.886610 0.685771 0.095486
N1    N     N_R   0.499160 0.499140 0.142800 -0.168737
N2    N     N_R   0.499160 0.499180 0.857150 -0.165141
O1    O     O_R   0.500020 0.316790 0.614690 -0.616841
O2    O     O_R   0.500000 0.316760 0.385350 -0.560771
O3    O     O_R   0.316770 0.500020 0.614690 -0.573605
O4    O     O_R   0.316760 0.499980 0.385350 -0.557760
O5    O     O_R   0.500000 0.683240 0.614650 -0.592735
O6    O     O_R   0.499980 0.683210 0.385310 -0.544917
O7    O     O_R   0.683240 0.500020 0.614650 -0.635284
O8    O     O_R   0.683230 0.499980 0.385310 -0.625886
Zn1   Zn    Zn3+2 0.500010 0.500020 0.653130 1.039790
Zn2   Zn    Zn3+2 0.499990 0.499980 0.346870 1.108009
F1    F     F_    0.765607 0.876857 0.473553 -0.621068
F2    F     F_    0.365637 0.675325 0.143034 -0.552691
F3    F     F_    0.363425 0.673904 0.864438 -0.587741
F4    F     F_    0.455961 0.233581 0.125656 -0.561801
Br1   Br    Br    0.204572 0.339669 0.814585 -0.391932
Br2   Br    Br    0.100734 0.545184 0.052910 -0.305878
F5    F     F_    0.882706 0.695713 0.945283 -0.605224
F6    F     F_    0.304115 0.132400 0.374313 -0.585266
Br3   Br    Br    0.252014 0.850377 0.361779 -0.200402

loop_
_geom_bond_atom_site_label_1
_geom_bond_atom_site_label_2
_ccdc_geom_bond_type
C2    C28   A    
C18   N2    A    
C15   H3    S    
C16   C21   S    
C21   H6    S    
C6    C28   A    
C1    C8    S    
C9    C10   A    
C11   C22   S    
C4    H1    S    
O6    Zn2   S    
C17   F2    S    
C7    C15   S    
C17   C18   A    
C18   F3    S    
C7    C8    A    
O8    Zn2   S    
C23   O7    A    
O3    Zn1   S    
C13   C14   S    
C24   C25   A    
C14   H9    S    
C21   F4    S    
C4    C5    A    
C11   C13   A    
C26   C27   A    
C14   F1    S    
C19   N2    A    
C16   C19   A    
C6    C23   S    
C1    O2    A    
C10   Br3   S    
C25   Br2   S    
C2    C3    A    
C12   O4    A    
C9    F6    S    
C17   N1    A    
C2    C24   A    
C5    C6    A    
O7    Zn1   S    
C23   O8    A    
C10   C11   A    
C20   H5    S    
C24   Br1   S    
C3    C4    A    
C5    H8    S    
O5    Zn1   S    
C7    C13   A    
C22   O6    A    
C20   C21   S    
C15   H2    S    
O1    Zn1   S    
C20   H4    S    
O2    Zn2   S    
C27   C28   A    
N1    Zn2   S    
C14   C15   S    
O4    Zn2   S    
C12   O3    A    
C3    C12   S    
C1    O1    A    
C27   H7    S    
C25   C26   A    
C22   O5    A    
C19   C20   S    
C16   N1    A    
C8    C9    A    
N2    Zn1   S    
C26   F5    S    
