data_mof_unit_653.cif
_audit_creation_date              2012-12-10T17:47:05-0500
_audit_creation_method            fapswitch 2.2
_symmetry_space_group_name_H-M    P1
_symmetry_Int_Tables_number       1
_space_group_crystal_system       triclinic
_cell_length_a                    9.958493
_cell_length_b                    10.695048
_cell_length_c                    13.620018
_cell_angle_alpha                 92.327663
_cell_angle_beta                  83.172112
_cell_angle_gamma                 91.790448
_cell_volume                      1438.63446494

loop_
_atom_site_label
_atom_site_type_symbol
_atom_type_description
_atom_site_fract_x
_atom_site_fract_y
_atom_site_fract_z
_atom_type_partial_charge
C1    C     C_R   0.502928 0.739259 0.493661 0.959778
C2    C     C_R   0.601961 0.938170 0.539391 -0.310213
C3    C     C_R   0.596211 0.067549 0.552370 0.560858
C4    C     C_R   0.475965 0.500729 0.685368 0.884125
C5    C     C_R   0.484620 0.126500 0.522128 -0.191074
C6    C     C_R   0.844626 0.658461 0.634323 -0.222043
C7    C     C_R   0.903676 0.732098 0.705945 -0.131550
C8    C     C_R   0.045289 0.732835 0.705266 -0.108015
C9    C     C_R   0.121945 0.653870 0.637427 -0.214617
C10   C     C_R   0.063149 0.573965 0.569054 0.111968
C11   C     C_R   0.919765 0.576049 0.567612 0.127078
C12   C     C_1   0.459075 0.500464 0.788915 -0.038070
C13   C     C_R   0.936834 0.432743 0.430904 -0.081921
C14   C     C_R   0.080561 0.435895 0.428819 -0.107491
C15   C     C_R   0.495505 0.260350 0.508674 0.929602
C16   C     C_R   0.524255 0.498463 0.314616 0.939972
C17   C     C_1   0.544146 0.496677 0.211006 -0.099675
C18   C     C_2   0.574128 0.497850 0.018714 -0.057355
C19   C     C_2   0.456899 0.497474 0.979550 -0.253340
C20   C     C_1   0.452804 0.499482 0.876413 0.127371
C21   C     C_1   0.561505 0.496529 0.123282 -0.013407
C22   C     C_2   0.813447 0.800674 0.783556 0.971431
C23   C     C_R   0.314115 0.875563 0.386655 0.447569
C24   C     C_2   0.118879 0.820740 0.768692 0.982057
C25   C     C_2   0.162138 0.380540 0.341165 0.978683
C26   C     C_2   0.712580 0.501017 0.962466 0.987238
C27   C     C_3   0.442952 0.816979 0.245163 -0.250517
C28   C     C_3   0.022594 0.778468 0.365752 -0.180285
C29   C     C_3   0.819977 0.093596 0.587106 -0.182799
C30   C     C_2   0.873716 0.356321 0.355477 0.990669
C31   C     C_R   0.187445 0.926209 0.379446 0.488012
C32   C     C_R   0.151327 0.036329 0.432571 -0.306809
C33   C     C_R   0.243107 0.099560 0.487645 -0.121328
C34   C     C_R   0.375237 0.055083 0.488357 -0.020724
C35   C     C_R   0.400425 0.933258 0.452620 -0.118961
C36   C     C_R   0.507363 0.872429 0.487969 -0.142088
H1    H     H_    0.360464 0.495728 0.026463 0.187578
H2    H     H_    0.830569 0.497578 0.831107 0.353953
H3    H     H_    0.542946 0.845348 0.268811 0.148489
H4    H     H_    0.400131 0.895630 0.208686 0.181529
H5    H     H_    0.459083 0.739925 0.188629 0.192906
H6    H     H_    0.086401 0.700758 0.382964 0.186632
H7    H     H_    0.949406 0.739056 0.316622 0.212378
H8    H     H_    0.963279 0.816362 0.434478 0.110973
H9    H     H_    0.891783 0.172811 0.598516 0.191134
H10   H     H_    0.845460 0.055517 0.510223 0.151049
H11   H     H_    0.834733 0.021732 0.641092 0.178162
H12   H     H_    0.739031 0.667955 0.632380 0.232452
H13   H     H_    0.793131 0.188982 0.316568 0.338908
H14   H     H_    0.228717 0.661269 0.636827 0.233877
H15   H     H_    0.678124 0.888172 0.571156 0.182207
H16   H     H_    0.054358 0.076275 0.427357 0.193776
H17   H     H_    0.207492 0.181759 0.530282 0.199262
H18   H     H_    0.776961 0.860563 0.926427 0.352941
H19   H     H_    0.282318 0.853269 0.841564 0.360497
H20   H     H_    0.217359 0.386245 0.193991 0.342837
N1    N     N_R   0.857120 0.501200 0.500900 -0.153148
N2    N     N_R   0.142720 0.501280 0.500940 -0.153694
O1    O     O_R   0.385310 0.683220 0.500000 -0.617694
O2    O     O_R   0.847804 0.814631 0.880090 -0.743336
O3    O     O_2   0.076959 0.925813 0.790060 -0.601265
O4    O     O_R   0.240149 0.784986 0.800381 -0.804674
O5    O     O_2   0.232864 0.291341 0.348692 -0.624102
O6    O     O_R   0.157054 0.431103 0.248668 -0.757169
O7    O     O_2   0.811567 0.508748 0.007913 -0.560961
O8    O     O_R   0.731521 0.494678 0.859015 -0.801379
O9    O     O_3   0.354094 0.773542 0.325824 -0.585813
O10   O     O_3   0.102106 0.872739 0.315746 -0.573426
O11   O     O_3   0.686903 0.138101 0.604251 -0.575572
O12   O     O_R   0.614640 0.683250 0.500010 -0.668114
O13   O     O_2   0.864439 0.399156 0.274778 -0.565596
O14   O     O_R   0.833112 0.232638 0.374292 -0.821656
O15   O     O_R   0.368830 0.499960 0.640340 -0.643076
O16   O     O_R   0.598160 0.499980 0.640350 -0.601380
O17   O     O_R   0.385360 0.316750 0.499990 -0.612286
O18   O     O_R   0.614690 0.316780 0.500000 -0.548380
O19   O     O_R   0.401840 0.500020 0.359650 -0.569431
O20   O     O_R   0.631170 0.500040 0.359660 -0.606727
O21   O     O_2   0.705904 0.840049 0.764357 -0.652023
Zn1   Zn    Zn3+2 0.346870 0.499980 0.499990 0.984542
Zn2   Zn    Zn3+2 0.653130 0.500020 0.500010 0.990687

loop_
_geom_bond_atom_site_label_1
_geom_bond_atom_site_label_2
_ccdc_geom_bond_type
C15   O17   A    
C24   O3    D    
C18   C21   S    
C35   C36   A    
C18   C26   S    
C30   O13   D    
C7    C8    A    
H18   O2    S    
C6    H12   S    
C29   H11   S    
C28   O10   S    
C22   O21   D    
C16   O19   A    
C1    O1    A    
C22   O2    S    
C13   N1    A    
H19   O4    S    
C34   C35   A    
C25   O5    D    
C23   O9    S    
O12   Zn2   S    
C32   H16   S    
C19   H1    S    
H2    O8    S    
C27   H3    S    
C8    C9    A    
C10   N2    A    
H13   O14   S    
H20   O6    S    
C4    C12   S    
C9    C10   A    
C4    O16   A    
N2    Zn1   S    
C15   O18   A    
C13   C14   A    
C29   O11   S    
C33   H17   S    
C31   O10   S    
C14   N2    A    
C26   O8    S    
C13   C30   S    
C10   C11   A    
C6    C11   A    
C18   C19   D    
C28   H8    S    
C17   C21   T    
C29   H9    S    
C25   O6    S    
C23   C31   A    
O18   Zn2   S    
C27   H5    S    
C31   C32   A    
C27   H4    S    
C5    C34   A    
C12   C20   T    
C33   C34   A    
C4    O15   A    
C23   C35   A    
N1    Zn2   S    
O16   Zn2   S    
O17   Zn1   S    
O19   Zn1   S    
C2    C36   A    
C24   O4    S    
C3    O11   S    
C26   O7    D    
C9    H14   S    
C3    C5    A    
O1    Zn1   S    
C30   O14   S    
C6    C7    A    
C7    C22   S    
C28   H7    S    
C1    O12   A    
C29   H10   S    
C32   C33   A    
C19   C20   S    
C2    C3    A    
O20   Zn2   S    
C16   C17   S    
C28   H6    S    
C8    C24   S    
O15   Zn1   S    
C16   O20   A    
C14   C25   S    
C5    C15   S    
C27   O9    S    
C2    H15   S    
C11   N1    A    
C1    C36   S    
