data_mof_unit_3634.cif
_audit_creation_date              2012-12-10T17:03:26-0500
_audit_creation_method            fapswitch 2.2
_symmetry_space_group_name_H-M    P1
_symmetry_Int_Tables_number       1
_space_group_crystal_system       triclinic
_cell_length_a                    15.03122
_cell_length_b                    11.029507
_cell_length_c                    9.827122
_cell_angle_alpha                 111.051408
_cell_angle_beta                  98.324371
_cell_angle_gamma                 91.006478
_cell_volume                      1500.17777925

loop_
_atom_site_label
_atom_site_type_symbol
_atom_type_description
_atom_site_fract_x
_atom_site_fract_y
_atom_site_fract_z
_atom_type_partial_charge
C1    C     C_R   0.492192 0.254140 0.440765 0.852670
C2    C     C_R   0.506637 0.745868 0.559286 0.874939
C3    C     C_R   0.059528 0.356013 0.635388 -0.218837
C4    C     C_R   0.943040 0.674791 0.401098 -0.197368
C5    C     C_2   0.488457 0.114798 0.407272 -0.353012
C6    C     C_2   0.510471 0.885170 0.592646 -0.342638
C7    C     C_2   0.501824 0.069526 0.516543 -0.148302
C8    C     C_2   0.498523 0.930395 0.483212 -0.159174
C9    C     C_2   0.506444 0.512275 0.081841 -0.075005
C10   C     C_2   0.492736 0.488980 0.918524 -0.067958
C11   C     C_R   0.329016 0.503782 0.501818 0.871910
C12   C     C_R   0.670932 0.498033 0.498414 0.855686
C13   C     C_R   0.808414 0.581516 0.445159 -0.337765
C14   C     C_R   0.192649 0.436560 0.573275 -0.338670
C15   C     C_R   0.767150 0.495517 0.496047 -0.152107
C16   C     C_R   0.232703 0.509466 0.504903 -0.139293
C17   C     C_R   0.817603 0.410346 0.548320 0.407808
C18   C     C_R   0.181128 0.584668 0.437770 0.387782
C19   C     C_R   0.912321 0.421162 0.562356 0.002314
C20   C     C_R   0.088431 0.592035 0.449190 -0.005592
C21   C     C_R   0.953685 0.506410 0.507411 0.024261
C22   C     C_R   0.047499 0.510834 0.509801 0.033033
C23   C     C_R   0.901360 0.587027 0.449583 0.123747
C24   C     C_R   0.100110 0.433898 0.572790 0.129443
C25   C     C_R   0.966559 0.350321 0.631180 -0.205264
C26   C     C_R   0.035758 0.678541 0.402680 -0.209806
Cu1   Cu    Cu3+1 0.515770 0.521810 0.644910 0.960080
Cu2   Cu    Cu3+1 0.484230 0.478190 0.355090 0.930596
H1    H     H_    0.767991 0.645651 0.404419 0.155352
H2    H     H_    0.233537 0.378335 0.622728 0.158496
H3    H     H_    0.937458 0.290149 0.681981 0.170299
H4    H     H_    0.065449 0.749989 0.367673 0.159686
H5    H     H_    0.099691 0.298585 0.686704 0.141927
H6    H     H_    0.903843 0.740523 0.361538 0.138459
H7    H     H_    0.485912 0.864628 0.368159 0.177356
H8    H     H_    0.515201 0.135287 0.631551 0.184642
H9    H     H_    0.522976 0.951252 0.707482 0.147768
H10   H     H_    0.475356 0.048769 0.292435 0.154045
H11   H     H_    0.441505 0.414766 0.844947 0.152479
H12   H     H_    0.556605 0.587987 0.155794 0.158901
H13   H     H_    0.587381 0.624864 0.935155 0.193755
H14   H     H_    0.415103 0.371902 0.063931 0.186734
N1    N     N_2   0.460520 0.445420 0.137370 -0.299931
N2    N     N_2   0.539480 0.554580 0.862630 -0.279961
O1    O     O_R   0.508410 0.332340 0.577400 -0.569803
O2    O     O_R   0.491590 0.667660 0.422600 -0.583345
O3    O     O_R   0.481780 0.295500 0.332650 -0.584784
O4    O     O_R   0.518220 0.704500 0.667350 -0.580637
O5    O     O_R   0.383570 0.518390 0.622380 -0.591038
O6    O     O_R   0.616430 0.481610 0.377620 -0.593951
O7    O     O_R   0.356940 0.481550 0.377630 -0.569262
O8    O     O_R   0.643060 0.518450 0.622370 -0.540980
O9    O     O_3   0.772823 0.320322 0.588410 -0.609139
C27   C     C_3   0.772868 0.192468 0.482211 0.020278
H15   H     H_    0.742567 0.124618 0.526389 0.184635
H16   H     H_    0.842109 0.162789 0.467182 0.133892
C28   C     C_3   0.717315 0.174697 0.331179 -0.353241
H17   H     H_    0.651773 0.217001 0.346727 0.234213
H18   H     H_    0.753777 0.226325 0.274808 0.207652
C29   C     C_3   0.700514 0.031008 0.232141 -0.916292
H19   H     H_    0.765588 0.986572 0.213738 0.253346
H20   H     H_    0.661245 0.021733 0.123637 0.258936
H21   H     H_    0.661401 0.977504 0.283393 0.255076
O10   O     O_3   0.224584 0.658067 0.374042 -0.609974
C30   C     C_3   0.189754 0.622273 0.221352 0.045490
H22   H     H_    0.164024 0.710230 0.203825 0.158895
H23   H     H_    0.133381 0.544151 0.178577 0.125367
C31   C     C_3   0.264819 0.576842 0.129392 -0.298638
H24   H     H_    0.325949 0.645417 0.179723 0.248506
H25   H     H_    0.281111 0.478710 0.127524 0.222946
C32   C     C_3   0.236045 0.568084 0.970510 -0.941591
H26   H     H_    0.174892 0.500208 0.918459 0.260911
H27   H     H_    0.291089 0.531176 0.905898 0.261941
H28   H     H_    0.221621 0.665636 0.967669 0.267104

loop_
_geom_bond_atom_site_label_1
_geom_bond_atom_site_label_2
_ccdc_geom_bond_type
Cu1   O4    S    
C25   H3    S    
C32   H28   S    
C4    C26   A    
Cu2   O3    S    
C26   H4    S    
C7    C8    S    
C11   O5    A    
C9    N1    D    
C11   C16   S    
C12   O8    A    
Cu2   N1    S    
C12   O6    A    
Cu2   O7    S    
C12   C15   S    
C8    H7    S    
C5    H10   S    
C30   C31   S    
C18   O10   S    
O10   C30   S    
Cu1   O1    S    
C13   C15   A    
C28   H17   S    
C6    H9    S    
C32   H26   S    
C1    O1    A    
C16   C18   A    
C21   C22   A    
C2    O2    A    
Cu2   O2    S    
C3    C24   A    
C2    C6    S    
C20   C26   A    
C14   C24   A    
C14   H2    S    
C31   C32   S    
C1    C5    S    
C22   C24   A    
C13   H1    S    
C19   C21   A    
C20   C22   A    
C4    C23   A    
C27   H16   S    
C21   C23   A    
C4    H6    S    
C19   C25   A    
H13   N2    S    
C14   C16   A    
C28   H18   S    
C29   H21   S    
H14   N1    S    
C3    H5    S    
C10   N2    D    
C9    C10   S    
C17   O9    S    
C3    C25   A    
C11   O7    A    
Cu1   O8    S    
C13   C23   A    
C18   C20   A    
C29   H20   S    
C30   H22   S    
C7    H8    S    
C32   H27   S    
Cu1   Cu2   S    
C5    C7    D    
C31   H25   S    
C27   H15   S    
C31   H24   S    
C28   C29   S    
C6    C8    D    
C17   C19   A    
C2    O4    A    
C15   C17   A    
Cu2   O6    S    
Cu1   N2    S    
C10   H11   S    
C9    H12   S    
C1    O3    A    
Cu1   O5    S    
O9    C27   S    
C29   H19   S    
C30   H23   S    
C27   C28   S    
