data_mof_unit_728.cif
_audit_creation_date              2013-03-05T15:50:09-0500
_audit_creation_method            fapswitch 2.2
_symmetry_space_group_name_H-M    P1
_symmetry_Int_Tables_number       1
_space_group_crystal_system       triclinic
_cell_length_a                    11.993293
_cell_length_b                    12.861751
_cell_length_c                    15.534381
_cell_angle_alpha                 86.92001
_cell_angle_beta                  117.116324
_cell_angle_gamma                 94.018725
_cell_volume                      2126.97826689

loop_
_atom_site_label
_atom_site_type_symbol
_atom_site_description
_atom_site_fract_x
_atom_site_fract_y
_atom_site_fract_z
_atom_type_partial_charge
O1    O     O_R   0.580150 0.341050 0.504560 -0.631564
O2    O     O_R   0.419850 0.658950 0.495440 -0.624600
O3    O     O_R   0.388090 0.353760 0.493600 -0.575980
O4    O     O_R   0.611910 0.646240 0.506400 -0.579504
C1    C     C_R   0.474466 0.299554 0.494586 0.976854
C2    C     C_R   0.525704 0.700448 0.505694 0.970128
O5    O     O_R   0.650890 0.490020 0.640860 -0.512168
O6    O     O_R   0.349110 0.509980 0.359140 -0.514309
O7    O     O_R   0.458830 0.502730 0.629890 -0.653425
O8    O     O_R   0.541170 0.497270 0.370110 -0.655973
C3    C     C_R   0.578785 0.494758 0.681611 0.956287
C4    C     C_R   0.421582 0.507404 0.318429 0.948748
Zn1   Zn    Zn3+2 0.628240 0.491510 0.507320 1.053188
Zn2   Zn    Zn3+2 0.371760 0.508490 0.492680 1.051318
C5    C     C_R   0.632239 0.499643 0.787853 -0.169646
C6    C     C_R   0.372496 0.523527 0.212779 -0.178781
C7    C     C_R   0.792741 0.479158 0.953873 -0.196279
C8    C     C_R   0.229708 0.591790 0.054006 -0.206945
C9    C     C_R   0.756256 0.474162 0.854707 0.453822
C10   C     C_R   0.255621 0.566392 0.149921 0.465226
C11   C     C_R   0.551408 0.531556 0.822610 -0.292214
C12   C     C_R   0.456315 0.505367 0.176405 -0.299530
C13   C     C_R   0.586340 0.534765 0.921211 0.095554
C14   C     C_R   0.437167 0.541758 0.084808 0.095771
C15   C     C_R   0.708322 0.506004 0.987190 0.086541
C16   C     C_R   0.319793 0.581474 0.021762 0.077186
C17   C     C_R   0.499548 0.557971 0.955318 0.086916
C18   C     C_R   0.531215 0.537375 0.054014 0.089714
C19   C     C_R   0.656450 0.515138 0.119034 -0.217863
C20   C     C_R   0.381821 0.599598 0.894250 -0.198645
C21   C     C_R   0.743615 0.500841 0.085868 -0.111102
C22   C     C_R   0.294134 0.611810 0.927496 -0.131993
H1    H     H_    0.538334 0.463052 0.221729 0.185178
H2    H     H_    0.457410 0.548425 0.770808 0.183905
C23   C     C_R   0.544755 0.812034 0.513552 -0.278496
C24   C     C_R   0.455802 0.187978 0.487436 -0.252083
C25   C     C_R   0.328790 0.027782 0.437659 0.343701
C26   C     C_R   0.672000 0.972232 0.564021 0.308542
C27   C     C_R   0.337890 0.137124 0.431232 0.243792
C28   C     C_R   0.662856 0.862769 0.569771 0.331958
C29   C     C_R   0.563254 0.132307 0.536531 -0.186629
C30   C     C_R   0.437311 0.867796 0.465179 -0.176200
C31   C     C_R   0.559752 0.026485 0.525053 -0.080454
C32   C     C_R   0.441017 0.973573 0.476703 -0.039670
H3    H     H_    0.349508 0.827046 0.419208 0.246438
H4    H     H_    0.650813 0.173194 0.582811 0.244165
N1    N     N_R   0.799120 0.480200 0.517090 -0.107059
N2    N     N_R   0.200880 0.519800 0.482910 -0.108707
C33   C     C_R   0.018994 0.620767 0.437515 -0.301574
C34   C     C_R   0.981249 0.379374 0.563264 -0.234013
C35   C     C_R   0.137026 0.607558 0.442101 0.066190
C36   C     C_R   0.864041 0.393479 0.559983 0.138216
C37   C     C_R   0.151278 0.444223 0.523082 0.037041
C38   C     C_R   0.848120 0.555142 0.476017 0.025502
C39   C     C_R   0.033413 0.455074 0.521741 0.039150
C40   C     C_R   0.966214 0.544428 0.477876 0.056945
H5    H     H_    0.824138 0.333749 0.590677 0.189267
H6    H     H_    0.178025 0.668752 0.413764 0.215906
H7    H     H_    0.970264 0.690875 0.403764 0.184178
H8    H     H_    0.030132 0.309453 0.597488 0.199406
H9    H     H_    0.837617 0.481293 0.137485 0.183418
H10   H     H_    0.205223 0.644193 0.878744 0.181326
S1    S     S_3+6 0.142653 0.595778 0.187391 0.030017
O9    O     O_2   0.198993 0.678777 0.261909 -0.325593
O10   O     O_2   0.027115 0.635535 0.103563 -0.303392
O11   O     O_3   0.102169 0.487912 0.234927 -0.491495
H11   H     H_    0.048771 0.512157 0.262339 0.361665
S2    S     S_3+6 0.865222 0.427599 0.819930 0.041173
O12   O     O_2   0.899929 0.511066 0.763638 -0.247521
O13   O     O_2   0.982441 0.396718 0.907582 -0.297790
O14   O     O_3   0.798961 0.322841 0.750767 -0.575949
H12   H     H_    0.870106 0.282049 0.758468 0.401389
H13   H     H_    0.885904 0.457731 0.005890 0.224667
H14   H     H_    0.140660 0.623459 0.004803 0.204477
H15   H     H_    0.690605 0.510360 0.196445 0.150097
H16   H     H_    0.355810 0.626817 0.821059 0.162127
S3    S     S_3+6 0.790674 0.791831 0.656991 0.099687
O15   O     O_2   0.741928 0.704051 0.700371 -0.304593
O16   O     O_2   0.859966 0.748026 0.608469 -0.274517
O17   O     O_3   0.890351 0.868325 0.747564 -0.451397
H17   H     H_    0.959849 0.823460 0.789044 0.387911
S4    S     S_3+6 0.210561 0.207476 0.342706 0.112281
O18   O     O_2   0.139927 0.251989 0.389756 -0.221617
O19   O     O_2   0.259161 0.295198 0.299109 -0.297446
O20   O     O_3   0.111254 0.130363 0.252538 -0.424750
H18   H     H_    0.161204 0.108973 0.220931 0.363495
S5    S     S_3+6 0.182319 0.959713 0.411758 0.069063
O21   O     O_2   0.089965 0.031454 0.413922 -0.186850
O22   O     O_2   0.129250 0.911900 0.313872 -0.251105
O23   O     O_3   0.205917 0.864445 0.495977 -0.573614
H19   H     H_    0.121816 0.845053 0.490942 0.389536
S6    S     S_3+6 0.818993 0.040498 0.591676 0.073463
O24   O     O_2   0.871816 0.084335 0.691127 -0.233803
O25   O     O_2   0.911625 0.970339 0.587834 -0.193467
O26   O     O_3   0.798306 0.139487 0.511384 -0.577896
H20   H     H_    0.759502 0.106374 0.447434 0.368162
H21   H     H_    0.794826 0.622815 0.441037 0.146835
H22   H     H_    0.204226 0.376229 0.557465 0.150678

loop_
_geom_bond_atom_site_label_1
_geom_bond_atom_site_label_2
_geom_bond_distance
_ccdc_geom_bond_type
C15   C21   1.391000 A    
C20   C22   1.387221 A    
C39   C40   1.407006 A    
S1    O10   1.503385 D    
C16   C22   1.391375 A    
C21   H9    1.082200 S    
O26   H20   0.990498 S    
C8    C16   1.398706 A    
S5    O21   1.503297 D    
S3    O15   1.501808 D    
C5    C9    1.421926 A    
O1    C1    1.284694 A    
C18   C19   1.415681 A    
C14   C16   1.411371 A    
C1    C24   1.439195 S    
C26   S6    1.787895 S    
C2    C23   1.440251 S    
O4    Zn1   2.011985 S    
C23   C30   1.388687 A    
C3    C5    1.476400 S    
N2    C35   1.365306 A    
C4    C6    1.477467 S    
S2    O12   1.502906 D    
C33   C35   1.406527 A    
C34   C36   1.407466 A    
C29   H4    1.082204 S    
C38   H21   1.082563 S    
C13   C17   1.420073 A    
C6    C10   1.423021 A    
S3    O16   1.502828 D    
O11   H11   0.989727 S    
S1    O11   1.681697 S    
C8    H14   1.083548 S    
C17   C20   1.417926 A    
C7    H13   1.083283 S    
C29   C31   1.377413 A    
C24   C29   1.389174 A    
O2    C2    1.285219 A    
C30   C32   1.376729 A    
C37   C39   1.420796 A    
N2    C37   1.371274 A    
C38   C40   1.419668 A    
O4    C2    1.282593 A    
Zn1   N1    2.000040 S    
Zn2   N2    2.000042 S    
C11   H2    1.074277 S    
O6    Zn2   1.964764 S    
O20   H18   0.990653 S    
S6    O26   1.682198 S    
C30   H3    1.082087 S    
O5    C3    1.289524 A    
O7    Zn2   1.898412 S    
C20   H16   1.077860 S    
C5    C11   1.398762 A    
O6    C4    1.289916 A    
S6    O25   1.502930 D    
C9    S2    1.773820 S    
C35   H6    1.077443 S    
O7    C3    1.297648 A    
O3    Zn2   2.011983 S    
O8    C4    1.297653 A    
N1    C38   1.370358 A    
S2    O13   1.504426 D    
S4    O19   1.502317 D    
S5    O22   1.502954 D    
C31   C32   1.413929 A    
C12   C14   1.393594 A    
O1    Zn1   1.977204 S    
S4    O20   1.681401 S    
S3    O17   1.681455 S    
C12   H1    1.077983 S    
C6    C12   1.396166 A    
C25   S5    1.786669 S    
C24   C27   1.412840 A    
C14   C18   1.417021 A    
C27   S4    1.785357 S    
O17   H17   0.990349 S    
O3    C1    1.282610 A    
O8    Zn1   1.898413 S    
N1    C36   1.365006 A    
C19   H15   1.078980 S    
C37   H22   1.082486 S    
C33   C40   1.402273 A    
C34   C39   1.403727 A    
C33   H7    1.083172 S    
C34   H8    1.083281 S    
C10   S1    1.769634 S    
C11   C13   1.393819 A    
C23   C28   1.413794 A    
C7    C15   1.399302 A    
C26   C31   1.417400 A    
C19   C21   1.385717 A    
C26   C28   1.405675 A    
O23   H19   0.990259 S    
C25   C32   1.416875 A    
S2    O14   1.681798 S    
S6    O24   1.502436 D    
C7    C9    1.400335 A    
C8    C10   1.401124 A    
C13   C15   1.412737 A    
O2    Zn2   1.977204 S    
C36   H5    1.078736 S    
C22   H10   1.084563 S    
S1    O9    1.501614 D    
O5    Zn1   1.964765 S    
O14   H12   0.990237 S    
C25   C27   1.404626 A    
S4    O18   1.502323 D    
S5    O23   1.682832 S    
C17   C18   1.415873 A    
C28   S3    1.785493 S    
