data_mof_unit_432.cif
_audit_creation_date              2012-12-11T17:07:51-0500
_audit_creation_method            fapswitch 2.2
_symmetry_space_group_name_H-M    P1
_symmetry_Int_Tables_number       1
_space_group_crystal_system       triclinic
_cell_length_a                    17.320797
_cell_length_b                    17.338877
_cell_length_c                    17.472052
_cell_angle_alpha                 89.594826
_cell_angle_beta                  89.625924
_cell_angle_gamma                 90.478266
_cell_volume                      5246.83414369

loop_
_atom_site_label
_atom_site_type_symbol
_atom_type_description
_atom_site_fract_x
_atom_site_fract_y
_atom_site_fract_z
_atom_type_partial_charge
C1    C     C_R   0.394107 0.302847 0.896769 0.178633
C2    C     C_R   0.197515 0.893862 0.397903 0.168324
C3    C     C_R   0.736807 0.811906 0.275267 -0.144756
C4    C     C_R   0.194547 0.156427 0.811786 -0.160699
C5    C     C_R   0.298549 0.740837 0.641322 -0.157287
C6    C     C_R   0.792366 0.860593 0.812084 -0.155820
C7    C     C_R   0.702550 0.259594 0.643107 -0.155455
C8    C     C_R   0.661549 0.298710 0.699314 -0.171760
C9    C     C_R   0.748082 0.816175 0.863870 -0.160512
C10   C     C_R   0.340431 0.702876 0.697770 -0.171665
C11   C     C_R   0.240561 0.200460 0.860461 -0.135086
C12   C     C_R   0.693317 0.767022 0.227199 -0.171682
C13   C     C_R   0.087785 0.177889 0.361734 0.196103
C14   C     C_R   0.763560 0.311227 0.224008 -0.149707
C15   C     C_R   0.291307 0.184037 0.164351 -0.159822
C16   C     C_R   0.235475 0.685101 0.226912 -0.146119
C17   C     C_R   0.802566 0.106167 0.398562 0.172286
C18   C     C_R   0.893851 0.197938 0.597372 0.172867
C19   C     C_R   0.174189 0.083779 0.640397 0.211161
C20   C     C_R   0.106300 0.801738 0.596979 0.167024
C21   C     C_R   0.826237 0.915666 0.642046 0.204381
C22   C     C_3   0.838842 0.184244 0.788191 -0.521860
C23   C     C_3   0.856787 0.681772 0.709576 -0.433669
C24   C     C_3   0.160650 0.814351 0.786615 -0.521410
C25   C     C_R   0.684809 0.407591 0.870734 0.208211
C26   C     C_3   0.182697 0.321199 0.672680 -0.438536
C27   C     C_3   0.892706 0.826486 0.131752 -0.511914
C28   C     C_3   0.654774 0.273683 0.420263 -0.494106
C29   C     C_3   0.074244 0.210207 0.151950 -0.515014
C30   C     C_3   0.345479 0.727288 0.419150 -0.490850
C31   C     C_3   0.393478 0.678289 0.365955 -0.498359
C32   C     C_3   0.117930 0.250425 0.088588 -0.449618
C33   C     C_3   0.606356 0.321485 0.366246 -0.492837
C34   C     C_3   0.844455 0.777409 0.078616 -0.472147
C35   C     C_3   0.233316 0.368673 0.725200 -0.478502
C36   C     C_R   0.608177 0.698736 0.900767 0.183622
C37   C     C_3   0.207979 0.775441 0.848217 -0.446764
C38   C     C_3   0.808442 0.633781 0.764278 -0.457883
C39   C     C_3   0.792775 0.224981 0.849582 -0.450777
C40   C     C_R   0.414497 0.677940 0.862791 -0.121990
C41   C     C_R   0.304176 0.393353 0.895846 -0.134963
C42   C     C_R   0.586773 0.322149 0.863614 -0.130339
C43   C     C_R   0.697250 0.607696 0.900092 -0.146510
C44   C     C_R   0.391790 0.302048 0.097025 -0.126811
C45   C     C_R   0.331909 0.575880 0.144301 -0.133277
C46   C     C_R   0.606008 0.696157 0.103051 -0.148960
C47   C     C_R   0.316294 0.592592 0.869892 0.208698
C48   C     C_R   0.667948 0.422895 0.143822 -0.139371
C49   C     C_R   0.894381 0.196303 0.397110 -0.144699
C50   C     C_R   0.832808 0.923792 0.355706 -0.141156
C51   C     C_R   0.105576 0.803905 0.397271 -0.142493
C52   C     C_R   0.170283 0.079083 0.356809 -0.116165
C53   C     C_R   0.925278 0.833601 0.645142 -0.145935
C54   C     C_R   0.802773 0.107833 0.599132 -0.140130
C55   C     C_R   0.076810 0.168127 0.643885 -0.142827
C56   C     C_R   0.197237 0.891710 0.598018 -0.136822
C57   C     C_R   0.319014 0.318375 0.879244 -0.017293
C58   C     C_R   0.415206 0.675398 0.139343 0.204718
C59   C     C_R   0.654681 0.346172 0.830577 -0.032728
C60   C     C_R   0.685483 0.684348 0.884834 -0.006781
C61   C     C_R   0.347197 0.654337 0.829481 -0.039339
C62   C     C_R   0.359191 0.638506 0.183669 -0.037088
C63   C     C_R   0.681408 0.682250 0.119439 -0.006799
C64   C     C_R   0.640120 0.359951 0.183394 -0.035157
C65   C     C_R   0.314387 0.313265 0.110158 0.002784
C66   C     C_R   0.860308 0.861639 0.316083 -0.035341
C67   C     C_R   0.181186 0.818266 0.380346 -0.002857
C68   C     C_R   0.144557 0.142825 0.317119 -0.021566
C69   C     C_R   0.697429 0.606855 0.101861 0.178750
C70   C     C_R   0.818764 0.181994 0.381124 -0.004881
C71   C     C_R   0.817504 0.184184 0.610656 -0.009549
C72   C     C_R   0.138231 0.139615 0.684043 -0.045886
C73   C     C_R   0.182678 0.815147 0.609349 -0.008309
C74   C     C_R   0.863875 0.860732 0.686767 -0.032398
C75   C     C_R   0.766807 0.278828 0.787946 0.213373
C76   C     C_R   0.808700 0.701580 0.817010 0.146868
C77   C     C_R   0.235059 0.721734 0.787415 0.211107
C78   C     C_R   0.260236 0.293990 0.758427 0.147340
C79   C     C_R   0.806424 0.743922 0.148420 0.224507
C80   C     C_R   0.583807 0.324256 0.139813 0.212045
C81   C     C_R   0.649931 0.285315 0.302148 0.198607
C82   C     C_R   0.181993 0.266939 0.144009 0.211547
C83   C     C_R   0.349797 0.713318 0.301365 0.191846
C84   C     C_R   0.306334 0.758623 0.349760 0.229053
C85   C     C_R   0.141611 0.226854 0.201719 0.211226
C86   C     C_R   0.693778 0.241223 0.351254 0.226232
C87   C     C_R   0.850270 0.788933 0.196848 0.193609
C88   C     C_R   0.214832 0.251374 0.711215 0.178809
C89   C     C_R   0.193300 0.756832 0.732045 0.181544
C90   C     C_R   0.852753 0.744997 0.767254 0.119029
C91   C     C_R   0.300990 0.391268 0.097194 0.175551
C92   C     C_R   0.807484 0.242057 0.732833 0.182434
C93   C     C_R   0.693511 0.305515 0.772539 0.041115
C94   C     C_R   0.748469 0.735076 0.858515 0.052617
C95   C     C_R   0.308806 0.696109 0.771636 0.042913
C96   C     C_R   0.270001 0.271473 0.834101 0.055199
C97   C     C_R   0.727684 0.734301 0.162561 0.033978
C98   C     C_R   0.685172 0.322146 0.239926 0.042259
C99   C     C_R   0.260065 0.250899 0.131046 0.012623
C100  C     C_R   0.314102 0.675017 0.241211 0.042795
C101  C     C_R   0.227346 0.765986 0.337514 0.035249
C102  C     C_R   0.915560 0.825034 0.360224 0.204693
C103  C     C_R   0.178868 0.171132 0.245724 0.033561
C104  C     C_R   0.772710 0.233830 0.337804 0.037519
C105  C     C_R   0.815082 0.824667 0.258999 0.042520
C106  C     C_R   0.178005 0.185155 0.738541 0.051292
C107  C     C_R   0.225504 0.769070 0.659993 0.059039
C108  C     C_R   0.837769 0.823244 0.757015 0.061796
C109  C     C_R   0.774783 0.229756 0.661588 0.056579
C110  C     C_R   0.192330 0.730311 0.274873 -0.173289
C111  C     C_R   0.251944 0.145823 0.222527 -0.166587
C112  C     C_R   0.807176 0.267418 0.272881 -0.173984
H1    H     H_    0.818121 0.124494 0.777013 0.211579
H2    H     H_    0.088386 0.303315 0.068451 0.238084
H3    H     H_    0.617459 0.384570 0.370677 0.204096
H4    H     H_    0.878933 0.734130 0.046952 0.227796
H5    H     H_    0.199518 0.403579 0.766422 0.227593
H6    H     H_    0.171996 0.745707 0.892480 0.223439
H7    H     H_    0.840901 0.584368 0.788077 0.236713
H8    H     H_    0.829689 0.254160 0.892562 0.224608
H9    H     H_    0.902338 0.190500 0.795177 0.208311
H10   H     H_    0.916347 0.659464 0.702382 0.225605
H11   H     H_    0.097344 0.806540 0.794803 0.206657
H12   H     H_    0.826395 0.695860 0.655421 0.220493
H13   H     H_    0.120005 0.328988 0.683913 0.216558
H14   H     H_    0.954901 0.811172 0.131179 0.212868
H15   H     H_    0.694530 0.308868 0.455871 0.205983
H16   H     H_    0.021868 0.241685 0.170791 0.218972
H17   H     H_    0.305702 0.692914 0.456491 0.205285
H18   H     H_    0.455510 0.695251 0.364489 0.212896
H19   H     H_    0.135837 0.211036 0.041805 0.192701
H20   H     H_    0.544385 0.304290 0.366400 0.218197
H21   H     H_    0.804090 0.811406 0.042687 0.201000
H22   H     H_    0.280348 0.400337 0.694494 0.209652
H23   H     H_    0.179773 0.874492 0.773735 0.214964
H24   H     H_    0.255242 0.812503 0.870763 0.213187
H25   H     H_    0.750167 0.619560 0.741729 0.210669
H26   H     H_    0.744699 0.189345 0.873803 0.211251
H27   H     H_    0.449253 0.726673 0.845753 0.165805
H28   H     H_    0.247191 0.415858 0.900995 0.180436
H29   H     H_    0.552688 0.273096 0.847341 0.165865
H30   H     H_    0.753186 0.583867 0.909889 0.182226
H31   H     H_    0.416838 0.247224 0.084501 0.169709
H32   H     H_    0.286228 0.537598 0.162721 0.159555
H33   H     H_    0.581292 0.752506 0.098915 0.185858
H34   H     H_    0.200396 0.325306 0.611511 0.219880
H35   H     H_    0.714147 0.460165 0.161608 0.161309
H36   H     H_    0.919500 0.252829 0.401245 0.187019
H37   H     H_    0.787204 0.961196 0.337584 0.159193
H38   H     H_    0.080394 0.747368 0.402376 0.186545
H39   H     H_    0.212222 0.038390 0.337632 0.144322
H40   H     H_    0.966402 0.791644 0.664139 0.145829
H41   H     H_    0.745962 0.083069 0.595004 0.185737
H42   H     H_    0.039988 0.214548 0.661201 0.146979
H43   H     H_    0.254078 0.916303 0.592674 0.185710
H44   H     H_    0.131866 0.738829 0.261869 0.158248
H45   H     H_    0.880764 0.889244 0.126692 0.204505
H46   H     H_    0.282198 0.100790 0.252697 0.160659
H47   H     H_    0.867516 0.258391 0.258972 0.151354
H48   H     H_    0.709681 0.834999 0.326173 0.163598
H49   H     H_    0.171062 0.101540 0.831187 0.142317
H50   H     H_    0.323361 0.750141 0.585030 0.142903
H51   H     H_    0.785784 0.922628 0.810712 0.156394
H52   H     H_    0.677692 0.250714 0.587201 0.142684
H53   H     H_    0.605125 0.321886 0.686649 0.145733
H54   H     H_    0.710969 0.845725 0.903206 0.176095
H55   H     H_    0.397140 0.680403 0.684690 0.146142
H56   H     H_    0.620507 0.229438 0.452226 0.226905
H57   H     H_    0.251613 0.180447 0.918189 0.153876
H58   H     H_    0.633104 0.756552 0.241473 0.157023
H59   H     H_    0.790763 0.335251 0.173029 0.162082
H60   H     H_    0.350222 0.166761 0.154209 0.168502
H61   H     H_    0.207814 0.659935 0.177426 0.163463
H62   H     H_    0.065181 0.147542 0.141677 0.200879
H63   H     H_    0.380094 0.771897 0.449145 0.226614
H64   H     H_    0.382201 0.615349 0.372701 0.205577
I1    I     I_    0.435500 0.189891 0.918818 -0.389790
I2    I     I_    0.309403 0.940184 0.419043 -0.408192
I3    I     I_    0.066028 0.298253 0.360495 -0.379004
I4    I     I_    0.690865 0.059142 0.421141 -0.404580
I5    I     I_    0.940409 0.309257 0.574091 -0.389471
I6    I     I_    0.293449 0.058255 0.649655 -0.357590
I7    I     I_    0.059267 0.690774 0.575107 -0.398149
I8    I     I_    0.706706 0.939320 0.652082 -0.368506
I9    I     I_    0.803267 0.439671 0.875643 -0.432034
I10   I     I_    0.558805 0.807449 0.927131 -0.396794
I11   I     I_    0.197730 0.559095 0.871112 -0.417848
I12   I     I_    0.435769 0.796324 0.142038 -0.374806
I13   I     I_    0.809524 0.562281 0.080633 -0.408984
I14   I     I_    0.556523 0.204814 0.147211 -0.382238
I15   I     I_    0.192748 0.442540 0.072628 -0.418302
I16   I     I_    0.935483 0.704406 0.356062 -0.367484
N1    N     N_R   0.425360 0.368540 0.922560 -0.070644
N2    N     N_R   0.131460 0.925360 0.422560 -0.069483
N3    N     N_R   0.074640 0.131460 0.422560 -0.061493
N4    N     N_R   0.868540 0.074640 0.422560 -0.068258
N5    N     N_R   0.925360 0.131460 0.577440 -0.070292
N6    N     N_R   0.131460 0.074640 0.577440 -0.061813
N7    N     N_R   0.074640 0.868540 0.577440 -0.071140
N8    N     N_R   0.868540 0.925360 0.577440 -0.060152
N9    N     N_R   0.425340 0.631500 0.922560 -0.050304
N10   N     N_R   0.368500 0.425340 0.922560 -0.054785
N11   N     N_R   0.574660 0.368500 0.922560 -0.051293
N12   N     N_R   0.631460 0.425360 0.922560 -0.061954
N13   N     N_R   0.631500 0.574660 0.922560 -0.055616
N14   N     N_R   0.425340 0.368500 0.077440 -0.060748
N15   N     N_R   0.368500 0.574660 0.077440 -0.044640
N16   N     N_R   0.574660 0.631500 0.077440 -0.057880
N17   N     N_R   0.631500 0.425340 0.077440 -0.045832
N18   N     N_R   0.925340 0.131500 0.422560 -0.058180
N19   N     N_R   0.868500 0.925340 0.422560 -0.045513
N20   N     N_R   0.074660 0.868500 0.422560 -0.058720
N21   N     N_R   0.131500 0.074660 0.422560 -0.048203
N22   N     N_R   0.925340 0.868500 0.577440 -0.043854
N23   N     N_R   0.574640 0.631460 0.922560 -0.068865
N24   N     N_R   0.868500 0.074660 0.577440 -0.060627
N25   N     N_R   0.074660 0.131500 0.577440 -0.044394
N26   N     N_R   0.131500 0.925340 0.577440 -0.060703
N27   N     N_R   0.368540 0.574640 0.922560 -0.061560
N28   N     N_R   0.425360 0.631460 0.077440 -0.059555
N29   N     N_R   0.631460 0.574640 0.077440 -0.067939
N30   N     N_R   0.574640 0.368540 0.077440 -0.062307
N31   N     N_R   0.368540 0.425360 0.077440 -0.068221
N32   N     N_R   0.925360 0.868540 0.422560 -0.059971
Ni1   Ni    Ni4+2 0.500000 0.369720 0.000000 0.250226
Ni2   Ni    Ni4+2 0.630280 0.500000 0.000000 0.252413
Ni3   Ni    Ni4+2 0.500000 0.630280 0.000000 0.255628
Ni4   Ni    Ni4+2 0.369720 0.500000 0.000000 0.255965
Ni5   Ni    Ni4+2 1.000000 0.869720 0.500000 0.254119
Ni6   Ni    Ni4+2 0.130280 1.000000 0.500000 0.254677
Ni7   Ni    Ni4+2 0.000000 0.130280 0.500000 0.253535
Ni8   Ni    Ni4+2 0.869720 1.000000 0.500000 0.254318

loop_
_geom_bond_atom_site_label_1
_geom_bond_atom_site_label_2
_ccdc_geom_bond_type
C11   C96   A    
C58   C62   A    
C21   I8    S    
N11   N12   A    
C40   H27   S    
C67   C101  S    
C53   N22   A    
C84   C101  A    
C112  H47   S    
C55   H42   S    
C82   C99   A    
N2    Ni6   S    
C1    N1    A    
C53   C74   A    
C68   C103  S    
C6    C108  A    
C29   H62   S    
C25   N12   A    
C86   C104  A    
C24   C89   S    
C54   H41   S    
C56   N26   A    
C42   N11   A    
C102  N32   A    
C7    C8    A    
C55   N25   A    
C38   C76   S    
C3    C105  A    
C54   N24   A    
C77   C89   A    
N15   N28   A    
N6    Ni6   S    
C9    H54   S    
C111  H46   S    
C29   C32   S    
C52   H39   S    
C36   N23   A    
C63   C69   A    
C30   C31   S    
C27   H14   S    
C70   C104  S    
C92   C109  A    
C73   C107  S    
C46   H33   S    
C43   N13   A    
C81   C98   A    
C22   C39   S    
C34   H4    S    
C39   H8    S    
C48   H35   S    
C71   C109  S    
C45   C62   A    
C31   C83   S    
C35   H22   S    
C103  C111  A    
C4    C106  A    
C40   N9    A    
C26   H34   S    
C66   C102  A    
N26   Ni6   S    
C41   H28   S    
C80   N30   A    
C3    C12   A    
C76   C94   A    
C33   C81   S    
C58   N28   A    
C51   N20   A    
C22   H1    S    
N30   Ni1   S    
C37   H6    S    
N4    Ni8   S    
C51   H38   S    
C78   C96   A    
C10   H55   S    
C57   C96   S    
C49   N18   A    
C15   H60   S    
C45   H32   S    
N8    N22   A    
N18   Ni7   S    
C12   H58   S    
C39   C75   S    
N27   Ni4   S    
C29   C85   S    
C81   C86   A    
C52   C68   A    
C28   H15   S    
N4    N18   A    
C64   C98   S    
C39   H26   S    
C17   C70   A    
C45   N15   A    
C30   C84   S    
N17   N30   A    
C64   C80   A    
C44   C65   A    
N7    N26   A    
C1    I1    S    
C6    C9    A    
C56   H43   S    
C47   N27   A    
C19   I6    S    
C79   C87   A    
C90   C108  A    
C14   C98   A    
C23   H10   S    
C31   H64   S    
N5    Ni7   S    
C27   C34   S    
C18   N5    A    
C33   H3    S    
N19   Ni8   S    
C54   C71   A    
C16   C110  A    
C15   C111  A    
C19   C72   A    
C65   C99   S    
C2    C67   A    
C69   I13   S    
C104  C112  A    
C28   H56   S    
N31   Ni4   S    
C16   C100  A    
C33   H20   S    
C34   H21   S    
N16   N29   A    
C13   I3    S    
C58   I12   S    
N29   Ni2   S    
C77   C95   A    
C24   H11   S    
N1    N10   A    
C7    C109  A    
N28   Ni3   S    
C2    N2    A    
C26   H13   S    
C43   H30   S    
C14   C112  A    
C20   N7    A    
C46   N16   A    
C1    C57   A    
C34   C79   S    
C53   H40   S    
C88   C106  A    
N15   Ni4   S    
C102  I16   S    
C83   C84   A    
C87   C105  A    
N14   N31   A    
C89   C107  A    
N14   Ni1   S    
C44   N14   A    
C24   C37   S    
C23   C90   S    
N3    Ni7   S    
N13   Ni2   S    
N9    Ni3   S    
C48   N17   A    
C4    C11   A    
C27   C87   S    
C50   C66   A    
N9    N27   A    
C12   C97   A    
N5    N24   A    
C25   I9    S    
C43   C60   A    
C20   I7    S    
C62   C100  S    
C38   H7    S    
C75   C92   A    
C24   H23   S    
C26   C88   S    
C41   C57   A    
C72   C106  S    
C28   C33   S    
C11   H57   S    
C49   C70   A    
C16   H61   S    
C28   C86   S    
C3    H48   S    
C35   H5    S    
N6    N25   A    
C27   H45   S    
N17   Ni2   S    
C66   C105  S    
C91   N31   A    
C82   C85   A    
C30   H63   S    
N11   Ni1   S    
C21   N8    A    
C75   C93   A    
C22   H9    S    
C5    C107  A    
C78   C88   A    
C18   C71   A    
C65   C91   A    
C37   C77   S    
C19   N6    A    
C37   H24   S    
C56   C73   A    
C80   I14   S    
C79   C97   A    
C110  H44   S    
C8    C93   A    
C55   C72   A    
C15   C99   A    
C14   H59   S    
C36   C60   A    
C85   C103  A    
C42   C59   A    
C47   C61   A    
N10   Ni4   S    
C61   C95   S    
C23   H12   S    
C17   I4    S    
C31   H18   S    
C30   H17   S    
C32   C82   S    
C7    H52   S    
C35   C78   S    
C18   I5    S    
C23   C38   S    
C46   C63   A    
C83   C100  A    
N13   N23   A    
C59   C93   S    
C5    H50   S    
C101  C110  A    
N1    Ni1   S    
C5    C10   A    
N16   Ni3   S    
N32   Ni5   S    
N25   Ni7   S    
N12   Ni2   S    
N20   Ni5   S    
N22   Ni5   S    
C50   H37   S    
C51   C67   A    
C91   I15   S    
C10   C95   A    
C44   H31   S    
N19   N32   A    
C21   C74   A    
C52   N21   A    
N24   Ni8   S    
C38   H25   S    
C20   C73   A    
C36   I10   S    
N7    Ni5   S    
N3    N21   A    
N2    N20   A    
C48   C64   A    
C8    H53   S    
C40   C61   A    
C74   C108  S    
N23   Ni3   S    
C26   C35   S    
N8    Ni8   S    
C6    H51   S    
C49   H36   S    
C63   C97   S    
C13   N3    A    
C29   H16   S    
C22   C92   S    
C4    H49   S    
C17   N4    A    
C25   C59   A    
C2    I2    S    
C69   N29   A    
C32   H2    S    
C41   N10   A    
C50   N19   A    
C47   I11   S    
C9    C94   A    
C32   H19   S    
N21   Ni6   S    
C42   H29   S    
C76   C90   A    
C13   C68   A    
C60   C94   S    
