data_mof_unit_3705.cif
_audit_creation_date              2013-03-05T15:45:58-0500
_audit_creation_method            fapswitch 2.2
_symmetry_space_group_name_H-M    P1
_symmetry_Int_Tables_number       1
_space_group_crystal_system       triclinic
_cell_length_a                    19.159969
_cell_length_b                    11.070819
_cell_length_c                    18.801178
_cell_angle_alpha                 89.772345
_cell_angle_beta                  90.149776
_cell_angle_gamma                 90.456058
_cell_volume                      3987.86987893

loop_
_atom_site_label
_atom_site_type_symbol
_atom_site_description
_atom_site_fract_x
_atom_site_fract_y
_atom_site_fract_z
_atom_type_partial_charge
O1    O     O_R   0.787510 0.042610 0.670410 -0.524127
O2    O     O_R   0.212490 0.042610 0.329590 -0.506869
O3    O     O_R   0.287510 0.542610 0.670410 -0.524291
O4    O     O_R   0.712490 0.542610 0.329590 -0.506865
O5    O     O_R   0.765670 0.292090 0.675090 -0.487293
O6    O     O_R   0.234330 0.292090 0.324910 -0.516678
O7    O     O_R   0.265670 0.792090 0.675090 -0.487463
O8    O     O_R   0.734330 0.792090 0.324910 -0.516651
C1    C     C_R   0.729305 0.374613 0.645593 0.597342
C2    C     C_R   0.269916 0.377689 0.353521 0.584884
C3    C     C_R   0.229305 0.874613 0.645593 0.597211
C4    C     C_R   0.769916 0.877688 0.353522 0.584906
O9    O     O_R   0.670220 0.409020 0.668560 -0.481322
O10   O     O_R   0.329780 0.409020 0.331440 -0.463988
O11   O     O_R   0.170220 0.909020 0.668560 -0.481436
O12   O     O_R   0.829780 0.909020 0.331440 -0.463971
O13   O     O_R   0.556580 0.251590 0.674980 -0.518896
O14   O     O_R   0.443420 0.251590 0.325020 -0.487727
O15   O     O_R   0.056580 0.751590 0.674980 -0.518996
O16   O     O_R   0.943420 0.751590 0.325020 -0.487707
C5    C     C_R   0.529910 0.154604 0.648020 0.555410
C6    C     C_R   0.437136 0.149699 0.361036 0.550745
C7    C     C_R   0.029910 0.654604 0.648020 0.555330
C8    C     C_R   0.937136 0.649699 0.361036 0.550759
O17   O     O_R   0.545890 0.049670 0.670030 -0.450686
O18   O     O_R   0.454110 0.049670 0.329970 -0.427517
O19   O     O_R   0.045890 0.549670 0.670030 -0.450753
O20   O     O_R   0.954110 0.549670 0.329970 -0.427494
O21   O     O_R   0.681340 0.957860 0.676500 -0.448892
O22   O     O_R   0.318660 0.957860 0.323500 -0.458199
O23   O     O_R   0.181340 0.457860 0.676500 -0.449057
O24   O     O_R   0.818660 0.457860 0.323500 -0.458211
C9    C     C_R   0.740546 0.971134 0.646587 0.581929
C10   C     C_R   0.258579 0.970269 0.352345 0.610072
C11   C     C_R   0.240546 0.471136 0.646587 0.581737
C12   C     C_R   0.758579 0.470269 0.352346 0.610058
O25   O     O_R   0.787380 0.044010 0.830940 -0.414477
O26   O     O_R   0.212620 0.044010 0.169060 -0.416685
O27   O     O_R   0.287380 0.544010 0.830940 -0.413650
O28   O     O_R   0.712620 0.544010 0.169060 -0.416708
O29   O     O_R   0.765540 0.293390 0.823910 -0.444665
O30   O     O_R   0.234460 0.293390 0.176090 -0.474859
O31   O     O_R   0.265540 0.793390 0.823910 -0.443225
O32   O     O_R   0.734460 0.793390 0.176090 -0.475046
C13   C     C_R   0.730502 0.379616 0.851436 0.637560
C14   C     C_R   0.271919 0.378640 0.146914 0.594440
C15   C     C_R   0.230469 0.879532 0.851484 0.638995
C16   C     C_R   0.771944 0.878563 0.146885 0.594170
O33   O     O_R   0.670090 0.410410 0.829090 -0.429098
O34   O     O_R   0.329910 0.410410 0.170910 -0.449252
O35   O     O_R   0.170090 0.910410 0.829090 -0.429196
O36   O     O_R   0.829910 0.910410 0.170910 -0.449135
O37   O     O_R   0.556450 0.252890 0.823790 -0.464202
O38   O     O_R   0.443550 0.252890 0.176210 -0.467433
O39   O     O_R   0.056450 0.752890 0.823790 -0.463953
O40   O     O_R   0.943550 0.752890 0.176210 -0.467580
C17   C     C_R   0.533702 0.157998 0.853847 0.615577
C18   C     C_R   0.465045 0.154407 0.145435 0.596876
C19   C     C_R   0.033715 0.658000 0.853853 0.616247
C20   C     C_R   0.965064 0.654415 0.145445 0.596929
O41   O     O_R   0.545750 0.051070 0.830560 -0.435778
O42   O     O_R   0.454250 0.051070 0.169440 -0.446045
O43   O     O_R   0.045750 0.551070 0.830560 -0.435622
O44   O     O_R   0.954250 0.551070 0.169440 -0.446018
O45   O     O_R   0.681210 0.959150 0.825320 -0.459488
O46   O     O_R   0.318790 0.959150 0.174680 -0.439970
O47   O     O_R   0.181210 0.459150 0.825320 -0.459069
O48   O     O_R   0.818790 0.459150 0.174680 -0.440102
C21   C     C_R   0.740720 0.967185 0.853631 0.664212
C22   C     C_R   0.270455 0.017658 0.138503 0.555836
C23   C     C_R   0.240748 0.467109 0.853598 0.665112
C24   C     C_R   0.770436 0.517602 0.138488 0.555690
Cr1   Cr    Cr6+3 0.771950 0.169480 0.750100 1.179712
Cr2   Cr    Cr6+3 0.228050 0.169480 0.249900 1.137449
Cr3   Cr    Cr6+3 0.271950 0.669480 0.750100 1.180380
Cr4   Cr    Cr6+3 0.728050 0.669480 0.249900 1.137343
Cr5   Cr    Cr6+3 0.614930 0.323340 0.749170 1.162102
Cr6   Cr    Cr6+3 0.385070 0.323340 0.250830 1.149419
Cr7   Cr    Cr6+3 0.114930 0.823340 0.749170 1.162403
Cr8   Cr    Cr6+3 0.885070 0.823340 0.250830 1.149385
Cr9   Cr    Cr6+3 0.616590 0.010620 0.750610 1.218914
Cr10  Cr    Cr6+3 0.383410 0.010620 0.249390 1.190432
Cr11  Cr    Cr6+3 0.116590 0.510620 0.750610 1.219228
Cr12  Cr    Cr6+3 0.883410 0.510620 0.249390 1.190376
O49   O     O_3   0.667820 0.167810 0.749960 -0.344201
O50   O     O_3   0.332180 0.167810 0.250040 -0.384960
O51   O     O_3   0.167820 0.667810 0.749960 -0.343747
O52   O     O_3   0.832180 0.667810 0.250040 -0.384910
C25   C     C_R   0.449931 0.152492 0.438371 -0.015981
C26   C     C_R   0.485239 0.160220 0.584522 0.025878
C27   C     C_R   0.949931 0.652493 0.438371 -0.015989
C28   C     C_R   0.985239 0.660220 0.584522 0.025901
C29   C     C_R   0.460877 0.262568 0.473130 -0.023145
C30   C     C_R   0.479588 0.266177 0.544236 -0.010366
C31   C     C_R   0.960877 0.762568 0.473130 -0.023149
C32   C     C_R   0.979589 0.766178 0.544236 -0.010355
C33   C     C_R   0.457324 0.052435 0.554970 0.206084
C34   C     C_R   0.444894 0.046334 0.481233 0.146762
C35   C     C_R   0.957323 0.552436 0.554971 0.206105
C36   C     C_R   0.944893 0.546334 0.481234 0.146768
C37   C     C_3   0.509258 0.364720 0.455009 -0.223615
C38   C     C_3   0.529093 0.369142 0.533160 -0.232433
C39   C     C_3   0.009259 0.864720 0.455008 -0.223617
C40   C     C_3   0.029094 0.869142 0.533159 -0.232439
H1    H     H_    0.980936 0.946225 0.436808 0.203030
H2    H     H_    0.084124 0.844306 0.543390 0.154603
H3    H     H_    0.480936 0.446224 0.436808 0.203033
H4    H     H_    0.584123 0.344307 0.543391 0.154605
H5    H     H_    0.552907 0.336848 0.420016 0.199315
H6    H     H_    0.511429 0.452701 0.560060 0.195862
H7    H     H_    0.052907 0.836849 0.420015 0.199320
H8    H     H_    0.011431 0.952701 0.560059 0.195854
C41   C     C_R   0.696309 0.863058 0.536520 0.197122
C42   C     C_R   0.225450 0.826486 0.450059 0.199950
C43   C     C_R   0.196305 0.363073 0.536517 0.197137
C44   C     C_R   0.725449 0.326487 0.450059 0.199963
C45   C     C_R   0.700338 0.854381 0.462565 -0.117273
C46   C     C_R   0.222449 0.806593 0.523396 -0.146769
C47   C     C_R   0.200334 0.354394 0.462563 -0.117267
C48   C     C_R   0.722448 0.306594 0.523396 -0.146776
H9    H     H_    0.665166 0.793038 0.435187 0.185702
H10   H     H_    0.201491 0.721897 0.543566 0.129550
H11   H     H_    0.165158 0.293059 0.435185 0.185693
H12   H     H_    0.701489 0.221899 0.543566 0.129558
C49   C     C_R   0.751873 0.917758 0.424523 0.036097
C50   C     C_R   0.242900 0.897023 0.571475 0.034498
C51   C     C_R   0.251873 0.417762 0.424522 0.036112
C52   C     C_R   0.742900 0.397023 0.571475 0.034456
C53   C     C_R   0.797125 0.997409 0.460374 0.160695
C54   C     C_R   0.268018 0.008161 0.547542 0.168886
C55   C     C_R   0.297128 0.497407 0.460374 0.160685
C56   C     C_R   0.768018 0.508161 0.547542 0.168878
C57   C     C_R   0.797072 0.999339 0.533088 -0.149335
C58   C     C_R   0.272898 0.028049 0.474911 -0.130566
C59   C     C_R   0.297077 0.499335 0.533088 -0.149328
C60   C     C_R   0.772899 0.528048 0.474911 -0.130558
H13   H     H_    0.834447 0.059554 0.558214 0.197201
H14   H     H_    0.292537 0.114501 0.455992 0.102221
H15   H     H_    0.334454 0.559542 0.558215 0.197198
H16   H     H_    0.792538 0.614500 0.455992 0.102219
C61   C     C_R   0.747071 0.934645 0.572500 -0.000701
C62   C     C_R   0.252701 0.937874 0.426353 0.024153
C63   C     C_R   0.247071 0.434648 0.572500 -0.000649
C64   C     C_R   0.752701 0.437874 0.426353 0.024164
C65   C     C_R   0.464826 0.078282 0.952214 0.149642
C66   C     C_R   0.460663 0.061607 0.025098 0.121322
C67   C     C_R   0.964877 0.578283 0.952237 0.149323
C68   C     C_R   0.960745 0.561594 0.025119 0.121288
C69   C     C_R   0.487919 0.151965 0.071876 -0.009246
C70   C     C_R   0.506617 0.171248 0.925634 0.004113
C71   C     C_R   0.987958 0.651997 0.071890 -0.009363
C72   C     C_R   0.006650 0.671260 0.925647 0.004266
C73   C     C_R   0.529726 0.244530 0.045764 0.195436
C74   C     C_R   0.535852 0.258894 0.972451 0.177354
C75   C     C_R   0.029706 0.744642 0.045768 0.194856
C76   C     C_R   0.035862 0.758954 0.972450 0.177637
C77   C     C_R   0.812838 0.907306 0.955111 0.147292
C78   C     C_R   0.231563 0.063679 0.015724 0.050192
C79   C     C_R   0.312823 0.407629 0.955193 0.147136
C80   C     C_R   0.731375 0.563624 0.015720 0.050229
C81   C     C_R   0.820574 0.927229 0.028049 0.149736
C82   C     C_R   0.236569 0.038877 0.943198 0.190694
C83   C     C_R   0.320524 0.427572 0.028117 0.149492
C84   C     C_R   0.736404 0.538985 0.943165 0.190798
C85   C     C_R   0.761300 0.917281 0.073109 -0.032928
C86   C     C_R   0.250218 0.920302 0.922612 0.003004
C87   C     C_R   0.261255 0.417557 0.073170 -0.033221
C88   C     C_R   0.750359 0.420569 0.922491 0.002019
C89   C     C_R   0.694532 0.919237 0.044773 0.200865
C90   C     C_R   0.263338 0.832532 0.975145 0.214030
C91   C     C_R   0.194496 0.419646 0.044822 0.199947
C92   C     C_R   0.763872 0.332856 0.974905 0.213644
C93   C     C_R   0.686459 0.907907 0.970886 0.168157
C94   C     C_R   0.265964 0.861878 0.046365 0.202649
C95   C     C_R   0.186439 0.408401 0.970928 0.167800
C96   C     C_R   0.766284 0.362012 0.046180 0.203681
C97   C     C_R   0.746377 0.913133 0.925439 0.034708
C98   C     C_R   0.259096 0.981733 0.065417 -0.028837
C99   C     C_R   0.246369 0.413393 0.925492 0.034515
C100  C     C_R   0.759091 0.481749 0.065361 -0.029392
Br1   Br    Br    0.436471 0.911170 0.613386 -0.283614
Br2   Br    Br    0.430545 0.887687 0.441865 -0.305256
Br3   Br    Br    0.936467 0.411175 0.613389 -0.283604
Br4   Br    Br    0.930543 0.387688 0.441866 -0.305248
Br5   Br    Br    0.891990 0.888639 0.892866 -0.302194
Br6   Br    Br    0.150484 0.148186 0.044075 -0.235622
Br7   Br    Br    0.392056 0.389063 0.893051 -0.301834
Br8   Br    Br    0.650247 0.647930 0.044183 -0.235300
N1    N     N_R   0.884613 0.979897 0.054204 0.154536
O53   O     O_R   0.883642 0.079478 0.090499 -0.174327
O54   O     O_R   0.944373 0.940450 0.033698 -0.250398
N2    N     N_R   0.219675 0.128484 0.890892 0.080064
O55   O     O_R   0.267458 0.162262 0.845842 -0.297991
O56   O     O_R   0.154682 0.149571 0.875748 -0.201164
N3    N     N_R   0.384542 0.480273 0.054270 0.154679
O57   O     O_R   0.383567 0.580063 0.090365 -0.174675
O58   O     O_R   0.444317 0.440290 0.034164 -0.250769
N4    N     N_R   0.719281 0.628537 0.890907 0.080199
O59   O     O_R   0.766923 0.662451 0.845736 -0.297978
O60   O     O_R   0.654227 0.649280 0.875866 -0.200699
N5    N     N_R   0.636444 0.943441 0.091072 0.104637
O61   O     O_R   0.583180 0.870512 0.094596 -0.193734
O62   O     O_R   0.641333 0.030057 0.137414 -0.266672
N6    N     N_R   0.264356 0.709923 0.957446 0.082282
O63   O     O_R   0.205502 0.655641 0.944227 -0.408561
O64   O     O_R   0.324049 0.658494 0.946944 -0.231167
N7    N     N_R   0.136392 0.443640 0.091132 0.104364
O65   O     O_R   0.083259 0.370437 0.094715 -0.193496
O66   O     O_R   0.141215 0.530198 0.137516 -0.267010
N8    N     N_R   0.765044 0.210329 0.957035 0.083272
O67   O     O_R   0.706100 0.154641 0.946265 -0.408188
O68   O     O_R   0.824721 0.158202 0.947601 -0.230097
Br9   Br    Br    0.593409 0.879806 0.936248 -0.194351
Br10  Br    Br    0.261719 0.735255 0.117247 -0.198055
Br11  Br    Br    0.093429 0.379927 0.936293 -0.194290
Br12  Br    Br    0.762060 0.235213 0.116949 -0.196389
N9    N     N_R   0.641184 0.798377 0.572724 0.102362
O69   O     O_R   0.652952 0.741996 0.632334 -0.241753
O70   O     O_R   0.581628 0.780590 0.540859 -0.274763
N10   N     N_R   0.198034 0.736414 0.401943 0.081568
O71   O     O_R   0.215951 0.734841 0.335249 -0.242074
O72   O     O_R   0.154970 0.653713 0.425062 -0.357256
N11   N     N_R   0.141172 0.298414 0.572721 0.102356
O73   O     O_R   0.081601 0.280709 0.540868 -0.274726
O74   O     O_R   0.152939 0.241986 0.632316 -0.241844
N12   N     N_R   0.698031 0.236416 0.401943 0.081567
O75   O     O_R   0.715946 0.234845 0.335248 -0.242174
O76   O     O_R   0.654969 0.153713 0.425063 -0.357263
Br13  Br    Br    0.860910 0.108307 0.414947 -0.349415
Br14  Br    Br    0.297628 0.131782 0.612428 -0.422132
Br15  Br    Br    0.360915 0.608302 0.414948 -0.349405
Br16  Br    Br    0.797630 0.631780 0.612428 -0.422090
Br17  Br    Br    0.414054 0.972271 0.888103 -0.314573
Br18  Br    Br    0.429945 0.902419 0.055290 -0.226675
Br19  Br    Br    0.914113 0.472249 0.888136 -0.315172
Br20  Br    Br    0.930137 0.402346 0.055314 -0.226448
Br21  Br    Br    0.579211 0.349861 0.111032 -0.224681
Br22  Br    Br    0.570777 0.412273 0.940680 -0.207329
Br23  Br    Br    0.079060 0.850179 0.111025 -0.225050
Br24  Br    Br    0.070804 0.912323 0.940643 -0.207173

loop_
_geom_bond_atom_site_label_1
_geom_bond_atom_site_label_2
_geom_bond_distance
_ccdc_geom_bond_type
O7    Cr3   1.957645 S    
C37   H3    1.109111 S    
Cr11  O51   1.991154 S    
C18   O42   1.244143 A    
O4    C12   1.269177 A    
C57   H13   1.083269 S    
C29   C30   1.383867 A    
O39   C19   1.265738 A    
O20   Cr12  2.074184 S    
N5    O61   1.297898 A    
O15   C7    1.290400 A    
C31   C32   1.383865 A    
C68   C71   1.429352 A    
C28   C32   1.398549 A    
C60   H16   1.084619 S    
C47   H11   1.083489 S    
C67   Br19  1.939957 S    
O29   Cr1   1.959931 S    
C66   Br18  1.936949 S    
C33   C34   1.407833 A    
O1    C9    1.275074 A    
O27   Cr3   2.077102 S    
C19   C72   1.455635 S    
C76   Br24  1.914334 S    
O15   Cr7   1.952691 S    
C59   H15   1.083269 S    
C96   C100  1.383179 A    
C73   C74   1.392032 A    
C37   C38   1.517601 S    
O36   Cr8   2.073721 S    
N11   O74   1.300718 A    
C42   C62   1.406598 A    
C43   N11   1.442027 S    
O40   C20   1.306303 A    
C77   Br5   1.930907 S    
C92   N8    1.399131 S    
C46   H10   1.084545 S    
O38   Cr6   1.965415 S    
O47   C23   1.259888 A    
O46   Cr10  1.953628 S    
C50   C54   1.391124 A    
C37   H5    1.111776 S    
C53   Br13  1.924459 S    
O8    Cr4   1.964076 S    
O10   Cr6   2.086796 S    
O23   Cr11  1.961825 S    
C33   Br1   1.946899 S    
C39   H7    1.111776 S    
O30   C14   1.301510 A    
C77   C81   1.397131 A    
C79   Br7   1.930821 S    
O32   Cr4   1.950823 S    
C1    O9    1.274303 A    
C80   C100  1.404634 A    
C69   C73   1.384846 A    
C39   C40   1.517604 S    
C21   C97   1.478643 S    
C44   C64   1.406598 A    
C3    O11   1.274304 A    
N8    O67   1.298173 A    
O11   Cr7   2.073617 S    
C16   C85   1.464393 S    
C67   C68   1.384326 A    
O21   C9    1.274656 A    
C31   C39   1.495412 S    
C70   C74   1.423234 A    
C96   Br12  1.931675 S    
C26   C30   1.398549 A    
N4    O59   1.300589 A    
O6    Cr2   1.964076 S    
C71   C75   1.384924 A    
C27   C36   1.425144 A    
O3    Cr3   2.081388 S    
Cr4   O52   1.995357 S    
C26   C33   1.418517 A    
C90   N6    1.399156 S    
C65   C70   1.391058 A    
O2    Cr2   2.070121 S    
C18   C69   1.452294 S    
O8    C4    1.282232 A    
Cr9   O49   1.991154 S    
O2    C10   1.269177 A    
C59   C63   1.403005 A    
O24   C12   1.282384 A    
O42   Cr10  2.073135 S    
Cr5   O49   2.004839 S    
O18   Cr10  2.074184 S    
C82   C86   1.396952 A    
Cr7   O51   2.004839 S    
O31   Cr3   1.959931 S    
N5    O62   1.300846 A    
C7    O19   1.271115 A    
C54   C58   1.385609 A    
C4    O12   1.266215 A    
C78   Br6   1.898449 S    
C41   N9    1.442046 S    
N10   O71   1.301158 A    
C84   N4    1.432355 S    
C14   O34   1.246683 A    
C65   C66   1.384379 A    
O9    Cr5   2.073617 S    
C5    C26   1.468540 S    
C85   C89   1.384783 A    
O24   Cr12  1.952628 S    
C43   C63   1.421335 A    
C82   N2    1.432363 S    
C1    C52   1.438540 S    
O30   Cr2   1.950823 S    
C14   C87   1.464515 S    
O22   C10   1.282383 A    
C92   C96   1.380197 A    
N7    O65   1.297885 A    
O48   Cr12  1.953628 S    
C10   C62   1.439995 S    
C72   C76   1.423276 A    
C84   C88   1.396924 A    
C3    C50   1.438541 S    
N11   O73   1.301379 A    
C81   N1    1.440492 S    
O3    C11   1.275069 A    
C2    O10   1.266212 A    
C29   C37   1.495412 S    
C40   H8    1.111610 S    
C15   C86   1.461048 S    
O16   Cr8   1.955418 S    
C22   C98   1.447434 S    
C15   O35   1.278696 A    
C4    C49   1.451840 S    
O26   Cr2   2.082024 S    
C9    C61   1.457823 S    
N9    O69   1.300711 A    
Cr10  O50   2.004848 S    
C25   C34   1.425145 A    
C89   N5    1.442177 S    
O13   C5    1.290401 A    
C44   C48   1.396698 A    
C43   C47   1.396494 A    
C44   N12   1.443947 S    
O48   C24   1.320166 A    
O12   Cr8   2.086796 S    
C20   C71   1.452309 S    
C95   Br11  1.919850 S    
O22   Cr10  1.952628 S    
C93   Br9   1.919912 S    
O5    C1    1.277410 A    
C58   C62   1.406800 A    
C66   C69   1.429382 A    
O39   Cr7   1.953875 S    
O25   C21   1.300630 A    
C55   C59   1.367376 A    
O7    C3    1.277409 A    
C35   C36   1.407834 A    
C83   N3    1.440273 S    
C83   C87   1.421854 A    
C56   C60   1.385608 A    
C17   C70   1.455654 S    
O13   Cr5   1.952691 S    
C13   O33   1.278713 A    
C39   H1    1.109112 S    
C54   Br14  1.918436 S    
C77   C97   1.390755 A    
O47   Cr11  1.956121 S    
Cr2   O50   1.995357 S    
C38   H4    1.107895 S    
O35   Cr7   2.071448 S    
Cr1   O49   1.995061 S    
C42   C46   1.396698 A    
C41   C45   1.396500 A    
N8    O68   1.297791 A    
Cr3   O51   1.995061 S    
O26   C22   1.285658 A    
N6    O64   1.297563 A    
O21   Cr9   1.961825 S    
C86   C90   1.406355 A    
N12   O76   1.301800 A    
C32   C40   1.491420 S    
C95   C99   1.433541 A    
O37   Cr5   1.953875 S    
O38   C18   1.306336 A    
C68   Br20  1.936948 S    
C53   C57   1.367373 A    
C19   O43   1.286604 A    
C38   H6    1.111610 S    
C24   C100  1.447931 S    
C91   N7    1.442102 S    
C2    C51   1.451840 S    
C8    C27   1.474286 S    
C80   C84   1.395902 A    
O34   Cr6   2.073721 S    
O14   Cr6   1.955418 S    
C90   C94   1.379818 A    
C88   C92   1.405756 A    
C55   Br15  1.924459 S    
C5    O17   1.271114 A    
C52   C56   1.391124 A    
O37   C17   1.265785 A    
O28   C24   1.285613 A    
N2    O56   1.299428 A    
C65   Br17  1.939996 S    
C7    C28   1.468539 S    
C35   Br3   1.946899 S    
C94   C98   1.383147 A    
C8    O20   1.298123 A    
C42   N10   1.443945 S    
O31   C15   1.282850 A    
O17   Cr9   2.076167 S    
O6    C2    1.282236 A    
C87   C91   1.384736 A    
C48   C52   1.404284 A    
C17   O41   1.286585 A    
C40   H2    1.107895 S    
C45   H9    1.083488 S    
C58   H14   1.084620 S    
N9    O70   1.301377 A    
O5    Cr1   1.957645 S    
C74   Br22  1.914112 S    
O25   Cr1   2.077102 S    
O40   Cr8   1.965415 S    
O29   C13   1.282846 A    
C73   Br21  1.937072 S    
N10   O72   1.301800 A    
C20   O44   1.244215 A    
O1    Cr1   2.081388 S    
N2    O55   1.300572 A    
O14   C6    1.318200 A    
C67   C72   1.391010 A    
C78   C98   1.404461 A    
C60   C64   1.406801 A    
O32   C16   1.301376 A    
O41   Cr9   2.080371 S    
C56   Br16  1.918439 S    
C89   C93   1.403357 A    
Cr6   O50   1.991038 S    
O46   C22   1.320079 A    
Cr12  O52   2.004848 S    
C91   C95   1.403353 A    
C23   C99   1.478570 S    
O44   Cr12  2.073135 S    
O45   C21   1.259722 A    
O23   C11   1.274659 A    
O19   Cr11  2.076167 S    
C34   Br2   1.926077 S    
C6    C25   1.474284 S    
O33   Cr5   2.071448 S    
C79   C83   1.396833 A    
C41   C61   1.421343 A    
C25   C29   1.399155 A    
N1    O53   1.299134 A    
C36   Br4   1.926075 S    
C13   C88   1.460965 S    
C51   C55   1.404687 A    
O4    Cr4   2.070121 S    
C78   C82   1.395715 A    
C75   Br23  1.937097 S    
N3    O57   1.299124 A    
C49   C53   1.404681 A    
C16   O36   1.246703 A    
C79   C99   1.390832 A    
N6    O63   1.297477 A    
C30   C38   1.491420 S    
C27   C31   1.399154 A    
Cr8   O52   1.991038 S    
N12   O75   1.301158 A    
C6    O18   1.298123 A    
O28   Cr4   2.082024 S    
O43   Cr11  2.080371 S    
C75   C76   1.392117 A    
N7    O66   1.300824 A    
O27   C23   1.300605 A    
O45   Cr9   1.956121 S    
N4    O60   1.299420 A    
C57   C61   1.403008 A    
C46   C50   1.404284 A    
C94   Br10  1.931748 S    
C93   C97   1.433561 A    
C12   C64   1.439994 S    
C45   C49   1.402688 A    
O16   C8    1.318200 A    
C81   C85   1.421942 A    
C48   H12   1.084546 S    
C28   C35   1.418516 A    
C11   C63   1.457823 S    
N1    O54   1.289187 A    
N3    O58   1.289258 A    
C80   Br8   1.898707 S    
C47   C51   1.402683 A    
