data_mof_unit_1590.cif
_audit_creation_date              2012-12-10T19:41:57-0500
_audit_creation_method            fapswitch 2.2
_symmetry_space_group_name_H-M    P1
_symmetry_Int_Tables_number       1
_space_group_crystal_system       triclinic
_cell_length_a                    18.318759
_cell_length_b                    18.489173
_cell_length_c                    18.43665
_cell_angle_alpha                 120.664104
_cell_angle_beta                  89.67058
_cell_angle_gamma                 120.097289
_cell_volume                      4377.06414127

loop_
_atom_site_label
_atom_site_type_symbol
_atom_type_description
_atom_site_fract_x
_atom_site_fract_y
_atom_site_fract_z
_atom_type_partial_charge
C1    C     C_R   0.140310 0.780110 0.140293 0.919517
C2    C     C_R   0.812594 0.108546 0.801134 -0.248137
C3    C     C_R   0.822388 0.056462 0.831872 0.395752
C4    C     C_R   0.860761 0.220077 0.859308 0.915726
C5    C     C_R   0.764457 0.947656 0.780870 0.398703
C6    C     C_R   0.700763 0.891531 0.697102 -0.211310
C7    C     C_R   0.699171 0.945222 0.666057 -0.221648
C8    C     C_3   0.624254 0.940576 0.626418 0.327868
C9    C     C_3   0.691757 0.056800 0.670551 0.891520
C10   C     C_R   0.809487 0.583769 0.258233 -0.100066
C11   C     C_R   0.799713 0.494385 0.190702 -0.225123
C12   C     C_R   0.704030 0.638198 0.845413 -0.320103
C13   C     C_R   0.733545 0.400624 0.178266 0.406548
C14   C     C_R   0.679867 0.401174 0.234218 0.415665
C15   C     C_R   0.694619 0.496028 0.303680 -0.228001
C16   C     C_R   0.140176 0.500983 0.859689 0.896334
C17   C     C_R   0.762849 0.585646 0.314802 -0.183973
C18   C     C_3   0.813902 0.701445 0.371592 0.827025
C19   C     C_3   0.863863 0.696576 0.300373 0.865530
C20   C     C_R   0.158654 0.946291 0.224203 -0.161265
C21   C     C_R   0.196865 0.891871 0.202150 -0.218919
C22   C     C_R   0.290101 0.947350 0.243549 0.391410
C23   C     C_R   0.716485 0.559379 0.793157 -0.081994
C24   C     C_R   0.342569 0.055443 0.303680 0.390452
C25   C     C_R   0.304696 0.108667 0.312256 -0.275869
C26   C     C_R   0.212082 0.052229 0.275144 -0.060757
C27   C     C_3   0.155206 0.057141 0.221792 0.551564
C28   C     C_R   0.858588 0.498435 0.138131 0.917366
C29   C     C_3   0.092853 0.937573 0.166085 0.501904
C30   C     C_R   0.286892 0.561021 0.224847 -0.091519
C31   C     C_R   0.194671 0.508068 0.204556 -0.196018
C32   C     C_R   0.155375 0.457178 0.245917 0.460864
C33   C     C_R   0.207960 0.450962 0.295626 -0.021714
C34   C     C_R   0.744337 0.528949 0.836899 -0.067572
C35   C     C_R   0.301487 0.502256 0.310066 -0.150919
C36   C     C_R   0.337162 0.556841 0.273888 -0.121421
C37   C     C_3   0.422307 0.617705 0.261099 0.899284
C38   C     C_3   0.364073 0.623710 0.205852 0.458104
C39   C     C_R   0.287486 0.557076 0.838869 -0.147312
C40   C     C_R   0.140125 0.502237 0.141976 0.843270
C41   C     C_R   0.196237 0.510023 0.803935 -0.070308
C42   C     C_R   0.162904 0.480834 0.717392 -0.029575
C43   C     C_R   0.218939 0.486243 0.664471 0.481941
C44   C     C_R   0.305717 0.515075 0.696624 -0.165450
C45   C     C_R   0.793958 0.488014 0.801120 -0.132403
C46   C     C_R   0.341171 0.560683 0.786776 -0.203267
C47   C     C_3   0.398999 0.550286 0.833074 0.896438
C48   C     C_3   0.337770 0.545386 0.891485 0.515627
C49   C     C_R   0.639511 0.499124 0.359978 0.876875
C50   C     C_R   0.360015 0.502708 0.639976 0.881540
C51   C     C_R   0.640330 0.779765 0.640450 0.881778
C52   C     C_R   0.856664 0.496293 0.859314 0.840831
C53   C     C_R   0.359968 0.219933 0.360837 0.883432
C54   C     C_R   0.359325 0.500209 0.361225 0.850977
C55   C     C_R   0.643473 0.503985 0.641124 0.818107
C56   C     C_R   0.793506 0.452623 0.712412 -0.018750
C57   C     C_R   0.723973 0.544806 0.916499 0.000673
C58   C     C_R   0.704954 0.617582 0.964653 0.452414
C59   C     C_R   0.704370 0.671823 0.932720 0.444654
C60   C     C_3   0.561562 0.938741 0.741411 -0.237716
C61   C     C_3   0.792938 0.168549 0.637143 -0.248651
C62   C     C_3   0.605933 0.121599 0.692141 -0.232074
C63   C     C_3   0.754240 0.272290 0.129036 -0.197864
C64   C     C_3   0.631085 0.276448 0.258396 -0.184141
C65   C     C_3   0.795041 0.836279 0.445469 -0.333341
C66   C     C_3   0.831129 0.719468 0.508144 -0.320683
C67   C     C_R   0.748655 0.463641 0.662043 0.466217
C68   C     C_3   0.835773 0.788875 0.263470 -0.266363
C69   C     C_3   0.012434 0.842103 0.371588 -0.260052
C70   C     C_3   0.370091 0.901336 0.159828 -0.204046
C71   C     C_3   0.443606 0.118547 0.426798 -0.220599
C72   C     C_3   0.062057 0.111422 0.230478 -0.289440
C73   C     C_3   0.017215 0.858316 0.016890 -0.309490
C74   C     C_3   0.051291 0.481123 0.298354 -0.263760
C75   C     C_3   0.573625 0.746807 0.355406 -0.140474
C76   C     C_3   0.403962 0.456539 0.158545 -0.376382
C77   C     C_3   0.456410 0.785204 0.231873 -0.195440
C78   C     C_R   0.705711 0.512373 0.700383 -0.183613
C79   C     C_3   0.604058 0.595377 0.037563 -0.273886
C80   C     C_3   0.220683 0.551427 0.588316 -0.304402
C81   C     C_3   0.464519 0.458537 0.780829 -0.242850
C82   C     C_3   0.515718 0.727241 0.893207 -0.350285
C83   C     C_3   0.328685 0.422276 0.906608 -0.244644
C84   C     C_3   0.783008 0.843135 0.041303 -0.357162
C85   C     C_3   0.811278 0.506494 0.570985 -0.299866
C86   C     C_3   0.965736 0.127752 0.901513 -0.252445
C87   C     C_3   0.730284 0.903236 0.877031 -0.240422
C88   C     C_R   0.757681 0.050575 0.712693 -0.145183
H1    H     H_    0.700796 0.680405 0.822921 0.228398
H2    H     H_    0.851033 0.169490 0.655981 0.185335
H3    H     H_    0.549749 0.042858 0.634738 0.195410
H4    H     H_    0.638270 0.171990 0.669510 0.167955
H5    H     H_    0.576919 0.153989 0.741641 0.169641
H6    H     H_    0.791788 0.320942 0.201973 0.099076
H7    H     H_    0.702345 0.192729 0.107280 0.152713
H8    H     H_    0.801318 0.267168 0.091920 0.219480
H9    H     H_    0.581702 0.255028 0.291593 0.227271
H10   H     H_    0.699086 0.335622 0.310581 0.111712
H11   H     H_    0.626566 0.205710 0.208803 0.143897
H12   H     H_    0.603841 0.893189 0.552430 0.126216
H13   H     H_    0.869234 0.886940 0.466017 0.170388
H14   H     H_    0.775233 0.841548 0.504033 0.206145
H15   H     H_    0.768992 0.867554 0.424134 0.157325
H16   H     H_    0.818660 0.644686 0.485402 0.145542
H17   H     H_    0.768083 0.714222 0.507434 0.187852
H18   H     H_    0.876448 0.776868 0.578758 0.183538
H19   H     H_    0.849591 0.810648 0.216508 0.199100
H20   H     H_    0.884549 0.858761 0.330600 0.110872
H21   H     H_    0.766085 0.763826 0.260507 0.222990
H22   H     H_    0.993356 0.885371 0.426283 0.154657
H23   H     H_    0.888274 0.448475 0.655997 0.192775
H24   H     H_    0.015528 0.858911 0.321422 0.175047
H25   H     H_    0.081068 0.869816 0.402297 0.185129
H26   H     H_    0.428619 0.981153 0.187869 0.170901
H27   H     H_    0.320668 0.871011 0.099363 0.136222
H28   H     H_    0.394571 0.852111 0.137621 0.160531
H29   H     H_    0.758728 0.521586 0.003381 0.267342
H30   H     H_    0.709638 0.416071 0.894280 0.164738
H31   H     H_    0.418745 0.162605 0.471982 0.127645
H32   H     H_    0.516112 0.162607 0.461594 0.192118
H33   H     H_    0.409601 0.041977 0.414819 0.172214
H34   H     H_    0.791950 0.331180 0.613916 0.205265
H35   H     H_    0.005237 0.032468 0.174739 0.140084
H36   H     H_    0.097889 0.158446 0.205536 0.165947
H37   H     H_    0.033168 0.147884 0.276846 0.195218
H38   H     H_    0.239925 0.069110 0.146500 0.174222
H39   H     H_    0.158342 0.076951 0.120663 0.165130
H40   H     H_    0.975341 0.817747 0.152354 0.238720
H41   H     H_    0.013565 0.933521 0.246954 0.174539
H42   H     H_    0.027326 0.834583 0.951216 0.183513
H43   H     H_    0.013094 0.924344 0.041200 0.135170
H44   H     H_    0.952922 0.791457 0.005395 0.193735
H45   H     H_    0.626371 0.013247 0.790855 0.183126
H46   H     H_    0.978884 0.441273 0.289799 0.178515
H47   H     H_    0.070845 0.542409 0.288848 0.162585
H48   H     H_    0.088312 0.516804 0.367898 0.129792
H49   H     H_    0.134966 0.420507 0.371690 0.195828
H50   H     H_    0.114578 0.315777 0.274993 0.200160
H51   H     H_    0.593476 0.744398 0.297517 0.147274
H52   H     H_    0.584473 0.699239 0.367324 0.248125
H53   H     H_    0.618370 0.828107 0.414619 0.142987
H54   H     H_    0.337013 0.423511 0.117769 0.159455
H55   H     H_    0.397489 0.430777 0.202372 0.183395
H56   H     H_    0.555389 0.875643 0.740867 0.138394
H57   H     H_    0.435108 0.425253 0.111306 0.205207
H58   H     H_    0.436704 0.765169 0.164215 0.145415
H59   H     H_    0.512916 0.779895 0.240884 0.131515
H60   H     H_    0.480691 0.866718 0.281144 0.203478
H61   H     H_    0.564053 0.510068 0.987590 0.146494
H62   H     H_    0.576911 0.628085 0.019344 0.192658
H63   H     H_    0.596629 0.611286 0.102855 0.208039
H64   H     H_    0.412767 0.597002 0.101681 0.171975
H65   H     H_    0.311319 0.575523 0.079624 0.264433
H66   H     H_    0.039635 0.371070 0.622924 0.217216
H67   H     H_    0.508105 0.945994 0.764718 0.182194
H68   H     H_    0.074664 0.493840 0.668712 0.184856
H69   H     H_    0.293563 0.592617 0.598272 0.152572
H70   H     H_    0.207826 0.603728 0.643202 0.133344
H71   H     H_    0.186171 0.531622 0.525364 0.183949
H72   H     H_    0.495492 0.486825 0.849467 0.151455
H73   H     H_    0.512514 0.507740 0.762303 0.232458
H74   H     H_    0.447678 0.379854 0.733803 0.149966
H75   H     H_    0.583762 0.791420 0.943420 0.219580
H76   H     H_    0.518674 0.718299 0.829386 0.208565
H77   H     H_    0.470588 0.750607 0.917801 0.127322
H78   H     H_    0.793500 0.233193 0.693641 0.227906
H79   H     H_    0.400415 0.485936 0.947575 0.122401
H80   H     H_    0.324663 0.356762 0.847206 0.198382
H81   H     H_    0.295852 0.395048 0.946619 0.174374
H82   H     H_    0.443238 0.652955 0.011618 0.170173
H83   H     H_    0.390010 0.698675 0.995887 0.151242
H84   H     H_    0.828062 0.860302 0.002961 0.151228
H85   H     H_    0.813054 0.838329 0.089606 0.194104
H86   H     H_    0.777561 0.908739 0.080589 0.185269
H87   H     H_    0.879748 0.546978 0.614693 0.136285
H88   H     H_    0.795059 0.562851 0.589569 0.144088
H89   H     H_    0.799745 0.180133 0.583443 0.166772
H90   H     H_    0.811696 0.474190 0.501255 0.182204
H91   H     H_    0.992719 0.174119 0.874359 0.131473
H92   H     H_    0.958041 0.053389 0.857048 0.167806
H93   H     H_    0.015682 0.172092 0.967444 0.184398
H94   H     H_    0.661381 0.880329 0.853727 0.125402
H95   H     H_    0.771200 0.981996 0.940774 0.190079
H96   H     H_    0.724204 0.849353 0.891193 0.196680
N1    N     N_3   0.838457 0.404683 0.672625 -0.417428
N2    N     N_3   0.709176 0.478620 0.942647 -0.422856
N3    N     N_3   0.204125 0.100074 0.174525 -0.450798
N4    N     N_3   0.005063 0.895074 0.178638 -0.489515
N5    N     N_3   0.165322 0.390788 0.329193 -0.376419
N6    N     N_3   0.350417 0.566211 0.110128 -0.506096
N7    N     N_3   0.072729 0.445015 0.682858 -0.419608
N8    N     N_3   0.380298 0.633347 0.986534 -0.475217
O1    O     O_3   0.000000 0.500000 0.000000 -0.513459
O2    O     O_R   0.323450 0.268330 0.384170 -0.600101
O3    O     O_R   0.444860 0.560620 0.384150 -0.628088
O4    O     O_R   0.055050 0.731580 0.115780 -0.633996
O5    O     O_R   0.615780 0.439200 0.555040 -0.589808
O6    O     O_R   0.323420 0.439190 0.384160 -0.611826
O7    O     O_R   0.615760 0.560630 0.676470 -0.670794
O8    O     O_R   0.615740 0.731500 0.676460 -0.631522
O9    O     O_R   0.444900 0.268330 0.384170 -0.605359
O10   O     O_R   0.615750 0.560630 0.384150 -0.623434
O11   O     O_R   0.323430 0.439200 0.555040 -0.589162
O12   O     O_R   0.055090 0.439280 0.823480 -0.635512
O13   O     O_R   0.884220 0.268410 0.823490 -0.677854
O14   O     O_R   0.176520 0.560720 0.944920 -0.641408
O15   O     O_R   0.884200 0.439290 0.115800 -0.649869
O16   O     O_R   0.176530 0.560720 0.115800 -0.626109
O17   O     O_R   0.884180 0.560710 0.944910 -0.657305
O18   O     O_R   0.055100 0.439290 0.115810 -0.597561
O19   O     O_R   0.884190 0.439280 0.823480 -0.632941
O20   O     O_3   0.546871 0.912592 0.653584 -0.606664
O21   O     O_3   0.711952 0.072375 0.602835 -0.695366
O22   O     O_3   0.669853 0.121482 0.734555 -0.646154
O23   O     O_R   0.884180 0.560710 0.115790 -0.615080
O24   O     O_3   0.712843 0.307514 0.104468 -0.581785
O25   O     O_3   0.606510 0.308362 0.213500 -0.585599
O26   O     O_3   0.755766 0.731752 0.373926 -0.645961
O27   O     O_3   0.874424 0.752461 0.456759 -0.637590
O28   O     O_3   0.842236 0.705889 0.232656 -0.601936
O29   O     O_3   0.955034 0.735235 0.330037 -0.626678
O30   O     O_3   0.330979 0.897025 0.225061 -0.556365
O31   O     O_3   0.432843 0.108045 0.345594 -0.579643
O32   O     O_3   0.121257 0.110838 0.278448 -0.571288
O33   O     O_3   0.089446 0.884376 0.075454 -0.621634
O34   O     O_R   0.176500 0.731590 0.115790 -0.606066
O35   O     O_3   0.064835 0.407799 0.234355 -0.591830
O36   O     O_3   0.484040 0.715023 0.344233 -0.620228
O37   O     O_3   0.460865 0.565435 0.209483 -0.664795
O38   O     O_3   0.381590 0.722366 0.245594 -0.550511
O39   O     O_3   0.695651 0.642135 0.047058 -0.587638
O40   O     O_3   0.186728 0.459552 0.580845 -0.584601
O41   O     O_3   0.385219 0.453217 0.772452 -0.636080
O42   O     O_3   0.491370 0.636675 0.884345 -0.646568
O43   O     O_3   0.280601 0.448896 0.877994 -0.589296
O44   O     O_3   0.696584 0.752340 0.983664 -0.582726
O45   O     O_R   0.884220 0.268420 0.944930 -0.599612
O46   O     O_3   0.746507 0.424583 0.574277 -0.590073
O47   O     O_3   0.884276 0.111280 0.914127 -0.581663
O48   O     O_3   0.772133 0.896474 0.811530 -0.594272
O49   O     O_3   0.499960 0.499910 0.499960 -0.515063
O50   O     O_R   0.615770 0.439200 0.384160 -0.646785
O51   O     O_R   0.444870 0.560630 0.676470 -0.664423
O52   O     O_R   0.615730 0.731500 0.555020 -0.658057
Zn1   Zn    Zn3+2 0.956630 0.413250 0.869870 0.950761
Zn2   Zn    Zn3+2 0.130130 0.586750 0.043370 1.002128
Zn3   Zn    Zn3+2 0.956630 0.413250 0.043380 0.998521
Zn4   Zn    Zn3+2 0.956610 0.586750 0.043370 0.987005
Zn5   Zn    Zn3+2 0.543330 0.586660 0.630080 0.939745
Zn6   Zn    Zn3+2 0.543320 0.586660 0.456570 0.965931
Zn7   Zn    Zn3+2 0.369830 0.413160 0.456580 1.029169
Zn8   Zn    Zn3+2 0.543350 0.413170 0.456590 0.981253

loop_
_geom_bond_atom_site_label_1
_geom_bond_atom_site_label_2
_ccdc_geom_bond_type
C1    O34   A    
H66   N7    S    
C73   H43   S    
C1    C21   S    
C68   O28   S    
O51   Zn5   S    
C5    O48   S    
C40   O18   A    
C27   C29   S    
C41   C42   A    
C59   O44   S    
O49   Zn7   S    
C81   O41   S    
C65   H13   S    
C87   H94   S    
C40   O16   A    
C49   O50   A    
H30   N2    S    
C7    C8    S    
C39   C41   A    
C50   O11   A    
C70   H26   S    
C61   H89   S    
C22   O30   S    
C12   C23   A    
C69   H25   S    
C77   O38   S    
C66   O27   S    
O52   Zn6   S    
C71   H32   S    
C5    C6    A    
C65   H14   S    
C13   O24   S    
H38   N3    S    
O14   Zn2   S    
C37   C38   S    
C25   C53   S    
C61   H78   S    
O13   Zn1   S    
C75   H52   S    
C9    C88   S    
C87   H95   S    
C30   C31   A    
C69   H24   S    
C65   O26   S    
C82   H75   S    
C10   C17   A    
C72   O32   S    
O3    Zn6   S    
H82   N8    S    
C85   H88   S    
C31   C40   S    
O45   Zn3   S    
C33   N5    S    
C18   C19   S    
C81   H74   S    
C22   C24   A    
C8    O20   S    
C54   O6    A    
H64   N6    S    
C58   O39   S    
C75   H53   S    
C13   C14   A    
C70   O30   S    
C73   H42   S    
C12   C59   A    
O6    Zn7   S    
O7    Zn5   S    
C37   O36   S    
C55   O7    A    
C51   O52   A    
C45   C56   A    
C8    C9    S    
C38   N6    S    
C74   H48   S    
C86   H93   S    
H39   N3    S    
O1    Zn2   S    
C14   O25   S    
C2    C88   A    
C87   O48   S    
C68   H19   S    
C29   O33   S    
C63   O24   S    
C77   H59   S    
C39   C46   A    
O12   Zn1   S    
C60   H45   S    
C79   H61   S    
C47   O42   S    
C16   C41   S    
O9    Zn8   S    
C28   O23   A    
C64   H10   S    
C73   H44   S    
C80   H69   S    
O23   Zn4   S    
C81   H72   S    
C21   C22   A    
O4    Zn4   S    
C35   C54   S    
C53   O2    A    
C62   O22   S    
C67   C78   A    
C61   O21   S    
O18   Zn3   S    
C80   O40   S    
C52   O19   A    
C84   H86   S    
C18   O27   S    
C42   N7    S    
C44   C46   A    
O34   Zn2   S    
H65   N6    S    
C64   H11   S    
C66   H18   S    
H23   N1    S    
C71   O31   S    
C47   C48   S    
C66   H16   S    
C12   H1    S    
C4    O13   A    
C63   H7    S    
O49   Zn5   S    
C24   C25   A    
C38   O38   S    
C50   O51   A    
C51   O8    A    
C87   H96   S    
C55   C78   S    
C43   O40   S    
C85   H90   S    
C80   H71   S    
C19   O29   S    
O5    Zn8   S    
C70   H28   S    
C25   C26   A    
C83   H79   S    
C63   H8    S    
C74   H47   S    
C53   O9    A    
C62   H4    S    
C35   C36   A    
C83   H81   S    
C2    C4    S    
C43   C44   A    
H68   N7    S    
C46   C47   S    
C74   O35   S    
O8    Zn5   S    
C34   C57   A    
C69   H22   S    
C80   H70   S    
C7    C88   A    
C63   H6    S    
C32   O35   S    
O49   Zn8   S    
C10   C19   S    
C4    O45   A    
C23   C34   A    
C62   H3    S    
C1    O4    A    
C86   H92   S    
C17   C18   S    
O1    Zn3   S    
C3    C5    A    
C34   C45   A    
C27   N3    S    
H34   N1    S    
C60   O20   S    
O17   Zn4   S    
C79   O39   S    
C57   N2    S    
C79   H62   S    
O11   Zn7   S    
C64   O25   S    
C64   H9    S    
O10   Zn6   S    
C83   O43   S    
C76   H57   S    
C75   O36   S    
C82   O42   S    
C72   H35   S    
C26   C27   S    
C52   O17   A    
C6    C51   S    
H49   N5    S    
C62   H5    S    
H50   N5    S    
C42   C43   A    
C65   H15   S    
C66   H17   S    
C77   H60   S    
C84   H85   S    
C18   O26   S    
C27   O32   S    
C61   H2    S    
C79   H63   S    
C24   O31   S    
C44   C50   S    
C15   C17   A    
C49   O10   A    
C36   C37   S    
C86   O47   S    
C54   O3    A    
C84   O44   S    
C20   C21   A    
H40   N4    S    
C81   H73   S    
C71   H33   S    
C31   C32   A    
O49   Zn6   S    
C14   C15   A    
C70   H27   S    
C84   H84   S    
O15   Zn3   S    
C6    C7    A    
C71   H31   S    
C9    O22   S    
C56   C67   A    
C83   H80   S    
C67   O46   S    
C16   O14   A    
C45   C52   S    
C29   N4    S    
C30   C36   A    
C72   H37   S    
H29   N2    S    
C9    O21   S    
C32   C33   A    
O19   Zn1   S    
C2    C3    A    
C58   C59   A    
C60   H67   S    
O50   Zn8   S    
C20   C26   A    
C75   H51   S    
C60   H56   S    
C73   O33   S    
C11   C13   A    
C57   C58   A    
C55   O5    A    
C82   H76   S    
C11   C28   S    
C74   H46   S    
C86   H91   S    
C33   C35   A    
O1    Zn4   S    
H83   N8    S    
C69   O29   S    
C68   H21   S    
C15   C49   S    
C23   C78   A    
C8    H12   S    
O16   Zn2   S    
C48   N8    S    
C48   O43   S    
C10   C11   A    
C76   H55   S    
C85   O46   S    
C56   N1    S    
C20   C29   S    
C37   O37   S    
H41   N4    S    
C76   O37   S    
C28   O15   A    
O1    Zn1   S    
O2    Zn7   S    
C39   C48   S    
C19   O28   S    
C68   H20   S    
C30   C38   S    
C16   O12   A    
C77   H58   S    
C72   H36   S    
C3    O47   S    
C85   H87   S    
C47   O41   S    
C82   H77   S    
C76   H54   S    
