data_mof_unit_425.cif
_audit_creation_date              2012-10-26T18:29:02-0400
_audit_creation_method            fapswitch 2.2
_symmetry_space_group_name_H-M    P1
_symmetry_Int_Tables_number       1
_space_group_crystal_system       triclinic
_cell_length_a                    11.660171
_cell_length_b                    13.004042
_cell_length_c                    15.863787
_cell_angle_alpha                 92.221618
_cell_angle_beta                  73.947122
_cell_angle_gamma                 99.849399
_cell_volume                      2277.45708464

loop_
_atom_site_label
_atom_site_type_symbol
_atom_type_description
_atom_site_fract_x
_atom_site_fract_y
_atom_site_fract_z
_atom_type_partial_charge
C1    C     C_R   0.520798 0.700871 0.501282 0.550975
C2    C     C_R   0.348144 0.015316 0.491272 -0.137866
C3    C     C_R   0.641022 0.876593 0.508228 -0.135288
C4    C     C_R   0.358978 0.123407 0.491772 -0.135288
C5    C     C_R   0.435281 0.860767 0.496476 -0.130545
C6    C     C_R   0.564719 0.139233 0.503524 -0.130545
C7    C     C_R   0.445426 0.968784 0.496921 0.048309
C8    C     C_R   0.554573 0.031216 0.503079 0.048309
C9    C     C_R   0.941288 0.598252 0.580374 -0.183497
C10   C     C_R   0.058711 0.401748 0.419627 -0.183497
C11   C     C_R   0.822603 0.588423 0.573011 0.040192
C12   C     C_R   0.479202 0.299129 0.498718 0.550975
C13   C     C_R   0.177397 0.411576 0.426989 0.040191
C14   C     C_R   0.859206 0.457344 0.465430 0.042633
C15   C     C_R   0.140794 0.542656 0.534570 0.042633
C16   C     C_R   0.426759 0.495020 0.668200 0.548795
C17   C     C_R   0.573241 0.504980 0.331800 0.548795
C18   C     C_R   0.979295 0.464261 0.470839 0.008982
C19   C     C_R   0.020705 0.535739 0.529161 0.008982
C20   C     C_R   0.383256 0.493105 0.764483 -0.002969
C21   C     C_R   0.616745 0.506894 0.235516 -0.002969
C22   C     C_R   0.223527 0.489262 0.899328 -0.135549
C23   C     C_R   0.354158 0.476419 0.087501 -0.111846
C24   C     C_R   0.776474 0.510734 0.100672 -0.135549
C25   C     C_R   0.261686 0.492651 0.808110 -0.137671
C26   C     C_R   0.738314 0.507346 0.191890 -0.137670
C27   C     C_R   0.466429 0.492580 0.812976 -0.135365
C28   C     C_R   0.533571 0.507420 0.187024 -0.135366
C29   C     C_R   0.432399 0.496466 0.905189 0.017810
C30   C     C_R   0.567602 0.503532 0.094811 0.017810
C31   C     C_R   0.306987 0.489020 0.949352 0.053328
C32   C     C_R   0.693015 0.510975 0.050648 0.053328
C33   C     C_R   0.519829 0.504620 0.953830 0.006614
C34   C     C_R   0.645843 0.523576 0.912499 -0.111847
C35   C     C_R   0.480173 0.495376 0.046169 0.006614
C36   C     C_3   0.132050 0.464791 0.089531 -0.279225
C37   C     C_3   0.096739 0.450729 0.189306 -0.449109
C38   C     C_3   0.867951 0.535200 0.910469 -0.279223
C39   C     C_3   0.903263 0.549261 0.810693 -0.449105
C40   C     C_R   0.267279 0.477912 0.041668 0.019086
C41   C     C_R   0.732722 0.522082 0.958332 0.019086
C42   C     C_R   0.467213 0.185722 0.497958 0.000597
C43   C     C_R   0.532786 0.814278 0.502042 0.000597
C44   C     C_R   0.651856 0.984684 0.508728 -0.137866
Cu1   Cu    Cu3+1 0.386820 0.492450 0.493500 0.929967
Cu2   Cu    Cu3+1 0.613180 0.507550 0.506500 0.929967
H1    H     H_    0.238174 0.363186 0.387266 0.122575
H2    H     H_    0.872174 0.513746 0.070390 0.093350
H3    H     H_    0.321439 0.457534 0.155927 0.109840
H4    H     H_    0.678564 0.542458 0.844072 0.109839
H5    H     H_    0.648646 0.186858 0.508246 0.120166
H6    H     H_    0.351354 0.813142 0.491754 0.120166
H7    H     H_    0.282703 0.158068 0.487350 0.129094
H8    H     H_    0.717297 0.841932 0.512650 0.129094
H9    H     H_    0.735994 0.031743 0.513501 0.103129
H10   H     H_    0.264006 0.968257 0.486499 0.103129
H11   H     H_    0.173709 0.597005 0.579422 0.110909
H12   H     H_    0.761826 0.636814 0.612734 0.122574
H13   H     H_    0.826291 0.402994 0.420578 0.110909
H14   H     H_    0.123094 0.378052 0.206952 0.142711
H15   H     H_    0.139370 0.519259 0.220379 0.157631
H16   H     H_    0.997069 0.443737 0.215613 0.131970
H17   H     H_    0.097079 0.534911 0.075932 0.136698
H18   H     H_    0.083995 0.395515 0.062726 0.142447
H19   H     H_    0.860629 0.480731 0.779621 0.157631
H20   H     H_    0.876910 0.621939 0.793045 0.142710
H21   H     H_    0.002932 0.556249 0.784386 0.131970
H22   H     H_    0.916009 0.604476 0.937273 0.142446
H23   H     H_    0.970663 0.654324 0.625570 0.082237
H24   H     H_    0.902921 0.465079 0.924069 0.136697
H25   H     H_    0.029336 0.345675 0.374431 0.082238
H26   H     H_    0.442720 0.514673 0.223252 0.122609
H27   H     H_    0.557281 0.485330 0.776746 0.122610
H28   H     H_    0.804331 0.507045 0.228242 0.123309
H29   H     H_    0.195669 0.492952 0.771759 0.123309
H30   H     H_    0.127827 0.486248 0.929610 0.093351
N1    N     N_R   0.216750 0.481110 0.483710 -0.228523
N2    N     N_R   0.783250 0.518890 0.516290 -0.228523
O1    O     O_R   0.419950 0.645670 0.495380 -0.509367
O2    O     O_R   0.580050 0.354330 0.504620 -0.509367
O3    O     O_R   0.611110 0.658410 0.506370 -0.506945
O4    O     O_R   0.388890 0.341590 0.493630 -0.506945
O5    O     O_R   0.350820 0.490050 0.621260 -0.502861
O6    O     O_R   0.649180 0.509950 0.378740 -0.502861
O7    O     O_R   0.541970 0.502800 0.632250 -0.509339
O8    O     O_R   0.458030 0.497200 0.367750 -0.509338

loop_
_geom_bond_atom_site_label_1
_geom_bond_atom_site_label_2
_ccdc_geom_bond_type
C30   C32   A    
C21   C26   A    
C38   H24   S    
C4    H7    S    
C27   C29   A    
C39   H19   S    
C14   C18   A    
C36   H18   S    
Cu1   O4    S    
C22   H30   S    
C37   H16   S    
C7    C8    A    
C28   H26   S    
Cu1   Cu2   S    
C15   C19   A    
C14   H13   S    
C3    C43   A    
C30   C35   A    
C36   C37   S    
C9    H23   S    
C38   C39   S    
C3    H8    S    
C23   H3    S    
C20   C25   A    
C1    O3    A    
C23   C40   A    
C29   C33   A    
C31   C40   A    
C18   C19   A    
C12   C42   S    
C26   H28   S    
C13   H1    S    
C1    C43   S    
C2    C7    A    
C22   C25   A    
C32   C41   A    
C5    H6    S    
C6    H5    S    
C11   H12   S    
Cu2   O7    S    
C10   H25   S    
C5    C43   A    
C15   H11   S    
Cu1   O5    S    
C34   C41   A    
C9    C19   A    
C13   N1    A    
C3    C44   A    
C34   H4    S    
C22   C31   A    
C17   O8    A    
C24   H2    S    
C36   C40   S    
C38   C41   S    
C5    C7    A    
C6    C8    A    
C16   O5    A    
C17   C21   S    
C25   H29   S    
C2    C4    A    
C24   C32   A    
C11   N2    A    
Cu2   O3    S    
C16   C20   S    
C33   C34   A    
C12   O4    A    
Cu1   O1    S    
C9    C11   A    
Cu2   O6    S    
C21   C28   A    
C38   H22   S    
C23   C35   A    
C16   O7    A    
C1    O1    A    
C39   H20   S    
C36   H17   S    
Cu2   N2    S    
C39   H21   S    
C8    C44   A    
C24   C26   A    
C10   C13   A    
C37   H15   S    
C20   C27   A    
C17   O6    A    
C28   C30   A    
Cu1   O8    S    
C29   C31   A    
C2    H10   S    
Cu2   O2    S    
C44   H9    S    
C15   N1    A    
C4    C42   A    
C10   C18   A    
C12   O2    A    
C33   C35   A    
C14   N2    A    
C37   H14   S    
C6    C42   A    
Cu1   N1    S    
C27   H27   S    
