data_mof_unit_3589.cif
_audit_creation_date              2012-12-10T20:48:20-0500
_audit_creation_method            fapswitch 2.2
_symmetry_space_group_name_H-M    P1
_symmetry_Int_Tables_number       1
_space_group_crystal_system       triclinic
_cell_length_a                    10.727196
_cell_length_b                    8.908191
_cell_length_c                    8.098433
_cell_angle_alpha                 90.061602
_cell_angle_beta                  90.398054
_cell_angle_gamma                 89.962613
_cell_volume                      773.866251321

loop_
_atom_site_label
_atom_site_type_symbol
_atom_type_description
_atom_site_fract_x
_atom_site_fract_y
_atom_site_fract_z
_atom_type_partial_charge
C1    C     C_R   0.499943 0.217995 0.499948 0.919897
C2    C     C_R   0.257584 0.495291 0.499407 0.842706
C3    C     C_R   0.742551 0.496282 0.500797 0.927371
C4    C     C_R   0.500094 0.781970 0.500049 0.997212
C5    C     C_1   0.500001 0.065222 0.499918 -0.097766
C6    C     C_3   0.074007 0.412278 0.658178 -0.286650
C7    C     C_3   0.069227 0.415194 0.338388 -0.321958
C8    C     C_3   0.931422 0.432291 0.670833 -0.304984
C9    C     C_3   0.926045 0.397954 0.352899 -0.272334
C10   C     C_1   0.500070 0.934745 0.500063 -0.071101
C11   C     C_3   0.075085 0.667591 0.500826 -0.185205
C12   C     C_3   0.925939 0.667531 0.478938 -0.174781
C13   C     C_3   0.121534 0.496216 0.498307 -0.126644
C14   C     C_3   0.878614 0.497325 0.502340 -0.098100
N1    N     N_1   0.500000 0.500030 0.073640 0.010026
N2    N     N_1   0.500000 0.500030 0.926360 0.021707
O1    O     O_R   0.500000 0.285340 0.636850 -0.600333
O2    O     O_R   0.500000 0.285340 0.363150 -0.594663
O3    O     O_R   0.314790 0.499970 0.636880 -0.594143
O4    O     O_R   0.314790 0.499970 0.363120 -0.671033
O5    O     O_R   0.685210 0.499970 0.636880 -0.574958
O6    O     O_R   0.685210 0.499970 0.363120 -0.597291
O7    O     O_R   0.500000 0.714650 0.636900 -0.581110
O8    O     O_R   0.500000 0.714650 0.363100 -0.610693
Zn1   Zn    Zn3+2 0.500000 0.499990 0.682780 1.110352
Zn2   Zn    Zn3+2 0.500000 0.499990 0.317220 1.073015
H1    H     H_    0.113731 0.468295 0.769647 0.192398
H2    H     H_    0.085866 0.491876 0.232742 0.153157
H3    H     H_    0.916853 0.520292 0.765955 0.224399
H4    H     H_    0.886933 0.443152 0.235477 0.208449
C15   C     C_2   0.119669 0.250975 0.673210 0.450274
H5    H     H_    0.083971 0.163350 0.594001 0.055188
O9    O     O_2   0.196845 0.217142 0.778330 -0.476879
C16   C     C_2   0.136397 0.272297 0.286484 0.503719
H6    H     H_    0.207160 0.221113 0.364265 0.065955
O10   O     O_2   0.113060 0.214673 0.152927 -0.471389
C17   C     C_2   0.864779 0.295193 0.740308 0.508231
H7    H     H_    0.859851 0.190592 0.673168 0.010841
O11   O     O_2   0.816215 0.301113 0.876147 -0.493105
C18   C     C_2   0.878856 0.236857 0.354341 0.493694
H8    H     H_    0.929085 0.148957 0.417818 0.054051
O12   O     O_2   0.784053 0.202947 0.278792 -0.492199
C19   C     C_2   0.116916 0.738969 0.666388 0.444949
H9    H     H_    0.065062 0.718052 0.778507 0.069232
O13   O     O_2   0.210220 0.817305 0.677273 -0.528981
C20   C     C_2   0.136153 0.762256 0.364427 0.414382
H10   H     H_    0.189200 0.711364 0.265940 0.092106
O14   O     O_2   0.121374 0.898282 0.360596 -0.559163
C21   C     C_2   0.868322 0.782807 0.598670 0.419611
H11   H     H_    0.890047 0.900836 0.581555 0.095267
O15   O     O_2   0.801279 0.748386 0.713540 -0.559534
C22   C     C_2   0.885266 0.721863 0.305512 0.443364
H12   H     H_    0.936272 0.687204 0.196758 0.067839
O16   O     O_2   0.794244 0.802648 0.284721 -0.524398

loop_
_geom_bond_atom_site_label_1
_geom_bond_atom_site_label_2
_ccdc_geom_bond_type
C9    C18   S    
C6    C8    S    
C9    C14   S    
C15   O9    D    
C11   C19   S    
C17   H7    S    
C16   H6    S    
C11   C13   S    
C3    O6    A    
C1    O1    A    
C15   H5    S    
O2    Zn2   S    
C19   H9    S    
O1    Zn1   S    
C18   O12   D    
C12   C21   S    
C12   C14   S    
C5    C10   T    
C17   O11   D    
C6    C13   S    
C19   O13   D    
C1    O2    A    
C3    C14   S    
O4    Zn2   S    
C9    H4    S    
C4    O8    A    
C1    C5    S    
C8    H3    S    
C18   H8    S    
C12   C22   S    
C22   O16   D    
C6    C15   S    
C16   O10   D    
O7    Zn1   S    
O3    Zn1   S    
C7    C16   S    
C20   O14   D    
C3    O5    A    
C8    C17   S    
C4    C10   S    
N1    N2    T    
C7    C13   S    
C22   H12   S    
C21   H11   S    
O6    Zn2   S    
N2    Zn1   S    
C7    C9    S    
C2    C13   S    
O5    Zn1   S    
C20   H10   S    
C11   C20   S    
C8    C14   S    
C21   O15   D    
C2    O3    A    
C2    O4    A    
C4    O7    A    
C7    H2    S    
C6    H1    S    
C11   C12   S    
O8    Zn2   S    
N1    Zn2   S    
