data_mof_unit_395.cif
_audit_creation_date              2012-12-10T20:34:51-0500
_audit_creation_method            fapswitch 2.2
_symmetry_space_group_name_H-M    P1
_symmetry_Int_Tables_number       1
_space_group_crystal_system       triclinic
_cell_length_a                    10.64946
_cell_length_b                    10.681976
_cell_length_c                    9.876566
_cell_angle_alpha                 89.672746
_cell_angle_beta                  90.114863
_cell_angle_gamma                 90.627568
_cell_volume                      1123.44340626

loop_
_atom_site_label
_atom_site_type_symbol
_atom_type_description
_atom_site_fract_x
_atom_site_fract_y
_atom_site_fract_z
_atom_type_partial_charge
C1    C     C_R   0.503771 0.260114 0.500284 0.863501
C2    C     C_3   0.878934 0.495841 0.501761 0.145683
C3    C     C_3   0.929658 0.609391 0.583610 -0.375772
C4    C     C_3   0.928402 0.512170 0.354203 -0.428765
C5    C     C_R   0.530518 0.063641 0.622378 0.125163
C6    C     C_R   0.523398 0.129045 0.500367 -0.114961
C7    C     C_R   0.538495 0.066045 0.377399 -0.236485
C8    C     C_R   0.536704 0.936918 0.376994 -0.192339
C9    C     C_R   0.521676 0.871893 0.499622 -0.116888
C10   C     C_R   0.529885 0.935788 0.622005 0.130447
C11   C     C_3   0.448013 0.927500 0.744687 -0.470843
C12   C     C_R   0.257861 0.500128 0.499747 0.840370
C13   C     C_3   0.448673 0.069462 0.744951 -0.481104
C14   C     C_R   0.430800 0.413097 0.071574 0.164132
C15   C     C_R   0.577352 0.578061 0.069982 0.294240
C16   C     C_R   0.576759 0.577900 0.926628 -0.192863
C17   C     C_R   0.431195 0.412794 0.929057 0.211679
C18   C     C_3   0.292453 0.394652 0.922289 -0.506105
C19   C     C_3   0.291708 0.396577 0.075842 -0.505977
C20   C     C_R   0.503087 0.740099 0.499738 0.893008
C21   C     C_R   0.742347 0.497668 0.500342 0.838562
C22   C     C_3   0.074780 0.373441 0.562962 -0.408683
C23   C     C_3   0.929847 0.367645 0.557811 0.017143
C24   C     C_3   0.073479 0.609543 0.584011 -0.407333
C25   C     C_3   0.070839 0.508678 0.352791 -0.426027
C26   C     C_3   0.121778 0.498204 0.499654 0.152635
H1    H     H_    0.110758 0.364181 0.668118 0.184259
H2    H     H_    0.897878 0.603407 0.311432 0.235985
H3    H     H_    0.109560 0.699550 0.541036 0.158244
H4    H     H_    0.896297 0.698091 0.536645 0.162813
H5    H     H_    0.541892 0.115308 0.281253 0.176896
H6    H     H_    0.537640 0.889447 0.280618 0.211437
H7    H     H_    0.354017 0.885756 0.722903 0.199171
H8    H     H_    0.497887 0.886164 0.832978 0.216050
H9    H     H_    0.355091 0.110324 0.723175 0.196667
H10   H     H_    0.498859 0.110281 0.833394 0.206495
H11   H     H_    0.113593 0.292979 0.505895 0.128248
H12   H     H_    0.636724 0.642389 0.871047 0.173111
H13   H     H_    0.243595 0.475842 0.876036 0.212088
H14   H     H_    0.265863 0.302013 0.879584 0.192707
H15   H     H_    0.244063 0.480108 0.116963 0.213426
H16   H     H_    0.263099 0.305592 0.122131 0.198746
H17   H     H_    0.905292 0.296730 0.479339 0.101021
H18   H     H_    0.107593 0.602938 0.690399 0.176282
H19   H     H_    0.894464 0.609723 0.688936 0.189158
H20   H     H_    0.107977 0.594920 0.302298 0.188541
H21   H     H_    0.100846 0.426346 0.292887 0.181386
H22   H     H_    0.890974 0.436905 0.287147 0.188851
N1    N     N_R   0.499150 0.499140 0.142800 -0.127814
N2    N     N_R   0.499150 0.499180 0.857150 -0.123709
O1    O     O_R   0.500020 0.316790 0.614690 -0.618708
O2    O     O_R   0.500000 0.316760 0.385350 -0.622971
O3    O     O_R   0.314800 0.500000 0.614670 -0.629340
O4    O     O_R   0.314790 0.499960 0.385330 -0.626952
O5    O     O_R   0.500000 0.683240 0.614650 -0.621978
O6    O     O_R   0.499980 0.683210 0.385310 -0.580598
O7    O     O_R   0.685210 0.500040 0.614670 -0.627807
O8    O     O_R   0.685200 0.500000 0.385330 -0.590729
Zn1   Zn    Zn3+2 0.500010 0.500020 0.653130 0.931197
Zn2   Zn    Zn3+2 0.499990 0.499980 0.346870 0.970454
Br1   Br    Br    0.688151 0.694617 0.155577 -0.600474
C27   C     C_3   0.872398 0.310839 0.689851 -0.386776
C28   C     C_3   0.886622 0.388522 0.819207 -0.804051
H23   H     H_    0.980619 0.433248 0.827734 0.246817
H24   H     H_    0.813324 0.460923 0.824863 0.267790
H25   H     H_    0.873253 0.326323 0.908618 0.234168
H26   H     H_    0.771480 0.287926 0.673923 0.213130
H27   H     H_    0.918484 0.219357 0.708462 0.194353

loop_
_geom_bond_atom_site_label_1
_geom_bond_atom_site_label_2
_ccdc_geom_bond_type
C17   N2    A    
C3    H4    S    
C2    C4    S    
C18   H13   S    
C28   H24   S    
C21   O7    A    
C6    C7    A    
O5    Zn1   S    
C11   C13   S    
C9    C10   A    
C25   H21   S    
C9    C20   S    
C5    C13   S    
C12   O3    A    
C11   H8    S    
C19   H16   S    
C27   H27   S    
C20   O6    A    
C2    C21   S    
C17   C18   S    
O3    Zn1   S    
C28   H25   S    
C23   H17   S    
C21   O8    A    
O4    Zn2   S    
C1    O1    A    
C14   C17   A    
C19   H15   S    
C3    C24   S    
C27   C28   S    
N1    Zn2   S    
C27   H26   S    
C20   O5    A    
N2    Zn1   S    
C14   C19   S    
C5    C10   A    
C4    H2    S    
C16   N2    A    
C4    C25   S    
C2    C3    S    
C22   H1    S    
C15   N1    A    
C15   Br1   S    
C5    C6    A    
C24   H18   S    
C1    O2    A    
O7    Zn1   S    
C14   N1    A    
C7    H5    S    
C10   C11   S    
C23   C27   S    
O8    Zn2   S    
C28   H23   S    
C8    H6    S    
O6    Zn2   S    
C11   H7    S    
O1    Zn1   S    
C13   H10   S    
C18   C19   S    
C4    H22   S    
C12   C26   S    
C2    C23   S    
C7    C8    A    
C18   H14   S    
C22   C23   S    
C22   C26   S    
O2    Zn2   S    
C16   H12   S    
C25   C26   S    
C24   H3    S    
C22   H11   S    
C25   H20   S    
C3    H19   S    
C13   H9    S    
C12   O4    A    
C15   C16   A    
C24   C26   S    
C8    C9    A    
C1    C6    S    
