data_mof_unit_3379.cif
_audit_creation_date              2012-10-26T20:05:01-0400
_audit_creation_method            fapswitch 2.2
_symmetry_space_group_name_H-M    P1
_symmetry_Int_Tables_number       1
_space_group_crystal_system       triclinic
_cell_length_a                    15.884887
_cell_length_b                    15.086276
_cell_length_c                    13.77606
_cell_angle_alpha                 91.248068
_cell_angle_beta                  88.94857
_cell_angle_gamma                 88.854359
_cell_volume                      3299.32143082

loop_
_atom_site_label
_atom_site_type_symbol
_atom_type_description
_atom_site_fract_x
_atom_site_fract_y
_atom_site_fract_z
_atom_type_partial_charge
C1    C     C_R   0.498004 0.328903 0.499057 0.523715
C2    C     C_R   0.498888 0.046736 0.499152 0.045073
C3    C     C_R   0.454788 0.904432 0.433796 0.012399
C4    C     C_R   0.545093 0.095683 0.567316 0.012124
C5    C     C_R   0.597396 0.960214 0.637243 -0.098838
C6    C     C_R   0.402319 0.039836 0.364037 -0.099519
C7    C     C_R   0.594234 0.052239 0.635364 -0.137168
C8    C     C_R   0.405409 0.947883 0.366087 -0.137621
C9    C     C_R   0.555688 0.446783 0.790634 0.048585
C10   C     C_R   0.443742 0.552548 0.209276 0.057051
C11   C     C_R   0.442702 0.552619 0.796389 0.168584
C12   C     C_R   0.502191 0.671097 0.500995 0.523722
C13   C     C_R   0.556890 0.446846 0.203565 0.166957
C14   C     C_R   0.441336 0.553286 0.899726 -0.039626
C15   C     C_R   0.557467 0.445153 0.100191 -0.044618
C16   C     C_R   0.339915 0.500182 0.500742 0.549075
C17   C     C_R   0.660086 0.499845 0.499256 0.548544
C18   C     C_R   0.499088 0.498961 0.948210 -0.011193
C19   C     C_R   0.499580 0.499303 0.051694 -0.012271
C20   C     C_R   0.556148 0.444125 0.893286 -0.001690
C21   C     C_R   0.442168 0.553730 0.106616 0.009081
C22   C     C_R   0.384064 0.607064 0.955768 -0.092417
C23   C     C_R   0.504774 0.767817 0.503169 -0.032542
C24   C     C_R   0.613512 0.389867 0.044135 -0.079899
C25   C     C_R   0.384764 0.608394 0.057843 0.252335
C26   C     C_R   0.612034 0.387584 0.942294 0.267280
C27   C     C_3   0.971044 0.426949 0.543676 -0.169039
C28   C     C_3   0.028966 0.573358 0.456223 -0.169258
C29   C     C_3   0.030251 0.427830 0.452986 0.005695
C30   C     C_3   0.969754 0.572476 0.546914 0.005650
C31   C     C_1   0.250421 0.500218 0.502255 0.054533
C32   C     C_1   0.749581 0.499918 0.497724 0.054129
C33   C     C_3   0.024936 0.499683 0.591838 0.001357
C34   C     C_R   0.495487 0.232204 0.497172 -0.031724
C35   C     C_3   0.975069 0.500623 0.408062 0.001397
C36   C     C_3   0.083477 0.499639 0.501720 0.048866
C37   C     C_3   0.916528 0.500664 0.498181 0.048860
C38   C     C_1   0.175026 0.500089 0.502484 0.069092
C39   C     C_1   0.824977 0.500143 0.497456 0.069224
C40   C     C_R   0.457740 0.812535 0.434288 -0.136643
C41   C     C_R   0.542279 0.187599 0.566438 -0.136440
C42   C     C_2   0.061496 0.345576 0.399840 0.231004
C43   C     C_2   0.938503 0.654731 0.600052 0.230519
C44   C     C_3   0.347582 0.747916 0.110293 -0.019960
C45   C     C_R   0.550984 0.815214 0.573524 -0.008502
C46   C     C_3   0.280585 0.802821 0.165836 -0.360115
C47   C     C_3   0.630667 0.254098 0.861297 -0.027476
C48   C     C_3   0.643175 0.181888 0.935714 -0.368290
C49   C     C_2   0.949859 0.501385 0.303833 0.239451
C50   C     C_2   0.050148 0.498933 0.696068 0.239901
C51   C     C_2   0.602040 0.765670 0.644621 0.243278
C52   C     C_2   0.398324 0.234120 0.355630 0.242766
C53   C     C_2   0.382431 0.610027 0.745615 0.280601
C54   C     C_2   0.617834 0.390200 0.254281 0.280319
C55   C     C_R   0.449217 0.184733 0.427019 -0.008704
C56   C     C_R   0.549779 0.909099 0.572211 0.027578
C57   C     C_R   0.450195 0.090918 0.428762 0.027822
C58   C     C_R   0.501049 0.953332 0.501929 0.045048
Cu1   Cu    Cu3+1 0.500010 0.499990 0.597420 0.982691
Cu2   Cu    Cu3+1 0.499990 0.500010 0.402580 0.984455
H1    H     H_    0.337725 0.648741 0.921320 0.157331
H2    H     H_    0.368541 0.910552 0.314781 0.105296
H3    H     H_    0.599550 0.405971 0.747455 0.157532
H4    H     H_    0.400230 0.593973 0.252296 0.165134
H5    H     H_    0.016640 0.300278 0.368760 0.119850
H6    H     H_    0.983355 0.700029 0.631139 0.119562
H7    H     H_    0.352134 0.773613 0.035220 0.139579
H8    H     H_    0.408926 0.756629 0.146979 0.130005
H9    H     H_    0.277083 0.781902 0.242600 0.147827
H10   H     H_    0.296376 0.874120 0.163832 0.103149
H11   H     H_    0.218266 0.793746 0.132145 0.181456
H12   H     H_    0.658757 0.346792 0.078495 0.161699
H13   H     H_    0.661592 0.231156 0.792049 0.144659
H14   H     H_    0.562249 0.262478 0.845839 0.121319
H15   H     H_    0.608026 0.199516 0.004025 0.151753
H16   H     H_    0.619277 0.118145 0.906578 0.117098
H17   H     H_    0.711140 0.173415 0.951458 0.177952
H18   H     H_    0.998072 0.501104 0.247059 0.120253
H19   H     H_    0.001936 0.499222 0.752842 0.120511
H20   H     H_    0.642241 0.710374 0.619842 0.150721
H21   H     H_    0.358060 0.289460 0.380139 0.150776
H22   H     H_    0.403198 0.670221 0.712130 0.123643
H23   H     H_    0.947142 0.366947 0.579465 0.119979
H24   H     H_    0.597640 0.330302 0.288825 0.123425
H25   H     H_    0.052875 0.633356 0.420432 0.117847
H26   H     H_    0.421683 0.775274 0.381709 0.120355
H27   H     H_    0.578257 0.224964 0.618977 0.113159
H28   H     H_    0.638201 0.930328 0.689717 0.177144
H29   H     H_    0.361382 0.069690 0.311667 0.176198
H30   H     H_    0.630932 0.089568 0.687056 0.102821
N1    N     N_R   0.499960 0.499930 0.743810 -0.261662
N2    N     N_R   0.500040 0.500070 0.256190 -0.263399
O1    O     O_R   0.500020 0.370250 0.582280 -0.507255
O2    O     O_2   0.863202 0.671206 0.608711 -0.498235
O3    O     O_3   0.324482 0.658061 0.109773 -0.561686
O4    O     O_3   0.669697 0.333383 0.891634 -0.558989
O5    O     O_2   0.875719 0.502300 0.282239 -0.439102
O6    O     O_2   0.124288 0.498021 0.717663 -0.439426
O7    O     O_2   0.596014 0.782942 0.731493 -0.511942
O8    O     O_2   0.404539 0.216626 0.268817 -0.512243
O9    O     O_2   0.307792 0.592245 0.745048 -0.468706
O10   O     O_2   0.692427 0.408231 0.253541 -0.467542
O11   O     O_R   0.499980 0.629750 0.417720 -0.505621
O12   O     O_R   0.500010 0.370270 0.417740 -0.527560
O13   O     O_R   0.499990 0.629730 0.582260 -0.527348
O14   O     O_R   0.379080 0.499980 0.582260 -0.454982
O15   O     O_R   0.620920 0.500020 0.417740 -0.455659
O16   O     O_R   0.379070 0.500000 0.417710 -0.516940
O17   O     O_R   0.620930 0.500000 0.582290 -0.516745
O18   O     O_2   0.136796 0.329101 0.391165 -0.498209

loop_
_geom_bond_atom_site_label_1
_geom_bond_atom_site_label_2
_ccdc_geom_bond_type
C23   C45   A    
C29   C42   S    
C27   C29   S    
C48   H16   S    
C5    C56   A    
C48   H15   S    
C50   H19   S    
C9    N1    A    
C54   H24   S    
C2    C57   A    
C43   O2    D    
C27   C33   S    
C16   C31   S    
C15   C19   A    
C12   C23   S    
Cu1   O13   S    
C35   C37   S    
C24   C26   A    
C17   O15   A    
C12   O13   A    
C11   C14   A    
C4    C41   A    
C45   C51   S    
C23   C40   A    
C33   C36   S    
C49   H18   S    
C18   C19   A    
C32   C39   T    
C40   H26   S    
C14   C18   A    
C51   H20   S    
C46   H9    S    
C5    H28   S    
C45   C56   A    
C53   O9    D    
C22   C25   A    
C35   C49   S    
C42   H5    S    
C47   O4    S    
Cu2   O11   S    
Cu2   O16   S    
C52   C55   S    
C16   O14   A    
C10   N2    A    
C34   C55   A    
C26   O4    S    
C6    C57   A    
C34   C41   A    
C4    C7    A    
C44   C46   S    
C1    C34   S    
Cu2   N2    S    
C10   C21   A    
C51   O7    D    
C41   H27   S    
C50   O6    D    
Cu1   O14   S    
C47   H13   S    
C12   O11   A    
C3    C8    A    
C5    C7    A    
C6    C8    A    
C33   C50   S    
C7    H30   S    
C52   O8    D    
C30   C37   S    
C17   O17   A    
C53   H22   S    
C48   H17   S    
C2    C4    A    
C9    C20   A    
C47   C48   S    
C29   C36   S    
Cu1   N1    S    
C1    O12   A    
C46   H11   S    
Cu2   O15   S    
C15   C24   A    
C3    C40   A    
C25   O3    S    
C13   C15   A    
C13   N2    A    
C30   C43   S    
C44   H8    S    
C24   H12   S    
C13   C54   S    
C28   C35   S    
C21   C25   A    
C30   C33   S    
C19   C21   A    
C9    H3    S    
C54   O10   D    
C10   H4    S    
C47   H14   S    
C11   C53   S    
C2    C58   A    
C6    H29   S    
C29   C35   S    
C31   C38   T    
C14   C22   A    
C55   C57   A    
C42   O18   D    
C28   C30   S    
C37   C39   S    
C44   O3    S    
C22   H1    S    
C20   C26   A    
C27   C37   S    
C43   H6    S    
C36   C38   S    
Cu1   O17   S    
C56   C58   A    
C18   C20   A    
C52   H21   S    
C46   H10   S    
C16   O16   A    
C49   O5    D    
C27   H23   S    
C3    C58   A    
C11   N1    A    
Cu1   Cu2   S    
C28   C36   S    
C1    O1    A    
C28   H25   S    
C17   C32   S    
C44   H7    S    
Cu1   O1    S    
Cu2   O12   S    
C8    H2    S    
