data_mof_unit_3215.cif
_audit_creation_date              2012-10-26T21:11:02-0400
_audit_creation_method            fapswitch 2.2
_symmetry_space_group_name_H-M    P1
_symmetry_Int_Tables_number       1
_space_group_crystal_system       triclinic
_cell_length_a                    10.922565
_cell_length_b                    11.022416
_cell_length_c                    13.085702
_cell_angle_alpha                 90.584567
_cell_angle_beta                  90.711288
_cell_angle_gamma                 90.168894
_cell_volume                      1575.21681103

loop_
_atom_site_label
_atom_site_type_symbol
_atom_type_description
_atom_site_fract_x
_atom_site_fract_y
_atom_site_fract_z
_atom_type_partial_charge
C1    C     C_R   0.499354 0.259443 0.499655 0.554427
C2    C     C_R   0.617111 0.847394 0.742333 -0.071501
C3    C     C_R   0.463468 0.120600 0.306170 0.092701
C4    C     C_R   0.505846 0.880245 0.695835 0.090263
C5    C     C_R   0.562999 0.147423 0.243386 -0.071561
C6    C     C_R   0.398405 0.880344 0.753527 -0.091572
C7    C     C_R   0.543072 0.180786 0.141661 -0.076028
C8    C     C_R   0.402985 0.853155 0.857539 -0.066308
C9    C     C_R   0.423241 0.186536 0.101379 0.139422
C10   C     C_R   0.514663 0.824292 0.905097 0.131752
C11   C     C_R   0.486208 0.935660 0.406770 0.052393
C12   C     C_R   0.498187 0.740554 0.500328 0.553101
C13   C     C_R   0.509280 0.064388 0.593118 0.054408
C14   C     C_R   0.496817 0.872828 0.500505 -0.037676
C15   C     C_R   0.498105 0.127188 0.499502 -0.036727
C16   C     C_R   0.259421 0.503386 0.499120 0.555536
C17   C     C_R   0.740581 0.496841 0.500904 0.555591
C18   C     C_R   0.504940 0.938257 0.593846 -0.011995
C19   C     C_R   0.484233 0.061865 0.406541 -0.012414
C20   C     C_1   0.500546 0.499785 0.173500 0.122682
C21   C     C_1   0.500147 0.499910 0.826506 0.124847
C22   C     C_1   0.500974 0.499490 0.050703 -0.091107
C23   C     C_R   0.872967 0.497294 0.502597 -0.011926
C24   C     C_1   0.500658 0.499746 0.949303 -0.087886
C25   C     C_R   0.202768 0.694877 0.190286 -0.130423
C26   C     C_R   0.799463 0.299814 0.807285 -0.129974
C27   C     C_R   0.155278 0.667362 0.286041 -0.100969
C28   C     C_R   0.847868 0.329631 0.712386 -0.101193
C29   C     C_R   0.115082 0.549169 0.306950 0.064626
C30   C     C_R   0.884746 0.449157 0.692655 0.064132
C31   C     C_R   0.123935 0.457867 0.230676 0.139263
C32   C     C_R   0.871772 0.539449 0.769317 0.137917
C33   C     C_R   0.172404 0.486512 0.135288 -0.056057
C34   C     C_R   0.127024 0.503636 0.497560 -0.011736
C35   C     C_R   0.822351 0.508479 0.863857 -0.056335
C36   C     C_R   0.210914 0.604722 0.114969 -0.132769
C37   C     C_R   0.786969 0.388988 0.882928 -0.130219
C38   C     C_R   0.932343 0.520176 0.410738 -0.161045
C39   C     C_R   0.067620 0.481146 0.589525 -0.160335
C40   C     C_R   0.941089 0.477325 0.593247 -0.036644
C41   C     C_R   0.058875 0.523466 0.406898 -0.036269
C42   C     C_R   0.324041 0.162739 0.165089 -0.064673
C43   C     C_R   0.621434 0.818474 0.846198 -0.085570
C44   C     C_R   0.343879 0.130075 0.266845 -0.092785
Cu1   Cu    Cu3+1 0.499990 0.499990 0.592680 0.976475
Cu2   Cu    Cu3+1 0.500010 0.500010 0.407320 0.975452
H1    H     H_    0.247310 0.626383 0.040771 0.109891
H2    H     H_    0.119923 0.464740 0.659034 0.134866
H3    H     H_    0.231432 0.166068 0.134793 0.139501
H4    H     H_    0.708750 0.796964 0.881515 0.117916
H5    H     H_    0.266403 0.106807 0.313749 0.097246
H6    H     H_    0.701067 0.850152 0.699325 0.103699
H7    H     H_    0.655858 0.138038 0.272176 0.099957
H8    H     H_    0.312356 0.908134 0.719163 0.101621
H9    H     H_    0.396981 0.818582 0.308964 0.249481
H10   H     H_    0.554088 0.824581 0.294776 0.258685
H11   H     H_    0.604769 0.179386 0.688560 0.248493
H12   H     H_    0.749421 0.365562 0.956338 0.110882
H13   H     H_    0.448132 0.177384 0.706649 0.260438
H14   H     H_    0.131164 0.304024 0.313132 0.233946
H15   H     H_    0.991005 0.337108 0.264386 0.228335
H16   H     H_    0.861341 0.693553 0.687599 0.231712
H17   H     H_    0.001489 0.664268 0.737818 0.228987
H18   H     H_    0.179508 0.417154 0.076497 0.119935
H19   H     H_    0.811697 0.577079 0.922882 0.119428
H20   H     H_    0.349892 0.290737 0.990805 0.222415
H21   H     H_    0.483443 0.226690 0.957990 0.235125
H22   H     H_    0.605717 0.777648 0.036469 0.223190
H23   H     H_    0.621027 0.198616 0.093673 0.096493
H24   H     H_    0.456256 0.741921 0.032831 0.227924
H25   H     H_    0.320181 0.858429 0.902024 0.118755
H26   H     H_    0.232668 0.786350 0.174184 0.123989
H27   H     H_    0.772010 0.207352 0.822397 0.119031
H28   H     H_    0.148643 0.738305 0.343595 0.099238
H29   H     H_    0.857624 0.259472 0.654508 0.100567
H30   H     H_    0.880006 0.536488 0.341228 0.133402
N1    N     N_1   0.500030 0.500030 0.268070 -0.174579
N2    N     N_1   0.499970 0.499970 0.731930 -0.174506
N3    N     N_3   0.474662 0.874070 0.309551 -0.615286
N4    N     N_3   0.525712 0.125926 0.689945 -0.623228
N5    N     N_3   0.084546 0.335970 0.248591 -0.662577
N6    N     N_3   0.907700 0.662628 0.752598 -0.659511
N7    N     N_3   0.400865 0.210859 0.995288 -0.622032
N8    N     N_3   0.519387 0.809064 0.013861 -0.612353
O1    O     O_R   0.499980 0.319630 0.578260 -0.506479
O2    O     O_R   0.500020 0.680370 0.421740 -0.507103
O3    O     O_R   0.500000 0.319650 0.421740 -0.492953
O4    O     O_R   0.500000 0.680350 0.578260 -0.492774
O5    O     O_R   0.319630 0.500000 0.578260 -0.505869
O6    O     O_R   0.680370 0.500000 0.421740 -0.506681
O7    O     O_R   0.319650 0.500020 0.421740 -0.484904
O8    O     O_R   0.680350 0.499980 0.578260 -0.485606

loop_
_geom_bond_atom_site_label_1
_geom_bond_atom_site_label_2
_ccdc_geom_bond_type
C1    O3    A    
H21   N7    S    
C27   C29   A    
C14   C18   A    
Cu1   O1    S    
C33   C36   A    
C38   H30   S    
Cu1   Cu2   S    
C15   C19   A    
C17   O8    A    
C11   C19   A    
C9    C42   A    
C17   C23   S    
H10   N3    S    
C20   N1    T    
C5    H7    S    
C35   C37   A    
C11   C14   A    
C35   H19   S    
C23   C40   A    
C26   H27   S    
C36   H1    S    
Cu1   O8    S    
C16   C34   S    
H20   N7    S    
C21   N2    T    
C31   C33   A    
C3    C19   S    
Cu1   N2    S    
C1    C15   S    
C27   H28   S    
H24   N8    S    
C37   H12   S    
C4    C18   S    
H16   N6    S    
C13   N4    S    
C16   O5    A    
H11   N4    S    
C34   C41   A    
C42   C44   A    
C6    H8    S    
C11   N3    S    
C1    O1    A    
C3    C44   A    
C12   O4    A    
H17   N6    S    
C34   C39   A    
H22   N8    S    
C32   C35   A    
Cu1   O4    S    
C38   C41   A    
C4    C6    A    
C39   C40   A    
C5    C7    A    
C6    C8    A    
Cu2   O7    S    
C42   H3    S    
C2    C4    A    
H9    N3    S    
H14   N5    S    
C2    C43   A    
C30   C40   S    
C26   C37   A    
C25   H26   S    
C2    H6    S    
C9    N7    S    
C13   C18   A    
C44   H5    S    
C20   C22   S    
C13   C15   A    
C22   C24   T    
Cu1   O5    S    
Cu2   O3    S    
C7    C9    A    
C8    H25   S    
C29   C41   S    
C10   C43   A    
C17   O6    A    
C12   C14   S    
C3    C5    A    
H13   N4    S    
C7    H23   S    
Cu2   N1    S    
C43   H4    S    
Cu2   O6    S    
C25   C27   A    
C23   C38   A    
C32   N6    S    
C26   C28   A    
C31   N5    S    
C12   O2    A    
C28   C30   A    
C29   C31   A    
H15   N5    S    
C30   C32   A    
C33   H18   S    
C10   N8    S    
C25   C36   A    
C16   O7    A    
C8    C10   A    
C21   C24   S    
C28   H29   S    
C39   H2    S    
Cu2   O2    S    
