data_mof_unit_1741.cif
_audit_creation_date              2012-12-11T14:56:22-0500
_audit_creation_method            fapswitch 2.2
_symmetry_space_group_name_H-M    P1
_symmetry_Int_Tables_number       1
_space_group_crystal_system       triclinic
_cell_length_a                    10.568654
_cell_length_b                    10.735901
_cell_length_c                    17.045911
_cell_angle_alpha                 80.059549
_cell_angle_beta                  90.145114
_cell_angle_gamma                 119.958552
_cell_volume                      1642.56848616

loop_
_atom_site_label
_atom_site_type_symbol
_atom_type_description
_atom_site_fract_x
_atom_site_fract_y
_atom_site_fract_z
_atom_type_partial_charge
C1    C     C_R   0.222608 0.853922 0.128667 0.547185
C2    C     C_1   0.630540 0.300683 0.703762 0.013450
C3    C     C_R   0.664105 0.751169 0.804859 -0.010924
C4    C     C_R   0.608799 0.206730 0.102054 0.541702
C5    C     C_R   0.650859 0.721049 0.728403 -0.016556
C6    C     C_R   0.664535 0.827716 0.662083 -0.029297
C7    C     C_R   0.694635 0.965251 0.671705 -0.175674
C8    C     C_R   0.694000 0.990085 0.748165 -0.173117
C9    C     C_R   0.665621 0.878779 0.813612 -0.018369
C10   C     C_R   0.057623 0.880986 0.800896 0.016596
C11   C     C_R   0.051135 0.889026 0.718353 -0.089478
C12   C     C_R   0.719709 0.251054 0.307041 -0.172085
C13   C     C_R   0.059005 0.781660 0.682538 -0.022798
C14   C     C_R   0.088639 0.678563 0.730015 0.248003
C15   C     C_R   0.120395 0.690719 0.808697 -0.117070
C16   C     C_R   0.600841 0.881574 0.131069 0.539988
C17   C     C_R   0.116771 0.799162 0.841680 -0.000238
C18   C     C_R   0.682980 0.813731 0.358754 0.546757
C19   C     C_R   0.681265 0.383566 0.399434 0.557519
C20   C     C_R   0.104399 0.811092 0.359404 0.561805
C21   C     C_R   0.675706 0.802727 0.583390 0.509062
C22   C     C_R   0.672283 0.370298 0.621791 0.530788
C23   C     C_R   0.710465 0.218273 0.231763 -0.163400
C24   C     C_R   0.033302 0.776529 0.597511 0.545737
C25   C     C_R   0.209303 0.854854 0.905560 0.570106
C26   C     C_R   0.612484 0.219938 0.859247 0.560365
C27   C     C_R   0.614763 0.888318 0.888095 0.523786
C28   C     C_R   0.504988 0.258374 0.215090 -0.110419
C29   C     C_R   0.519173 0.300933 0.289326 0.261974
C30   C     C_R   0.632187 0.303076 0.334005 0.041924
C31   C     C_2   0.053179 0.020041 0.670938 0.223480
C32   C     C_3   0.239400 0.608312 0.682188 -0.048879
C33   C     C_3   0.425961 0.455370 0.267168 -0.067934
C34   C     C_R   0.608326 0.229054 0.183824 -0.028365
C35   C     C_2   0.683843 0.657835 0.875027 0.278739
C36   C     C_2   0.625139 0.579449 0.718166 0.342427
C37   C     C_2   0.004993 0.960340 0.843425 0.274016
C38   C     C_1   0.634524 0.871479 0.211361 -0.067132
C39   C     C_1   0.661311 0.856040 0.279160 -0.054518
C40   C     C_1   0.181484 0.825839 0.211452 -0.041294
C41   C     C_1   0.152551 0.821091 0.280003 -0.034185
C42   C     C_1   0.617359 0.260495 0.774897 0.004233
Cr1   Cr    Cr6+3 0.402240 0.783890 0.019450 1.011879
Cr2   Cr    Cr6+3 0.382360 0.097900 0.991800 1.089004
Cr3   Cr    Cr6+3 0.715380 0.118170 0.988700 1.063757
Cr4   Cr    Cr6+3 0.936650 0.882420 0.465510 1.038171
Cr5   Cr    Cr6+3 0.605770 0.565620 0.493360 1.082510
Cr6   Cr    Cr6+3 0.921340 0.550490 0.496380 1.050146
H1    H     H_    0.417312 0.254377 0.180696 0.145657
H2    H     H_    0.293179 0.604511 0.737979 0.136298
H3    H     H_    0.540299 0.544536 0.244910 0.134890
H4    H     H_    0.375287 0.502510 0.300184 0.160186
H5    H     H_    0.360204 0.418282 0.216308 0.117906
H6    H     H_    0.703641 0.691228 0.932408 0.185750
H7    H     H_    0.719522 0.570874 0.703665 0.084325
H8    H     H_    0.990070 0.047416 0.810958 0.155552
H9    H     H_    0.156588 0.620858 0.842265 0.151231
H10   H     H_    0.804236 0.246660 0.341429 0.153582
H11   H     H_    0.786348 0.188895 0.210057 0.146146
H12   H     H_    0.715279 0.050944 0.620680 0.139696
H13   H     H_    0.711770 0.093997 0.756610 0.124958
H14   H     H_    0.974837 0.010140 0.628792 0.160178
H15   H     H_    0.303568 0.718667 0.642675 0.117461
H16   H     H_    0.241287 0.527837 0.649925 0.192564
O1    O     O_R   0.521780 0.757110 0.108900 -0.505699
O2    O     O_R   0.805020 0.410040 0.421340 -0.538671
O3    O     O_R   0.049240 0.685450 0.403290 -0.496602
O4    O     O_R   0.275160 0.783810 0.101120 -0.512717
O5    O     O_R   0.077520 0.903010 0.551800 -0.513831
O6    O     O_R   0.802980 0.872780 0.546830 -0.548140
O7    O     O_R   0.578090 0.681300 0.569920 -0.498772
O8    O     O_R   0.608530 0.436370 0.586530 -0.466903
O9    O     O_R   0.798770 0.401880 0.597100 -0.505004
O10   O     O_R   0.043450 0.677890 0.566230 -0.444233
O11   O     O_3   0.821250 0.666180 0.485090 -0.293608
O12   O     O_R   0.513330 0.228330 0.898660 -0.418796
O13   O     O_R   0.237900 0.972600 0.090980 -0.500927
O14   O     O_R   0.511190 0.220540 0.061620 -0.488227
O15   O     O_R   0.736920 0.257720 0.063840 -0.488746
O16   O     O_R   0.710450 0.984050 0.081720 -0.482412
O17   O     O_R   0.524090 0.765520 0.933110 -0.516046
O18   O     O_R   0.277300 0.791600 0.938160 -0.525464
O19   O     O_R   0.240210 0.981010 0.915190 -0.464197
O20   O     O_2   0.146908 0.142988 0.678489 -0.483868
O21   O     O_3   0.091811 0.568843 0.699211 -0.533790
O22   O     O_3   0.422067 0.336221 0.319815 -0.546830
O23   O     O_R   0.739230 0.266130 0.888050 -0.472657
O24   O     O_2   0.685625 0.546927 0.869668 -0.479049
O25   O     O_2   0.500464 0.473971 0.728708 -0.453814
O26   O     O_2   0.969997 0.923723 0.915529 -0.494236
O27   O     O_R   0.712580 0.991850 0.918770 -0.483565
O28   O     O_3   0.499990 0.999980 0.999980 -0.352771
O29   O     O_R   0.083770 0.911170 0.376030 -0.479732
O30   O     O_R   0.808770 0.880340 0.383890 -0.490820
O31   O     O_R   0.584340 0.689460 0.394160 -0.512513
O32   O     O_R   0.614320 0.443940 0.423590 -0.447120

loop_
_geom_bond_atom_site_label_1
_geom_bond_atom_site_label_2
_ccdc_geom_bond_type
C36   O25   D    
C20   O29   A    
C1    O13   A    
C20   O3    A    
Cr6   O11   S    
C18   C39   S    
Cr2   O19   S    
C20   C41   S    
C7    C8    A    
C33   H4    S    
C23   H11   S    
C12   C23   A    
C26   C42   S    
C37   O26   D    
C21   O7    A    
C10   C37   S    
C28   C29   A    
Cr3   O23   S    
C38   C39   T    
C10   C17   A    
C5    C36   S    
C1    O4    A    
C19   O2    A    
C35   O24   D    
Cr2   O12   S    
Cr3   O28   S    
Cr4   O5    S    
C1    C40   S    
C37   H8    S    
Cr1   O4    S    
C2    C22   S    
C26   O12   A    
Cr5   O32   S    
C27   O27   A    
Cr2   O28   S    
C8    H13   S    
C12   H10   S    
C11   C31   S    
C13   C14   A    
C35   H6    S    
C18   O31   A    
C15   H9    S    
C31   H14   S    
C22   O8    A    
Cr4   O11   S    
C24   O5    A    
C33   H5    S    
C4    C34   S    
Cr6   O10   S    
C27   O17   A    
C32   H16   S    
C4    O15   A    
C8    C9    A    
C6    C21   S    
C31   O20   D    
C13   C24   S    
C16   O16   A    
C33   O22   S    
C4    O14   A    
C29   C30   A    
C3    C9    A    
C28   H1    S    
Cr4   O30   S    
C3    C35   S    
Cr1   O1    S    
C23   C34   A    
Cr5   O7    S    
Cr3   O15   S    
C32   H2    S    
C29   O22   S    
C40   C41   T    
C25   O18   A    
Cr1   O17   S    
C7    H12   S    
C32   H15   S    
C9    C27   S    
C15   C17   A    
Cr2   O13   S    
C12   C30   A    
Cr6   O9    S    
C14   O21   S    
C3    C5    A    
C6    C7    A    
C33   H3    S    
Cr1   O28   S    
C21   O6    A    
C17   C25   S    
Cr2   O14   S    
Cr5   O11   S    
C36   H7    S    
C11   C13   A    
C24   O10   A    
C5    C6    A    
Cr4   O29   S    
C26   O23   A    
C2    C42   T    
C18   O30   A    
C32   O21   S    
Cr3   O16   S    
Cr6   O3    S    
Cr3   O27   S    
Cr5   O8    S    
Cr4   O6    S    
C10   C11   A    
C28   C34   A    
C25   O19   A    
Cr1   O18   S    
Cr5   O31   S    
C14   C15   A    
C16   O1    A    
C22   O9    A    
Cr6   O2    S    
C19   C30   S    
C19   O32   A    
C16   C38   S    
