data_mof_unit_4343.cif
_audit_creation_date              2012-12-10T18:05:11-0500
_audit_creation_method            fapswitch 2.2
_symmetry_space_group_name_H-M    P1
_symmetry_Int_Tables_number       1
_space_group_crystal_system       triclinic
_cell_length_a                    9.501624
_cell_length_b                    10.802019
_cell_length_c                    17.021482
_cell_angle_alpha                 89.750698
_cell_angle_beta                  92.243654
_cell_angle_gamma                 90.391848
_cell_volume                      1745.63442106

loop_
_atom_site_label
_atom_site_type_symbol
_atom_type_description
_atom_site_fract_x
_atom_site_fract_y
_atom_site_fract_z
_atom_type_partial_charge
C1    C     C_R   0.499134 0.262240 0.497943 0.796389
C2    C     C_R   0.500957 0.737784 0.501047 0.764152
C3    C     C_R   0.401653 0.932163 0.454178 -0.189828
C4    C     C_R   0.599223 0.067767 0.544308 -0.184638
C5    C     C_R   0.502956 0.871775 0.501926 -0.121435
C6    C     C_R   0.497660 0.128167 0.496759 -0.122398
C7    C     C_R   0.077438 0.424777 0.550106 -0.042580
C8    C     C_R   0.922569 0.575423 0.450003 -0.024519
C9    C     C_R   0.928486 0.424763 0.550069 -0.005351
C10   C     C_R   0.071529 0.575451 0.450058 -0.004872
C11   C     C_R   0.514853 0.505472 0.651152 0.813120
C12   C     C_R   0.484953 0.505324 0.349312 0.801061
C13   C     C_R   0.518949 0.520546 0.737569 -0.129203
C14   C     C_R   0.485541 0.508712 0.263617 -0.089961
C15   C     C_R   0.417544 0.591255 0.777820 0.095957
C16   C     C_R   0.569997 0.596092 0.224546 0.060577
C17   C     C_R   0.436495 0.606985 0.860252 -0.038304
C18   C     C_R   0.603399 0.573722 0.145516 -0.001128
C19   C     C_R   0.545192 0.544191 0.902049 0.184868
C20   C     C_R   0.536092 0.473765 0.103710 0.228074
C21   C     C_R   0.644836 0.474288 0.861946 0.000035
C22   C     C_R   0.446926 0.391502 0.143256 -0.042051
C23   C     C_R   0.630857 0.464970 0.780132 -0.240702
C24   C     C_R   0.423581 0.409531 0.222867 -0.232725
C25   C     C_R   0.397820 0.061064 0.449838 0.137277
C26   C     C_R   0.603449 0.938873 0.548528 0.138750
Cu1   Cu    Cu3+1 0.640660 0.500020 0.500000 0.936636
Cu2   Cu    Cu3+1 0.359340 0.499980 0.500000 0.933221
H1    H     H_    0.707539 0.412337 0.748879 0.197311
H2    H     H_    0.360164 0.343545 0.254305 0.185457
H3    H     H_    0.327330 0.876715 0.419548 0.159225
H4    H     H_    0.673683 0.123293 0.578773 0.160412
H5    H     H_    0.136079 0.364514 0.590147 0.128722
H6    H     H_    0.863948 0.635848 0.410047 0.115317
H7    H     H_    0.874613 0.364351 0.590071 0.124154
H8    H     H_    0.125419 0.636026 0.410162 0.121571
N1    N     N_2   0.553290 0.558432 0.984645 -0.239120
N2    N     N_2   0.545628 0.458570 0.021033 -0.278112
N3    N     N_R   0.852070 0.500030 0.499980 -0.159346
N4    N     N_R   0.147930 0.499970 0.500020 -0.160767
O1    O     O_R   0.618740 0.319660 0.500000 -0.576694
O2    O     O_R   0.381260 0.680340 0.500000 -0.580199
O3    O     O_R   0.381170 0.319630 0.500010 -0.589627
O4    O     O_R   0.618830 0.680370 0.499990 -0.598453
O5    O     O_R   0.631780 0.498870 0.613920 -0.585854
O6    O     O_R   0.368220 0.501130 0.386080 -0.581480
O7    O     O_R   0.394210 0.498840 0.613930 -0.579878
O8    O     O_R   0.605790 0.501160 0.386070 -0.578543
C27   C     C_3   0.621578 0.713891 0.266368 -0.436156
C28   C     C_3   0.529305 0.823796 0.242016 -0.821976
H9    H     H_    0.530181 0.840119 0.177645 0.256317
H10   H     H_    0.419147 0.806062 0.258808 0.251056
H11   H     H_    0.568633 0.908554 0.272631 0.251949
H12   H     H_    0.618657 0.706967 0.331104 0.220414
H13   H     H_    0.733554 0.733580 0.254472 0.192446
C29   C     C_3   0.288716 0.647735 0.735066 -0.342353
C30   C     C_3   0.326766 0.765702 0.690839 -0.713192
H14   H     H_    0.362264 0.839063 0.732680 0.276177
H15   H     H_    0.412596 0.748003 0.650600 0.221454
H16   H     H_    0.233359 0.799392 0.656007 0.230902
H17   H     H_    0.234403 0.580246 0.695595 0.209750
H18   H     H_    0.204543 0.670072 0.775824 0.220940
C31   C     C_2   0.716010 0.649021 0.109517 0.405726
H19   H     H_    0.723505 0.747961 0.119086 0.080391
O9    O     O_2   0.805223 0.599839 0.070752 -0.543257
C32   C     C_2   0.344083 0.688814 0.905720 0.378429
H20   H     H_    0.309036 0.659269 0.962816 0.103601
O10   O     O_2   0.312984 0.792298 0.882082 -0.535165
C33   C     C_2   0.766897 0.414753 0.903976 0.415306
H21   H     H_    0.786351 0.427689 0.966427 0.162210
O11   O     O_2   0.848664 0.350202 0.868975 -0.553785
C34   C     C_2   0.377946 0.285356 0.101403 0.406518
H22   H     H_    0.396249 0.268749 0.039843 0.102840
O12   O     O_2   0.299630 0.214564 0.135243 -0.542555
C35   C     C_3   0.291328 0.127926 0.395458 -0.369822
C36   C     C_3   0.215675 0.048511 0.332473 -0.817332
H23   H     H_    0.293215 0.999585 0.296892 0.263683
H24   H     H_    0.143489 0.980927 0.359700 0.234552
H25   H     H_    0.151328 0.109092 0.292522 0.273537
H26   H     H_    0.210283 0.171327 0.431529 0.222673
H27   H     H_    0.347246 0.202532 0.363899 0.200790
C37   C     C_3   0.711758 0.872373 0.602145 -0.374717
C38   C     C_3   0.789919 0.952553 0.663842 -0.829219
H28   H     H_    0.861334 0.019383 0.635308 0.243756
H29   H     H_    0.713933 0.002543 0.699982 0.264143
H30   H     H_    0.855497 0.892428 0.703463 0.258585
H31   H     H_    0.657712 0.797842 0.634823 0.204171
H32   H     H_    0.791492 0.828748 0.565287 0.222698

loop_
_geom_bond_atom_site_label_1
_geom_bond_atom_site_label_2
_ccdc_geom_bond_type
Cu1   O8    S    
C32   O10   D    
C31   O9    D    
Cu2   O7    S    
C11   O7    A    
C36   H25   S    
C12   O8    A    
Cu2   O6    S    
C17   C32   S    
C23   H1    S    
C19   C21   A    
C36   H24   S    
C18   C31   S    
C30   H15   S    
C6    C25   A    
Cu2   N4    S    
C27   H12   S    
C9    N3    A    
C29   C30   S    
C13   C23   A    
C10   N4    A    
C14   C24   A    
C33   O11   D    
C19   N1    S    
Cu1   O4    S    
C1    O3    A    
Cu1   N3    S    
C28   H10   S    
C7    N4    A    
C8    N3    A    
C35   H26   S    
C18   C20   A    
Cu1   O5    S    
C32   H20   S    
C26   C37   S    
C7    H5    S    
C22   C34   S    
C28   H11   S    
C1    C6    S    
C3    C25   A    
C16   C27   S    
C34   O12   D    
C2    O4    A    
C35   H27   S    
C30   H16   S    
C27   H13   S    
C31   H19   S    
C21   C33   S    
C25   C35   S    
C12   O6    A    
C35   C36   S    
N1    N2    D    
C20   N2    S    
Cu1   O1    S    
C38   H28   S    
C28   H9    S    
C16   C18   A    
C8    H6    S    
C36   H23   S    
C3    H3    S    
C4    H4    S    
C1    O1    A    
C38   H29   S    
C20   C22   A    
C37   C38   S    
C21   C23   A    
C29   H18   S    
C11   O5    A    
C4    C6    A    
C15   C17   A    
C14   C16   A    
C12   C14   S    
C34   H22   S    
C3    C5    A    
C4    C26   A    
Cu2   O3    S    
C15   C29   S    
C13   C15   A    
C11   C13   S    
C30   H14   S    
C2    O2    A    
C37   H32   S    
Cu2   O2    S    
C17   C19   A    
C22   C24   A    
C33   H21   S    
C24   H2    S    
C5    C26   A    
C2    C5    S    
C7    C9    A    
C38   H30   S    
C8    C10   A    
C27   C28   S    
Cu1   Cu2   S    
C9    H7    S    
C29   H17   S    
C10   H8    S    
C37   H31   S    
