data_mof_unit_2928.cif
_audit_creation_date              2012-12-10T18:57:49-0500
_audit_creation_method            fapswitch 2.2
_symmetry_space_group_name_H-M    P1
_symmetry_Int_Tables_number       1
_space_group_crystal_system       triclinic
_cell_length_a                    10.673392
_cell_length_b                    9.957503
_cell_length_c                    8.89047
_cell_angle_alpha                 90.142209
_cell_angle_beta                  91.582358
_cell_angle_gamma                 89.465049
_cell_volume                      944.47828794

loop_
_atom_site_label
_atom_site_type_symbol
_atom_type_description
_atom_site_fract_x
_atom_site_fract_y
_atom_site_fract_z
_atom_type_partial_charge
C1    C     C_R   0.260574 0.501029 0.498207 0.958360
C2    C     C_R   0.067619 0.570035 0.614352 0.090933
C3    C     C_R   0.872252 0.495263 0.504089 -0.148174
C4    C     C_R   0.127747 0.504739 0.495908 -0.148163
C5    C     C_R   0.566918 0.071555 0.606999 -0.015313
C6    C     C_R   0.433081 0.928445 0.393001 -0.015314
C7    C     C_R   0.434496 0.071844 0.391705 -0.016597
C8    C     C_R   0.565502 0.928156 0.608296 -0.016592
C9    C     C_3   0.158850 0.485086 0.142765 -0.793231
C10   C     C_3   0.841173 0.514937 0.857246 -0.793232
C11   C     C_3   0.843402 0.221736 0.289910 -0.708341
C12   C     C_R   0.739426 0.498971 0.501794 0.958378
C13   C     C_3   0.156575 0.778302 0.710023 -0.708333
C14   C     C_1   0.641375 0.142238 0.718854 0.227280
C15   C     C_1   0.358622 0.857762 0.281148 0.227274
C16   C     C_1   0.370912 0.142035 0.270001 0.249885
C17   C     C_1   0.629082 0.857966 0.730004 0.249880
C18   C     C_R   0.500430 0.499886 0.219042 0.937221
C19   C     C_R   0.499573 0.500114 0.780958 0.937236
C20   C     C_1   0.500211 0.499844 0.065504 -0.171600
C21   C     C_1   0.499793 0.500156 0.934496 -0.171597
C22   C     C_R   0.062092 0.438780 0.378843 0.120542
C23   C     C_R   0.937906 0.561226 0.621150 0.120533
C24   C     C_R   0.932379 0.429974 0.385640 0.090928
H1    H     H_    0.088310 0.301351 0.204880 0.244860
H2    H     H_    0.931146 0.165465 0.267749 0.210325
H3    H     H_    0.768932 0.186049 0.210239 0.244414
H4    H     H_    0.814945 0.198712 0.406111 0.258634
H5    H     H_    0.114323 0.611292 0.838188 0.228645
H6    H     H_    0.068817 0.834565 0.732142 0.210321
H7    H     H_    0.185049 0.801301 0.593822 0.258637
H8    H     H_    0.231025 0.814022 0.789702 0.244401
H9    H     H_    0.073309 0.538877 0.100686 0.227142
H10   H     H_    0.204706 0.435407 0.046508 0.244157
H11   H     H_    0.225321 0.558188 0.192861 0.259224
H12   H     H_    0.911674 0.698679 0.795087 0.244859
H13   H     H_    0.926735 0.461203 0.899365 0.227130
H14   H     H_    0.774746 0.441783 0.807154 0.259225
H15   H     H_    0.795275 0.564619 0.953475 0.244173
H16   H     H_    0.885672 0.388770 0.161794 0.228648
N1    N     N_R   0.500000 0.857200 0.500000 -0.125274
N2    N     N_1   0.679211 0.804609 0.830474 -0.207509
N3    N     N_R   0.500000 0.142800 0.500000 -0.125276
N4    N     N_2   0.126887 0.385828 0.253343 -0.289368
N5    N     N_2   0.873109 0.614185 0.746645 -0.289366
N6    N     N_2   0.860519 0.364746 0.269397 -0.308560
N7    N     N_2   0.139475 0.635294 0.730577 -0.308544
N8    N     N_1   0.701810 0.196512 0.809835 -0.232398
N9    N     N_1   0.298185 0.803488 0.190169 -0.232387
N10   N     N_1   0.320780 0.195392 0.169534 -0.207496
O1    O     O_R   0.316770 0.614620 0.499990 -0.619209
O2    O     O_R   0.683230 0.385380 0.500010 -0.619214
O3    O     O_R   0.683230 0.614620 0.500010 -0.611101
O4    O     O_R   0.316770 0.385380 0.499990 -0.611101
O5    O     O_R   0.500010 0.614640 0.285340 -0.620169
O6    O     O_R   0.499990 0.385360 0.714660 -0.620167
O7    O     O_R   0.499990 0.614640 0.714660 -0.602641
O8    O     O_R   0.500010 0.385360 0.285340 -0.602643
Zn1   Zn    Zn3+2 0.500000 0.653120 0.500000 0.967833
Zn2   Zn    Zn3+2 0.500000 0.346880 0.500000 0.967830

loop_
_geom_bond_atom_site_label_1
_geom_bond_atom_site_label_2
_ccdc_geom_bond_type
C19   O6    A    
C5    C8    A    
C2    C4    A    
C1    O4    A    
C6    C7    A    
C23   N5    S    
C7    N3    A    
C2    N7    S    
C4    C22   A    
C13   H8    S    
C3    C23   A    
C8    C17   S    
C11   H3    S    
C10   H14   S    
C1    C4    S    
C24   N6    S    
C20   C21   T    
C10   N5    S    
O3    Zn1   S    
C9    H9    S    
H12   N5    S    
O4    Zn2   S    
C19   O7    A    
H16   N6    S    
C1    O1    A    
C5    C14   S    
C11   H4    S    
H5    N7    S    
C10   H13   S    
N3    Zn2   S    
C18   O5    A    
H1    N4    S    
C7    C16   S    
C19   C21   S    
C16   N10   T    
O5    Zn1   S    
C15   N9    T    
C5    N3    A    
C9    H10   S    
C22   C24   A    
O7    Zn1   S    
O1    Zn1   S    
O8    Zn2   S    
O6    Zn2   S    
C13   H6    S    
C8    N1    A    
N1    Zn1   S    
C18   C20   S    
C13   N7    S    
C2    C23   A    
C9    H11   S    
C17   N2    T    
C10   H15   S    
C11   N6    S    
C14   N8    T    
C3    C12   S    
O2    Zn2   S    
C11   H2    S    
C12   O2    A    
C6    C15   S    
C13   H7    S    
C22   N4    S    
C12   O3    A    
C3    C24   A    
C18   O8    A    
C9    N4    S    
C6    N1    A    
