data_mof_unit_3952.cif
_audit_creation_date              2013-03-05T16:48:17-0500
_audit_creation_method            fapswitch 2.2
_symmetry_space_group_name_H-M    P1
_symmetry_Int_Tables_number       1
_space_group_crystal_system       triclinic
_cell_length_a                    23.465265
_cell_length_b                    8.931298
_cell_length_c                    8.102371
_cell_angle_alpha                 89.619668
_cell_angle_beta                  90.086943
_cell_angle_gamma                 90.250204
_cell_volume                      1698.00114279

loop_
_atom_site_label
_atom_site_type_symbol
_atom_site_description
_atom_site_fract_x
_atom_site_fract_y
_atom_site_fract_z
_atom_type_partial_charge
O1    O     O_R   0.500000 0.285350 0.636850 -0.612274
O2    O     O_R   0.500000 0.714650 0.363150 -0.612216
O3    O     O_R   0.500000 0.714650 0.636850 -0.612651
O4    O     O_R   0.500000 0.285350 0.363150 -0.613166
C1    C     C_R   0.499978 0.217980 0.500347 0.943204
C2    C     C_R   0.500025 0.782020 0.499653 0.944005
O5    O     O_R   0.416160 0.500000 0.636910 -0.618441
O6    O     O_R   0.583840 0.500000 0.363090 -0.618940
O7    O     O_R   0.583840 0.500000 0.636910 -0.617120
O8    O     O_R   0.416160 0.500000 0.363090 -0.620855
C3    C     C_R   0.207995 0.487168 0.487499 0.093756
C4    C     C_R   0.791511 0.489599 0.492521 0.106185
C5    C     C_R   0.389037 0.499889 0.499706 0.890280
C6    C     C_R   0.610923 0.499540 0.499990 0.886697
Zn1   Zn    Zn3+2 0.500000 0.500000 0.682780 1.018675
Zn2   Zn    Zn3+2 0.500000 0.500000 0.317220 1.017208
C7    C     C_R   0.298150 0.534257 0.351646 -0.152111
C8    C     C_R   0.701198 0.445207 0.358065 -0.146885
C9    C     C_R   0.296448 0.456490 0.638751 -0.150569
C10   C     C_R   0.703873 0.542671 0.636942 -0.147166
H1    H     H_    0.322056 0.565857 0.242379 0.201468
H2    H     H_    0.676846 0.407977 0.252108 0.201184
H3    H     H_    0.319099 0.428373 0.751369 0.200985
H4    H     H_    0.681526 0.582102 0.745140 0.200567
C11   C     C_R   0.326938 0.497797 0.497476 -0.131257
C12   C     C_R   0.672932 0.495868 0.498768 -0.129419
C13   C     C_R   0.880202 0.610882 0.428682 0.554926
C14   C     C_R   0.119117 0.349652 0.498021 0.553036
C15   C     C_R   0.879821 0.360990 0.535547 0.514297
C16   C     C_R   0.118325 0.614070 0.456174 0.507008
N1    N     N_R   0.852239 0.487805 0.487454 -0.396954
N2    N     N_R   0.146974 0.483467 0.481956 -0.391268
C17   C     C_R   0.939148 0.349748 0.515665 -0.129701
C18   C     C_R   0.059526 0.611404 0.426374 -0.142243
C19   C     C_R   0.939919 0.611245 0.418031 -0.105364
C20   C     C_R   0.059206 0.345545 0.503179 -0.111215
C21   C     C_R   0.969452 0.479418 0.464741 -0.146411
C22   C     C_R   0.029328 0.478341 0.463625 -0.138780
C23   C     C_R   0.969003 0.214949 0.549131 0.322291
C24   C     C_R   0.030304 0.737675 0.362950 0.334102
C25   C     C_R   0.970337 0.738083 0.359756 0.465836
C26   C     C_R   0.029053 0.213535 0.545852 0.464267
C27   C     C_1   0.499995 0.065188 0.500496 -0.166633
C28   C     C_1   0.500011 0.934813 0.499502 -0.166779
C29   C     C_R   0.238870 0.528973 0.344567 0.046003
C30   C     C_R   0.760510 0.440467 0.353641 0.027683
C31   C     C_R   0.236961 0.450774 0.635607 0.041238
C32   C     C_R   0.763397 0.541253 0.634944 0.040012
N3    N     N_1   0.500000 0.500000 0.073640 -0.024134
N4    N     N_1   0.500000 0.500000 0.926360 -0.023830
O9    O     O_2   0.849793 0.732374 0.383395 -0.446329
O10   O     O_2   0.149660 0.222394 0.510589 -0.430298
O11   O     O_2   0.849512 0.248668 0.605491 -0.487420
O12   O     O_2   0.146950 0.745427 0.461216 -0.465106
O13   O     O_3   0.940778 0.082537 0.582530 -0.711425
H5    H     H_    0.911055 0.070428 0.496644 0.403044
O14   O     O_3   0.059074 0.858657 0.295876 -0.699375
H6    H     H_    0.091089 0.819463 0.229419 0.373296
O15   O     O_3   0.940566 0.858550 0.295069 -0.690535
H7    H     H_    0.966900 0.940014 0.261630 0.378089
O16   O     O_3   0.059233 0.085181 0.585468 -0.633471
H8    H     H_    0.033149 0.003420 0.619644 0.387265
C33   C     C_2   0.209656 0.565700 0.186853 0.531644
H9    H     H_    0.165691 0.532608 0.166579 0.038108
O17   O     O_2   0.234370 0.634595 0.077451 -0.554059
C34   C     C_2   0.789991 0.384309 0.204179 0.527637
H10   H     H_    0.836139 0.384575 0.197053 0.052948
O18   O     O_2   0.763040 0.336271 0.086648 -0.534570
C35   C     C_2   0.205499 0.407521 0.787375 0.552698
H11   H     H_    0.160576 0.433026 0.800032 0.045682
O19   O     O_2   0.229359 0.340932 0.899825 -0.551840
C36   C     C_2   0.796097 0.594295 0.780538 0.536435
H12   H     H_    0.842256 0.588268 0.782425 0.063235
O20   O     O_2   0.771878 0.646261 0.900448 -0.534180

loop_
_geom_bond_atom_site_label_1
_geom_bond_atom_site_label_2
_geom_bond_distance
_ccdc_geom_bond_type
O4    Zn2   1.950462 S    
C9    H3    1.083897 S    
O7    C6    1.279388 A    
C33   O17   1.221415 D    
C21   C22   1.405129 A    
O1    Zn1   1.955312 S    
C15   O11   1.349369 S    
O2    Zn2   1.955311 S    
C3    C31   1.414908 A    
O16   H8    0.989167 S    
C8    C12   1.398593 A    
C4    C32   1.411278 A    
C17   C21   1.415803 A    
O13   H5    0.990582 S    
O3    C2    1.260504 A    
C7    C11   1.397446 A    
C20   C22   1.415087 A    
C34   H10   1.084490 S    
O7    Zn1   2.002680 S    
O15   H7    0.989238 S    
C15   N1    1.361377 A    
C2    C28   1.364633 S    
C10   C32   1.396986 A    
C6    C12   1.455616 S    
C27   C28   1.164507 T    
C16   N2    1.363583 A    
C16   O12   1.350140 S    
C26   O16   1.385715 S    
C5    C11   1.457305 S    
O14   H6    0.991381 S    
O2    C2    1.262576 A    
O8    Zn2   2.002682 S    
C10   C12   1.398684 A    
C32   C36   1.485348 S    
C18   C24   1.415661 A    
O4    C1    1.260499 A    
C8    C30   1.393135 A    
O5    Zn1   2.001574 S    
C36   O20   1.221582 D    
C24   C25   1.407381 A    
C19   C21   1.417793 A    
C13   O9    1.349772 S    
C3    N2    1.432770 S    
C30   C34   1.486698 S    
C23   C26   1.409484 A    
C9    C31   1.396784 A    
C4    N1    1.425813 S    
C1    C27   1.364625 S    
C35   H11   1.084581 S    
C19   C25   1.415114 A    
O1    C1    1.262578 A    
C3    C29   1.414184 A    
C34   O18   1.221506 D    
C16   C18   1.400477 A    
C9    C11   1.397435 A    
C13   N1    1.361364 A    
C33   H9    1.084487 S    
C29   C33   1.484656 S    
C15   C17   1.405763 A    
O5    C5    1.280135 A    
O3    Zn1   1.950461 S    
Zn2   N3    1.973576 S    
C14   C20   1.406806 A    
C4    C30   1.410398 A    
N3    N4    1.193316 T    
O6    Zn2   2.001571 S    
Zn1   N4    1.973576 S    
C35   O19   1.221259 D    
C31   C35   1.483348 S    
C14   O10   1.349527 S    
C24   O14   1.380426 S    
O6    C6    1.277529 A    
C13   C19   1.404047 A    
C8    H2    1.083865 S    
C20   C26   1.413619 A    
C17   C23   1.419935 A    
C14   N2    1.365274 A    
C7    H1    1.083946 S    
C10   H4    1.083811 S    
C25   O15   1.385029 S    
C7    C29   1.392706 A    
C36   H12   1.084805 S    
C23   O13   1.378376 S    
O8    C5    1.277663 A    
C18   C22   1.412118 A    
