data_mof_unit_2519.cif
_audit_creation_date              2012-12-10T17:33:42-0500
_audit_creation_method            fapswitch 2.2
_symmetry_space_group_name_H-M    P1
_symmetry_Int_Tables_number       1
_space_group_crystal_system       triclinic
_cell_length_a                    11.689006
_cell_length_b                    12.429227
_cell_length_c                    13.418807
_cell_angle_alpha                 117.384595
_cell_angle_beta                  75.974803
_cell_angle_gamma                 101.088461
_cell_volume                      1672.06806085

loop_
_atom_site_label
_atom_site_type_symbol
_atom_type_description
_atom_site_fract_x
_atom_site_fract_y
_atom_site_fract_z
_atom_type_partial_charge
C1    C     C_R   0.515065 0.854666 0.286692 0.759758
C2    C     C_R   0.501197 0.226579 0.831155 -0.189812
C3    C     C_R   0.463344 0.812773 0.103198 -0.163209
C4    C     C_R   0.435716 0.731397 0.996949 -0.121201
C5    C     C_R   0.451005 0.608359 0.952820 -0.173381
C6    C     C_R   0.500554 0.564647 0.012240 0.115945
C7    C     C_R   0.538678 0.650809 0.115507 0.093244
C8    C     C_R   0.514758 0.438985 0.972900 0.016417
C9    C     C_R   0.569628 0.403472 0.035197 -0.001821
C10   C     C_R   0.619815 0.492318 0.127245 -0.176229
C11   C     C_R   0.606527 0.614101 0.165376 -0.204959
C12   C     C_R   0.715589 0.999816 0.499477 0.812083
C13   C     C_R   0.478042 0.347591 0.872876 -0.282074
C14   C     C_R   0.549457 0.191448 0.897178 0.173564
C15   C     C_R   0.511256 0.772939 0.165235 -0.092773
C16   C     C_R   0.703349 0.353780 0.345086 -0.366138
C17   C     C_R   0.324688 0.750841 0.624509 0.110867
C18   C     C_R   0.268486 0.641468 0.623285 -0.268826
C19   C     C_R   0.328812 0.537550 0.564077 -0.142910
C20   C     C_R   0.450400 0.544376 0.517535 0.036076
C21   C     C_R   0.497993 0.653887 0.507450 0.295266
C22   C     C_R   0.522836 0.444373 0.470384 -0.082636
C23   C     C_R   0.489531 0.144778 0.712454 0.876703
C24   C     C_R   0.633604 0.451503 0.400644 0.066717
C25   C     C_R   0.674663 0.556389 0.385701 -0.245700
C26   C     C_R   0.607286 0.654053 0.436189 -0.167948
C27   C     C_R   0.495423 0.340975 0.494118 0.312654
C28   C     C_R   0.668124 0.249700 0.364039 0.636764
C29   C     C_R   0.284430 0.000071 0.500337 0.827451
C30   C     C_1   0.837519 0.000030 0.499414 -0.159769
C31   C     C_1   0.940100 0.999981 0.499553 0.006440
C32   C     C_1   0.059964 0.999819 0.499880 0.010066
C33   C     C_1   0.162515 0.999772 0.500164 -0.153293
C34   C     C_R   0.578223 0.279468 0.001868 0.444676
Cu1   Cu    Cu3+1 0.526510 0.098270 0.475420 1.017818
Cu2   Cu    Cu3+1 0.473490 0.901730 0.524580 0.969170
H1    H     H_    0.759614 0.562690 0.332721 0.147107
H2    H     H_    0.783678 0.358225 0.286013 0.168822
H3    H     H_    0.275915 0.830373 0.666171 0.136929
H4    H     H_    0.276481 0.452119 0.549492 0.191328
H5    H     H_    0.176446 0.635862 0.662784 0.158482
H6    H     H_    0.641361 0.724889 0.411462 0.184070
H7    H     H_    0.672499 0.467251 0.167665 0.189714
H8    H     H_    0.435099 0.368622 0.822778 0.209252
H9    H     H_    0.442751 0.906129 0.138874 0.154404
H10   H     H_    0.424308 0.550707 0.871634 0.169385
H11   H     H_    0.398012 0.763098 0.950138 0.165907
H12   H     H_    0.652839 0.680478 0.232071 0.133048
N1    N     N_R   0.566700 0.246290 0.438210 -0.239676
N2    N     N_R   0.434010 0.754320 0.561170 -0.203392
O1    O     O_R   0.533340 0.972510 0.318140 -0.542523
O2    O     O_R   0.488570 0.806530 0.359650 -0.596435
O3    O     O_R   0.685190 0.083000 0.479260 -0.540453
O4    O     O_R   0.640410 0.917020 0.520770 -0.584047
O5    O     O_R   0.511430 0.193470 0.640350 -0.541857
O6    O     O_R   0.466660 0.027490 0.681860 -0.550317
O7    O     O_R   0.359590 0.082980 0.479230 -0.539062
O8    O     O_R   0.314810 0.917000 0.520740 -0.596564
Br1   Br    Br    0.588442 0.027823 0.845557 -0.460006
Br2   Br    Br    0.374661 0.342632 0.621490 -0.571693
O9    O     O_3   0.621396 0.244195 0.068550 -0.554356
C35   C     C_3   0.523977 0.216537 0.141565 -0.260161
H13   H     H_    0.486527 0.301242 0.210081 0.148895
H14   H     H_    0.554819 0.169823 0.181945 0.205638
H15   H     H_    0.453356 0.153023 0.094879 0.162183
O10   O     O_3   0.729503 0.146686 0.304506 -0.542112
C36   C     C_3   0.852057 0.176222 0.306559 -0.291656
H16   H     H_    0.891136 0.093125 0.288409 0.186518
H17   H     H_    0.870707 0.246733 0.391497 0.150801
H18   H     H_    0.896532 0.205065 0.238475 0.162828

loop_
_geom_bond_atom_site_label_1
_geom_bond_atom_site_label_2
_ccdc_geom_bond_type
C17   N2    A    
C14   C34   A    
C28   O10   S    
C21   C26   A    
C16   C28   A    
C8    C13   A    
Cu2   O6    S    
C29   C33   S    
Cu1   O3    S    
C5    H10   S    
C19   C20   A    
C7    C11   A    
Cu1   Cu2   S    
Cu2   O2    S    
C30   C31   T    
Cu1   O7    S    
C36   H18   S    
C12   C30   S    
C32   C33   T    
C20   C21   A    
C19   H4    S    
C7    C15   A    
O10   C36   S    
C10   H7    S    
C3    C15   A    
C23   O6    A    
C16   C24   A    
C24   C25   A    
C23   O5    A    
C14   Br1   S    
C1    O1    A    
C11   H12   S    
C35   H13   S    
C12   O3    A    
C1    C15   S    
Cu1   N1    S    
C6    C8    A    
C9    C10   A    
C21   N2    A    
C29   O7    A    
C9    C34   A    
C17   C18   A    
C6    C7    A    
Cu2   O8    S    
C22   C27   A    
C34   O9    S    
C27   Br2   S    
Cu1   O1    S    
O9    C35   S    
C2    C14   A    
C1    O2    A    
C22   C24   A    
Cu2   O4    S    
C10   C11   A    
Cu1   O5    S    
C36   H16   S    
C27   N1    A    
Cu2   N2    S    
C29   O8    A    
C26   H6    S    
C18   C19   A    
C28   N1    A    
C18   H5    S    
C16   H2    S    
C2    C23   S    
C5    C6    A    
C2    C13   A    
C17   H3    S    
C8    C9    A    
C35   H14   S    
C35   H15   S    
C25   H1    S    
C25   C26   A    
C3    H9    S    
C13   H8    S    
C12   O4    A    
C3    C4    A    
C31   C32   S    
C20   C22   A    
C4    C5    A    
C36   H17   S    
C4    H11   S    
