data_mof_unit_4422.cif
_audit_creation_date              2013-03-05T16:14:05-0500
_audit_creation_method            fapswitch 2.2
_symmetry_space_group_name_H-M    P1
_symmetry_Int_Tables_number       1
_space_group_crystal_system       triclinic
_cell_length_a                    9.82901
_cell_length_b                    10.719388
_cell_length_c                    16.661732
_cell_angle_alpha                 89.369505
_cell_angle_beta                  95.048048
_cell_angle_gamma                 90.030385
_cell_volume                      1748.58111686

loop_
_atom_site_label
_atom_site_type_symbol
_atom_site_description
_atom_site_fract_x
_atom_site_fract_y
_atom_site_fract_z
_atom_type_partial_charge
O1    O     O_R   0.614620 0.316750 0.500010 -0.614995
O2    O     O_R   0.385380 0.683250 0.499990 -0.614816
O3    O     O_R   0.385290 0.316780 0.500000 -0.635225
O4    O     O_R   0.614710 0.683220 0.500000 -0.635240
C1    C     C_R   0.499944 0.259830 0.500073 0.898594
C2    C     C_R   0.500055 0.740170 0.499924 0.898512
O5    O     O_R   0.627460 0.498830 0.616130 -0.621998
O6    O     O_R   0.372540 0.501170 0.383870 -0.621895
O7    O     O_R   0.398130 0.498850 0.616130 -0.577924
O8    O     O_R   0.601870 0.501150 0.383870 -0.578077
C3    C     C_R   0.518407 0.502707 0.653655 0.937131
C4    C     C_R   0.481590 0.497338 0.346350 0.937015
Zn1   Zn    Zn3+2 0.653130 0.499980 0.500000 1.006091
Zn2   Zn    Zn3+2 0.346870 0.500020 0.500000 1.006234
C5    C     C_R   0.531827 0.518097 0.740417 -0.199789
C6    C     C_R   0.468133 0.482074 0.259591 -0.199483
C7    C     C_R   0.439247 0.593766 0.778105 0.205263
C8    C     C_R   0.560091 0.405742 0.221902 0.205474
C9    C     C_R   0.452500 0.604024 0.862262 0.203207
C10   C     C_R   0.546726 0.395457 0.137720 0.202222
C11   C     C_R   0.556152 0.535173 0.907102 0.194579
C12   C     C_R   0.443600 0.465026 0.092927 0.194687
C13   C     C_R   0.652663 0.468293 0.868803 -0.135083
C14   C     C_R   0.347676 0.532623 0.131244 -0.135156
C15   C     C_R   0.640749 0.459662 0.785701 -0.239725
C16   C     C_R   0.359685 0.541227 0.214337 -0.240254
N1    N     N_2   0.555804 0.520446 0.990724 -0.099484
N2    N     N_2   0.443966 0.479700 0.009315 -0.098484
H1    H     H_    0.732587 0.416944 0.903844 0.207785
H2    H     H_    0.268157 0.584497 0.096218 0.208264
H3    H     H_    0.713685 0.403462 0.756900 0.188891
H4    H     H_    0.287216 0.597932 0.243160 0.188630
C17   C     C_R   0.380095 0.063573 0.513750 -0.176994
C18   C     C_R   0.619901 0.936428 0.486237 -0.176894
H5    H     H_    0.286955 0.111941 0.524940 0.163760
H6    H     H_    0.713041 0.888059 0.475046 0.163764
C19   C     C_R   0.380117 0.935794 0.513663 -0.114652
C20   C     C_R   0.619879 0.064207 0.486324 -0.114250
H7    H     H_    0.286972 0.886911 0.524788 0.182203
H8    H     H_    0.713022 0.113090 0.475196 0.182053
C21   C     C_R   0.500036 0.872594 0.499937 -0.021145
C22   C     C_R   0.499962 0.127406 0.500053 -0.020886
C23   C     C_R   0.064636 0.579284 0.450498 -0.041582
C24   C     C_R   0.935365 0.420717 0.549503 -0.041440
H9    H     H_    0.113418 0.642605 0.410946 0.127640
H10   H     H_    0.886583 0.357397 0.589056 0.127627
C25   C     C_R   0.920661 0.579262 0.450524 -0.006327
C26   C     C_R   0.079339 0.420739 0.549477 -0.005946
H11   H     H_    0.860134 0.642586 0.410988 0.133844
H12   H     H_    0.139867 0.357416 0.589014 0.133880
N3    N     N_R   0.857210 0.499970 0.500020 -0.084533
N4    N     N_R   0.142790 0.500030 0.499980 -0.084554
N5    N     N_R   0.660277 0.332757 0.269159 0.248836
O9    O     O_R   0.622840 0.234074 0.307626 -0.387590
O10   O     O_R   0.784640 0.373981 0.282491 -0.331651
N6    N     N_R   0.338425 0.666137 0.730900 0.248615
O11   O     O_R   0.375169 0.764553 0.691902 -0.387993
O12   O     O_R   0.214150 0.624487 0.718095 -0.331415
N7    N     N_R   0.634424 0.313811 0.097408 0.227729
O13   O     O_R   0.585341 0.249671 0.035586 -0.336675
O14   O     O_R   0.763958 0.305035 0.120736 -0.300186
N8    N     N_R   0.364012 0.684923 0.902502 0.227818
O15   O     O_R   0.412743 0.750584 0.963692 -0.336736
O16   O     O_R   0.233941 0.690495 0.880242 -0.301270

loop_
_geom_bond_atom_site_label_1
_geom_bond_atom_site_label_2
_geom_bond_distance
_ccdc_geom_bond_type
C9    C11   1.412632 A    
C15   H3    1.083737 S    
C20   H8    1.083661 S    
O7    Zn2   1.955980 S    
O8    Zn1   1.955980 S    
Zn2   N4    2.005875 S    
C16   H4    1.083774 S    
N8    O15   1.301448 A    
C25   N3    1.366025 A    
O7    C3    1.288671 A    
C8    C10   1.402739 A    
C26   N4    1.366025 A    
O6    C4    1.288365 A    
O3    C1    1.281846 A    
C3    C5    1.451230 S    
C26   H12   1.081786 S    
C11   N1    1.400779 S    
N7    O13   1.301641 A    
C19   H7    1.083660 S    
C12   N2    1.400576 S    
N5    O9    1.300521 A    
C10   N7    1.440742 S    
O5    C3    1.288454 A    
C23   H9    1.081817 S    
C7    N6    1.432728 S    
O2    C2    1.281490 A    
O3    Zn2   2.000390 S    
O8    C4    1.288645 A    
O1    C1    1.281489 A    
C17   C22   1.396927 A    
C13   H1    1.083354 S    
C24   N3    1.365795 A    
C6    C8    1.411668 A    
C17   H5    1.083670 S    
N6    O12   1.300987 A    
C20   C22   1.397227 A    
C18   H6    1.083672 S    
N5    O10   1.300996 A    
C11   C13   1.392252 A    
C19   C21   1.397228 A    
O2    Zn2   2.000057 S    
C12   C14   1.392270 A    
C23   N4    1.365794 A    
C5    C15   1.398560 A    
C14   H2    1.083388 S    
O1    Zn1   2.000059 S    
C10   C12   1.412803 A    
C9    N8    1.440214 S    
C4    C6    1.451010 S    
O5    Zn1   1.973105 S    
C13   C15   1.383376 A    
N6    O11   1.300542 A    
C1    C22   1.419503 S    
C25   H11   1.081785 S    
O4    C2    1.281848 A    
N7    O14   1.301218 A    
N1    N2    1.245597 D    
C5    C7    1.411678 A    
N8    O16   1.300678 A    
O6    Zn2   1.973105 S    
C8    N5    1.432668 S    
C7    C9    1.402300 A    
Zn1   N3    2.005875 S    
C23   C25   1.415168 A    
C2    C21   1.419505 S    
C24   H10   1.081816 S    
C17   C19   1.369732 A    
C24   C26   1.415167 A    
O4    Zn1   2.000387 S    
C14   C16   1.383188 A    
C18   C21   1.396929 A    
C6    C16   1.398415 A    
C18   C20   1.369734 A    
