data_mof_unit_3745.cif
_audit_creation_date              2012-12-10T18:03:34-0500
_audit_creation_method            fapswitch 2.2
_symmetry_space_group_name_H-M    P1
_symmetry_Int_Tables_number       1
_space_group_crystal_system       triclinic
_cell_length_a                    10.855272
_cell_length_b                    9.646122
_cell_length_c                    19.382472
_cell_angle_alpha                 90.318105
_cell_angle_beta                  93.221933
_cell_angle_gamma                 90.24216
_cell_volume                      2026.3031628

loop_
_atom_site_label
_atom_site_type_symbol
_atom_type_description
_atom_site_fract_x
_atom_site_fract_y
_atom_site_fract_z
_atom_type_partial_charge
C1    C     C_R   0.872324 0.502001 0.487620 -0.368843
C2    C     C_R   0.128346 0.500521 0.513459 -0.361676
C3    C     C_R   0.359387 0.519699 0.962486 0.386818
C4    C     C_R   0.572176 0.425861 0.037248 0.362509
C5    C     C_R   0.368019 0.531026 0.034732 0.359298
C6    C     C_R   0.569057 0.428156 0.964864 0.364863
C7    C     C_R   0.473580 0.481823 0.072102 -0.151746
C8    C     C_R   0.461861 0.473913 0.927274 -0.195123
C9    C     C_R   0.263122 0.499980 0.506396 0.889207
C10   C     C_R   0.737110 0.500478 0.493860 0.896063
C11   C     C_R   0.499140 0.499327 0.367993 0.854466
C12   C     C_R   0.495011 0.499445 0.632139 0.858659
C13   C     C_R   0.061914 0.375023 0.510503 0.283905
C14   C     C_R   0.938863 0.628056 0.491708 0.292141
C15   C     C_R   0.937373 0.376038 0.487524 0.278681
C16   C     C_R   0.063664 0.626638 0.513788 0.294370
C17   C     C_R   0.494623 0.366880 0.742105 -0.276328
C18   C     C_R   0.412714 0.403406 0.257173 -0.296059
C19   C     C_R   0.568747 0.583192 0.255657 -0.328209
C20   C     C_R   0.445332 0.610402 0.744625 -0.281587
C21   C     C_R   0.477468 0.357308 0.813060 0.492224
C22   C     C_R   0.402532 0.401013 0.184731 0.462594
C23   C     C_R   0.565307 0.577290 0.183096 0.463429
C24   C     C_R   0.442453 0.606621 0.816535 0.488338
C25   C     C_R   0.459687 0.479249 0.851181 0.016210
C26   C     C_R   0.480393 0.487135 0.148053 0.060281
C27   C     C_R   0.443250 0.074197 0.446422 0.445475
C28   C     C_R   0.557624 0.925825 0.553580 0.452629
C29   C     C_R   0.558200 0.075564 0.553338 0.435015
C30   C     C_R   0.445472 0.924969 0.445590 0.444468
C31   C     C_R   0.480590 0.493827 0.707434 -0.150298
C32   C     C_R   0.493545 0.495928 0.292496 -0.118881
Cu1   Cu    Cu3+1 0.500000 0.640660 0.500000 1.105930
Cu2   Cu    Cu3+1 0.500000 0.359340 0.500000 1.096678
H1    H     H_    0.517357 0.273991 0.714305 0.221876
H2    H     H_    0.356610 0.334529 0.286089 0.183076
H3    H     H_    0.629624 0.655414 0.283439 0.185928
H4    H     H_    0.420634 0.705042 0.718413 0.179312
N1    N     N_R   0.500000 0.852070 0.500000 -0.255721
N2    N     N_R   0.500000 0.147930 0.500000 -0.241551
O1    O     O_R   0.319640 0.618740 0.500000 -0.509558
O2    O     O_R   0.680360 0.381260 0.500000 -0.554868
O3    O     O_R   0.680360 0.618740 0.500000 -0.496286
O4    O     O_R   0.319640 0.381260 0.500000 -0.549207
O5    O     O_R   0.500020 0.618830 0.400190 -0.548310
O6    O     O_R   0.499980 0.381170 0.599810 -0.532034
O7    O     O_R   0.499980 0.618830 0.599810 -0.552170
O8    O     O_R   0.500020 0.381170 0.400190 -0.518882
O9    O     O_3   0.397404 0.145946 0.389122 -0.590548
C33   C     C_3   0.267967 0.133905 0.380254 -0.150487
H5    H     H_    0.225529 0.230131 0.399159 0.207498
H6    H     H_    0.227664 0.041929 0.405122 0.250967
H7    H     H_    0.242187 0.125501 0.324240 0.125221
O10   O     O_3   0.627811 0.852782 0.603008 -0.523328
C34   C     C_3   0.590303 0.879617 0.670357 -0.237366
H8    H     H_    0.612573 0.787131 0.701972 0.167496
H9    H     H_    0.490141 0.903292 0.671968 0.129999
H10   H     H_    0.645626 0.963172 0.696143 0.177276
O11   O     O_3   0.602308 0.148239 0.611303 -0.605459
C35   C     C_3   0.732314 0.150247 0.617127 -0.160258
H11   H     H_    0.768441 0.241488 0.590710 0.214027
H12   H     H_    0.775422 0.053742 0.598642 0.249702
H13   H     H_    0.762187 0.163169 0.672469 0.134295
O12   O     O_3   0.384354 0.852358 0.392026 -0.538494
C36   C     C_3   0.444058 0.871997 0.329736 -0.222952
H14   H     H_    0.413630 0.788234 0.293307 0.174922
H15   H     H_    0.546346 0.867526 0.337235 0.152710
H16   H     H_    0.416063 0.969555 0.303732 0.184838
S1    S     S_3+6 0.116349 0.235687 0.563092 0.077642
O13   O     O_2   0.196242 0.140980 0.523942 -0.221490
O14   O     O_2   0.191266 0.293075 0.624505 -0.327070
O15   O     O_3   0.997356 0.144259 0.590815 -0.483895
H17   H     H_    0.019647 0.123312 0.639887 0.363577
S2    S     S_3+6 0.878442 0.779914 0.451283 0.097547
O16   O     O_2   0.815191 0.865507 0.503351 -0.196056
O17   O     O_2   0.980846 0.863050 0.422585 -0.224120
O18   O     O_3   0.776870 0.737008 0.385986 -0.573597
H18   H     H_    0.766094 0.822843 0.358554 0.346880
S3    S     S_3+6 0.880722 0.238890 0.432837 0.068893
O19   O     O_2   0.805507 0.138642 0.471704 -0.221423
O20   O     O_2   0.800903 0.298178 0.374356 -0.320356
O21   O     O_3   0.998632 0.153757 0.400048 -0.508602
H19   H     H_    0.965158 0.114724 0.355447 0.365922
S4    S     S_3+6 0.127870 0.773319 0.558794 0.102143
O22   O     O_2   0.192232 0.863463 0.509174 -0.218179
O23   O     O_2   0.028038 0.854377 0.591017 -0.214643
O24   O     O_3   0.229864 0.722192 0.621869 -0.546512
H20   H     H_    0.265301 0.809541 0.641569 0.353940
O25   O     O_3   0.482912 0.230773 0.846787 -0.557915
C37   C     C_3   0.395503 0.137597 0.815479 -0.303438
H21   H     H_    0.436479 0.080377 0.772521 0.175961
H22   H     H_    0.308193 0.189180 0.796681 0.166683
H23   H     H_    0.369808 0.060862 0.854553 0.201350
O26   O     O_3   0.325570 0.307360 0.148414 -0.583504
C38   C     C_3   0.203192 0.318921 0.168870 -0.258376
H24   H     H_    0.174905 0.428704 0.176348 0.185289
H25   H     H_    0.190467 0.258102 0.216391 0.140551
H26   H     H_    0.140338 0.274140 0.127391 0.187523
O27   O     O_3   0.635317 0.666254 0.144719 -0.592876
C39   C     C_3   0.760768 0.663633 0.168271 -0.242430
H27   H     H_    0.793450 0.556909 0.181032 0.193427
H28   H     H_    0.777541 0.734305 0.213278 0.156579
H29   H     H_    0.816971 0.702382 0.126314 0.179320
O28   O     O_3   0.414998 0.726460 0.851928 -0.540388
C40   C     C_3   0.526433 0.792293 0.874418 -0.347623
H30   H     H_    0.583239 0.818757 0.830259 0.150793
H31   H     H_    0.580004 0.728279 0.912796 0.151769
H32   H     H_    0.504586 0.890250 0.901091 0.207916
O29   O     O_3   0.252728 0.561334 0.926229 -0.516055
C41   C     C_3   0.172981 0.445956 0.918332 -0.232247
H33   H     H_    0.145736 0.407080 0.969295 0.175088
H34   H     H_    0.215249 0.361161 0.888596 0.146513
H35   H     H_    0.087685 0.478556 0.888722 0.176394
O30   O     O_3   0.675663 0.376752 0.074003 -0.557629
C42   C     C_3   0.661163 0.232845 0.083170 -0.244678
H36   H     H_    0.654581 0.176758 0.032741 0.191581
H37   H     H_    0.579172 0.209219 0.113123 0.168679
H38   H     H_    0.743610 0.193389 0.113148 0.177359
O31   O     O_3   0.269958 0.583605 0.068971 -0.560257
C43   C     C_3   0.284353 0.728640 0.074347 -0.269473
H39   H     H_    0.282429 0.777881 0.022486 0.200205
H40   H     H_    0.370891 0.757201 0.104739 0.161888
H41   H     H_    0.206115 0.771091 0.102104 0.176276
O32   O     O_3   0.667892 0.375529 0.931157 -0.522941
C44   C     C_3   0.753841 0.482958 0.922205 -0.257216
H42   H     H_    0.777803 0.540659 0.971137 0.175159
H43   H     H_    0.719187 0.555003 0.881118 0.132849
H44   H     H_    0.840207 0.436452 0.904880 0.180126

loop_
_geom_bond_atom_site_label_1
_geom_bond_atom_site_label_2
_ccdc_geom_bond_type
C23   O27   S    
O24   H20   S    
C30   O12   S    
C10   O2    A    
Cu1   O5    S    
C38   H24   S    
Cu2   O2    S    
S4    O24   S    
C6    O32   S    
C34   H8    S    
O30   C42   S    
C38   H26   S    
C21   O25   S    
O18   H18   S    
C40   H31   S    
Cu1   N1    S    
C7    C26   S    
S2    O17   D    
C5    O31   S    
C35   H13   S    
Cu2   N2    S    
C14   S2    S    
C4    O30   S    
C28   C29   A    
S4    O23   D    
C4    C7    A    
C42   H36   S    
C16   S4    S    
C35   H12   S    
C23   C26   A    
S1    O14   D    
C2    C13   A    
C41   H33   S    
C19   H3    S    
C15   S3    S    
C20   C24   A    
C36   H15   S    
S2    O18   S    
C44   H44   S    
C33   H6    S    
C1    C15   A    
C2    C16   A    
C43   H41   S    
C42   H38   S    
O11   C35   S    
C27   C30   A    
C8    C25   S    
C22   O26   S    
C11   O8    A    
S1    O13   D    
C12   O7    A    
C19   C32   A    
O28   C40   S    
C43   H40   S    
Cu1   Cu2   S    
C40   H32   S    
C33   H7    S    
S2    O16   D    
Cu1   O3    S    
C29   O11   S    
Cu2   O4    S    
C24   C25   A    
C4    C6    A    
C3    C8    A    
S3    O20   D    
C28   O10   S    
C6    C8    A    
C28   N1    A    
C42   H37   S    
C39   H29   S    
C17   C21   A    
C35   H11   S    
C24   O28   S    
S1    O15   S    
C19   C23   A    
C20   H4    S    
C37   H22   S    
O27   C39   S    
C27   N2    A    
C36   H16   S    
C39   H28   S    
C33   H5    S    
S4    O22   D    
C41   H35   S    
Cu2   O6    S    
C12   O6    A    
C11   C32   S    
O9    C33   S    
C13   C15   A    
C12   C31   S    
C44   H42   S    
C17   C31   A    
C14   C16   A    
C11   O5    A    
Cu2   O8    S    
C43   H39   S    
C37   H23   S    
C5    C7    A    
C21   C25   A    
O10   C34   S    
C9    O4    A    
C10   O3    A    
C18   C22   A    
C1    C10   S    
O15   H17   S    
C3    C5    A    
S3    O21   S    
O31   C43   S    
C38   H25   S    
C40   H30   S    
C9    O1    A    
Cu1   O1    S    
O12   C36   S    
C34   H9    S    
O29   C41   S    
C37   H21   S    
C13   S1    S    
C3    O29   S    
Cu1   O7    S    
C29   N2    A    
C39   H27   S    
C30   N1    A    
C36   H14   S    
O26   C38   S    
C41   H34   S    
S3    O19   D    
C18   C32   A    
O21   H19   S    
C22   C26   A    
C34   H10   S    
C44   H43   S    
C1    C14   A    
C17   H1    S    
O25   C37   S    
C2    C9    S    
C18   H2    S    
C27   O9    S    
O32   C44   S    
C20   C31   A    
