data_mof_unit_378.cif
_audit_creation_date              2013-03-05T15:42:19-0500
_audit_creation_method            fapswitch 2.2
_symmetry_space_group_name_H-M    P1
_symmetry_Int_Tables_number       1
_space_group_crystal_system       triclinic
_cell_length_a                    7.799314
_cell_length_b                    8.579431
_cell_length_c                    19.251503
_cell_angle_alpha                 90.623312
_cell_angle_beta                  85.335852
_cell_angle_gamma                 93.877446
_cell_volume                      1280.96527708

loop_
_atom_site_label
_atom_site_type_symbol
_atom_site_description
_atom_site_fract_x
_atom_site_fract_y
_atom_site_fract_z
_atom_type_partial_charge
O1    O     O_R   0.389250 0.738570 0.504600 -0.596489
O2    O     O_R   0.610750 0.261430 0.495400 -0.596430
O3    O     O_R   0.678400 0.711620 0.492580 -0.679670
O4    O     O_R   0.321600 0.288380 0.507420 -0.679703
C1    C     C_R   0.545250 0.794380 0.498833 0.952990
C2    C     C_R   0.454750 0.205620 0.501166 0.952947
O5    O     O_R   0.355380 0.513500 0.607880 -0.563860
O6    O     O_R   0.644620 0.486500 0.392120 -0.563833
O7    O     O_R   0.644530 0.486550 0.595850 -0.663156
O8    O     O_R   0.355470 0.513450 0.404150 -0.663168
C3    C     C_R   0.502929 0.502665 0.634488 0.966337
C4    C     C_R   0.497070 0.497333 0.365512 0.966325
Zn1   Zn    Zn3+2 0.306930 0.517990 0.508030 1.019102
Zn2   Zn    Zn3+2 0.693070 0.482010 0.491970 1.019159
C5    C     C_R   0.385930 0.593489 0.750876 0.223920
C6    C     C_R   0.614061 0.406485 0.249127 0.223923
C7    C     C_R   0.375865 0.586039 0.823688 0.227539
C8    C     C_R   0.624123 0.413919 0.176315 0.227551
C9    C     C_R   0.489016 0.494822 0.855908 -0.205241
C10   C     C_R   0.510963 0.505120 0.144091 -0.205245
C11   C     C_R   0.617143 0.416968 0.817054 0.296084
C12   C     C_R   0.382830 0.582974 0.182943 0.296084
C13   C     C_R   0.632414 0.427419 0.744209 -0.151359
C14   C     C_R   0.367576 0.572553 0.255789 -0.151385
C15   C     C_R   0.509969 0.509853 0.710634 -0.297134
C16   C     C_R   0.490027 0.490131 0.289367 -0.297155
N1    N     N_R   0.453792 0.365174 0.967907 -0.043887
N2    N     N_R   0.546201 0.634762 0.032091 -0.043876
N3    N     N_R   0.462407 0.367277 0.036410 -0.067456
N4    N     N_R   0.537584 0.632659 0.963589 -0.067447
C17   C     C_R   0.509184 0.502002 0.069184 0.394074
C18   C     C_R   0.490804 0.497935 0.930815 0.394074
C19   C     C_2   0.561540 0.956252 0.511393 -0.198610
C20   C     C_2   0.438461 0.043749 0.488603 -0.198656
N5    N     N_2   0.950330 0.457950 0.481240 -0.193896
N6    N     N_2   0.049670 0.542050 0.518760 -0.193940
N7    N     N_R   0.272001 0.689196 0.718070 0.260618
O9    O     O_R   0.105895 0.668068 0.731627 -0.293569
O10   O     O_R   0.334684 0.803027 0.677468 -0.305805
N8    N     N_R   0.727987 0.310781 0.281937 0.260623
O11   O     O_R   0.894095 0.331915 0.268385 -0.293596
O12   O     O_R   0.665301 0.196951 0.322537 -0.305781
N9    N     N_R   0.254604 0.675409 0.864910 0.252133
O13   O     O_R   0.159166 0.611398 0.916917 -0.262533
O14   O     O_R   0.244348 0.823086 0.852363 -0.236117
N10   N     N_R   0.745389 0.324546 0.135096 0.252132
O15   O     O_R   0.840824 0.388553 0.083087 -0.262536
O16   O     O_R   0.755653 0.176873 0.147649 -0.236128
N11   N     N_R   0.740905 0.337488 0.852336 0.242067
O17   O     O_R   0.698890 0.200667 0.879482 -0.246091
O18   O     O_R   0.899407 0.395575 0.851905 -0.277244
N12   N     N_R   0.259050 0.662428 0.147659 0.242070
O19   O     O_R   0.301064 0.799219 0.120482 -0.246111
O20   O     O_R   0.100528 0.604372 0.148132 -0.277260
C21   C     C_2   0.779483 0.354149 0.705317 0.638908
H1    H     H_    0.859409 0.417660 0.664975 0.081519
O21   O     O_2   0.817214 0.223334 0.720006 -0.450202
C22   C     C_2   0.220526 0.645851 0.294679 0.638972
H2    H     H_    0.140596 0.582361 0.335027 0.081486
O22   O     O_2   0.182814 0.776668 0.279983 -0.450191
C23   C     C_2   0.676956 0.006229 0.566584 0.450698
H3    H     H_    0.804196 0.963249 0.566070 0.100462
O23   O     O_2   0.626676 0.089576 0.614729 -0.510610
C24   C     C_2   0.323049 0.993777 0.433410 0.450628
H4    H     H_    0.195830 0.036799 0.433910 0.100483
O24   O     O_2   0.373312 0.910395 0.385275 -0.510610
C25   C     C_2   0.989929 0.300827 0.472563 0.671612
H5    H     H_    0.018257 0.233075 0.516968 0.002438
O25   O     O_2   0.977580 0.237070 0.416122 -0.537538
C26   C     C_2   0.010029 0.699155 0.527464 0.671745
H6    H     H_    0.981793 0.766967 0.483063 0.002371
O26   O     O_2   0.022203 0.762822 0.583934 -0.537556

loop_
_geom_bond_atom_site_label_1
_geom_bond_atom_site_label_2
_geom_bond_distance
_ccdc_geom_bond_type
O5    C3    1.306407 A    
O7    Zn2   2.005340 S    
C7    N9    1.440455 S    
C13   C21   1.489639 S    
C26   H6    1.084611 S    
N1    N3    1.325796 A    
C10   C12   1.400757 A    
O7    C3    1.294952 A    
N5    N6    1.283242 D    
N5    C25   1.408359 S    
O6    C4    1.306408 A    
C24   H4    1.081078 S    
C21   H1    1.083146 S    
N2    N4    1.325793 A    
C19   C20   1.360373 D    
N1    C18   1.352892 A    
C14   C22   1.489635 S    
N3    C17   1.353425 A    
C6    C8    1.399455 A    
N4    C18   1.353423 A    
N9    O14   1.301343 A    
C14   C16   1.425366 A    
C24   O24   1.220070 D    
O2    C2    1.273711 A    
O3    Zn2   1.980805 S    
O8    C4    1.294951 A    
C6    N8    1.436623 S    
C19   C23   1.488785 S    
O1    C1    1.273712 A    
C9    C18   1.443203 S    
C8    N10   1.440455 S    
C11   N11   1.436583 S    
N8    O11   1.301390 A    
C9    C11   1.400748 A    
N7    O9    1.301390 A    
N12   O20   1.300672 A    
C20   C24   1.488790 S    
C12   N12   1.436590 S    
C8    C10   1.403218 A    
C21   O21   1.221179 D    
N9    O13   1.301369 A    
C6    C16   1.418052 A    
C23   H3    1.081076 S    
O2    Zn2   1.956895 S    
C12   C14   1.401088 A    
C5    C15   1.418054 A    
O4    C2    1.294068 A    
O1    Zn1   1.956895 S    
C3    C15   1.471872 S    
C22   O22   1.221180 D    
C25   H5    1.084599 S    
N10   O16   1.301343 A    
O5    Zn1   1.990244 S    
C13   C15   1.425367 A    
N12   O19   1.300732 A    
Zn1   N6    2.024553 S    
N7    O10   1.301386 A    
N11   O17   1.300728 A    
N11   O18   1.300666 A    
C25   O25   1.219052 D    
Zn2   N5    2.024552 S    
C23   O23   1.220070 D    
N6    C26   1.408349 S    
N10   O15   1.301371 A    
C5    N7    1.436625 S    
C26   O26   1.219048 D    
O6    Zn2   1.990246 S    
C7    C9    1.403217 A    
C22   H2    1.083146 S    
C5    C7    1.399456 A    
C11   C13   1.401084 A    
C10   C17   1.443203 S    
N2    C17   1.352889 A    
C2    C20   1.406098 S    
O4    Zn1   1.980805 S    
C4    C16   1.471873 S    
N8    O12   1.301387 A    
O3    C1    1.294067 A    
O8    Zn1   2.005344 S    
C1    C19   1.406096 S    
