data_mof_unit_4354.cif
_audit_creation_date              2013-03-05T15:44:33-0500
_audit_creation_method            fapswitch 2.2
_symmetry_space_group_name_H-M    P1
_symmetry_Int_Tables_number       1
_space_group_crystal_system       triclinic
_cell_length_a                    27.794139
_cell_length_b                    10.930679
_cell_length_c                    9.742028
_cell_angle_alpha                 89.209931
_cell_angle_beta                  90.506813
_cell_angle_gamma                 91.761569
_cell_volume                      2957.92893293

loop_
_atom_site_label
_atom_site_type_symbol
_atom_site_description
_atom_site_fract_x
_atom_site_fract_y
_atom_site_fract_z
_atom_type_partial_charge
O1    O     O_R   0.500010 0.321960 0.617040 -0.550290
O2    O     O_R   0.499990 0.321920 0.382900 -0.615166
C1    C     C_R   0.497620 0.265151 0.501597 0.767739
O3    O     O_R   0.430270 0.500040 0.617060 -0.574637
O4    O     O_R   0.430260 0.500000 0.382910 -0.525545
C2    C     C_R   0.407695 0.503521 0.498971 0.842494
Cu1   Cu    Cu3+1 0.500010 0.500020 0.638630 1.121855
Cu2   Cu    Cu3+1 0.499990 0.499980 0.361370 1.042688
O5    O     O_R   0.500010 0.678080 0.617100 -0.491336
O6    O     O_R   0.499990 0.678040 0.382960 -0.576783
O7    O     O_R   0.569740 0.500000 0.617090 -0.534773
O8    O     O_R   0.569730 0.499960 0.382940 -0.569084
C3    C     C_R   0.503091 0.733941 0.498883 0.845678
C4    C     C_R   0.592510 0.501222 0.500601 0.797196
C5    C     C_R   0.178022 0.470457 0.407141 0.571572
O9    O     O_2   0.202635 0.401390 0.319936 -0.478221
N1    N     N_R   0.202811 0.550590 0.489738 -0.461609
C6    C     C_R   0.179745 0.639111 0.558864 0.646098
C7    C     C_R   0.284210 0.635616 0.455054 -0.096978
C8    C     C_R   0.334049 0.623974 0.449932 -0.058633
C9    C     C_R   0.324757 0.416151 0.545178 -0.149450
C10   C     C_R   0.274324 0.430563 0.553084 -0.061970
C11   C     C_R   0.254253 0.540210 0.503944 0.243183
C12   C     C_R   0.102807 0.555864 0.477449 -0.080153
C13   C     C_R   0.127440 0.460937 0.412707 -0.057785
C14   C     C_R   0.100745 0.362096 0.353681 -0.013382
C15   C     C_R   0.129455 0.651954 0.542753 -0.140689
C16   C     C_R   0.354796 0.513836 0.495810 -0.153316
C17   C     C_R   0.645602 0.505939 0.502344 -0.072943
C18   C     C_R   0.974649 0.443520 0.439717 0.049463
C19   C     C_R   0.975563 0.653892 0.525362 0.053058
C20   C     C_R   0.949704 0.546274 0.486120 0.079470
C21   C     C_R   0.948048 0.333838 0.413999 -0.180428
C22   C     C_R   0.898389 0.327816 0.425003 -0.130035
C23   C     C_R   0.873207 0.430738 0.461813 -0.022251
C24   C     C_R   0.898544 0.540910 0.493064 -0.044482
C25   C     C_R   0.872707 0.644919 0.530828 -0.089414
C26   C     C_R   0.821651 0.635996 0.527734 0.598197
N2    N     N_R   0.798401 0.526504 0.501968 -0.448885
C27   C     C_R   0.822964 0.425004 0.469367 0.598507
C28   C     C_R   0.721293 0.517781 0.380885 -0.098356
C29   C     C_R   0.671232 0.511396 0.379016 -0.170967
C30   C     C_R   0.671009 0.506637 0.627740 -0.217513
C31   C     C_R   0.721603 0.511925 0.631366 -0.004005
C32   C     C_R   0.746766 0.518315 0.505581 0.279836
O10   O     O_2   0.798641 0.318788 0.443918 -0.517262
C33   C     C_R   0.025375 0.452255 0.423812 0.045119
C34   C     C_R   0.051600 0.554382 0.477021 0.085044
C35   C     C_R   0.026896 0.654209 0.530951 0.000569
C36   C     C_R   0.050675 0.360858 0.357203 -0.235325
H1    H     H_    0.652645 0.511410 0.280836 0.200266
H2    H     H_    0.740574 0.522780 0.284738 0.167695
H3    H     H_    0.879751 0.241507 0.403876 0.206327
H4    H     H_    0.964713 0.249185 0.389632 0.158580
H5    H     H_    0.032074 0.285792 0.306714 0.164370
O11   O     O_2   0.205392 0.710374 0.646201 -0.415160
C37   C     C_R   0.104559 0.753532 0.592707 0.375448
H6    H     H_    0.268104 0.718159 0.415388 0.188925
C38   C     C_R   0.949153 0.757460 0.558995 -0.232137
C39   C     C_R   0.898919 0.753820 0.565345 -0.016405
O12   O     O_2   0.795113 0.735300 0.547270 -0.493646
C40   C     C_R   0.054334 0.751252 0.589318 -0.272798
H7    H     H_    0.966762 0.844271 0.580948 0.162248
H8    H     H_    0.651325 0.501682 0.723255 0.221678
H9    H     H_    0.037413 0.826516 0.637196 0.187702
C41   C     C_2   0.496190 0.933459 0.392097 -0.094613
C42   C     C_2   0.511852 0.864472 0.496156 -0.184708
H10   H     H_    0.481218 0.892283 0.299872 0.181123
H11   H     H_    0.530732 0.904592 0.582815 0.204583
C43   C     C_2   0.500052 0.066671 0.396994 -0.284166
C44   C     C_2   0.490092 0.132633 0.508708 0.269072
H12   H     H_    0.511121 0.112482 0.302241 0.161364
C45   C     C_2   0.493908 0.402843 0.926365 0.019407
N3    N     N_2   0.499480 0.498660 0.846910 -0.009572
H13   H     H_    0.483000 0.316758 0.880878 0.163199
C46   C     C_2   0.503169 0.401889 0.079185 0.008905
N4    N     N_2   0.499460 0.498630 0.153040 -0.222166
H14   H     H_    0.513188 0.316488 0.127625 0.142626
H15   H     H_    0.478790 0.565794 0.110625 0.269591
C47   C     C_2   0.345706 0.296484 0.578522 0.953692
O13   O     O_2   0.337569 0.246264 0.689174 -0.510303
O14   O     O_R   0.373013 0.239163 0.479764 -0.734871
H16   H     H_    0.380818 0.152215 0.506770 0.388365
S1    S     S_3+6 0.133450 0.892084 0.648408 0.092644
O15   O     O_2   0.152816 0.874092 0.791540 -0.168426
O16   O     O_2   0.174249 0.928167 0.554350 -0.192852
O17   O     O_3   0.094436 0.006798 0.650082 -0.510969
H17   H     H_    0.087534 0.025167 0.552120 0.348528
C48   C     C_2   0.876394 0.865556 0.615756 0.943284
O18   O     O_2   0.851323 0.860436 0.718348 -0.522573
O19   O     O_R   0.886263 0.978006 0.550187 -0.760848
H18   H     H_    0.869606 0.048124 0.595131 0.348791
C49   C     C_2   0.746937 0.509100 0.766807 0.899204
O20   O     O_2   0.725213 0.532848 0.871360 -0.570345
O21   O     O_R   0.795224 0.477447 0.776381 -0.750583
H19   H     H_    0.808023 0.478977 0.874138 0.347104
C50   C     C_2   0.241700 0.331334 0.608194 0.947940
O22   O     O_2   0.245814 0.225608 0.571607 -0.465108
O23   O     O_R   0.205158 0.360157 0.698928 -0.731407
H20   H     H_    0.184659 0.285839 0.727096 0.373001
S2    S     S_3+6 0.464079 0.070006 0.663460 0.010129
O24   O     O_2   0.432068 0.959896 0.634208 -0.237928
O25   O     O_2   0.503491 0.035189 0.761818 -0.296042
O26   O     O_3   0.430906 0.175014 0.739521 -0.529146
H21   H     H_    0.419588 0.135259 0.825854 0.394534
S3    S     S_3+6 0.538794 0.618397 0.902980 0.129758
O27   O     O_2   0.509862 0.718624 0.962399 -0.275792
O28   O     O_2   0.574465 0.574077 0.008134 -0.288116
O29   O     O_3   0.571891 0.682098 0.775866 -0.487064
H22   H     H_    0.589529 0.752399 0.818011 0.369120
C51   C     C_2   0.122837 0.251144 0.299033 0.923992
O30   O     O_2   0.152328 0.196020 0.368030 -0.497418
O31   O     O_R   0.107713 0.205813 0.171765 -0.731230
H23   H     H_    0.124631 0.128497 0.146523 0.364821
C52   C     C_2   0.362853 0.727921 0.391375 0.858507
O32   O     O_2   0.356683 0.831701 0.431662 -0.515799
O33   O     O_R   0.394596 0.708636 0.284036 -0.728618
H24   H     H_    0.409359 0.787714 0.245952 0.338186

loop_
_geom_bond_atom_site_label_1
_geom_bond_atom_site_label_2
_geom_bond_distance
_ccdc_geom_bond_type
C41   H10   1.084430 S    
O17   H17   0.990830 S    
C49   O20   1.223598 D    
C17   C29   1.401823 A    
C28   C29   1.390984 A    
C7    C11   1.395571 A    
O21   H19   1.013844 S    
C12   C15   1.420850 A    
C50   O22   1.223063 D    
C37   C40   1.395543 A    
C39   C48   1.481165 S    
C27   O10   1.350252 S    
N1    C11   1.443028 S    
C20   C24   1.423534 A    
C24   C25   1.417726 A    
S1    O16   1.504000 D    
C14   C36   1.392021 A    
O4    C2    1.299418 A    
Cu2   O6    1.960530 S    
O7    C4    1.303970 A    
C5    C13   1.408029 A    
S3    O27   1.503923 D    
C52   O32   1.222988 D    
C5    N1    1.364518 A    
C22   C23   1.395734 A    
C45   N3    1.299944 D    
C19   C38   1.411850 A    
O5    C3    1.298323 A    
C31   C49   1.490475 S    
S1    O15   1.502802 D    
C2    C16   1.478049 S    
C33   C34   1.416124 A    
C52   O33   1.396471 S    
S1    O17   1.683115 S    
C43   C44   1.349148 D    
Cu1   N3    2.029099 S    
C28   H2    1.083133 S    
C40   H9    1.074157 S    
C6    O11   1.346205 S    
C29   H1    1.083041 S    
N2    C32   1.435892 S    
C26   O12   1.347561 S    
C41   C42   1.333071 D    
C44   S2    1.795710 S    
C38   C39   1.397436 A    
S2    O25   1.503326 D    
C10   C50   1.489622 S    
C9    C10   1.418270 A    
C17   C30   1.405605 A    
C45   H13   1.079489 S    
C19   C35   1.427224 A    
O3    Cu1   1.947881 S    
O26   H21   0.990644 S    
C50   O23   1.398358 S    
C30   H8    1.083468 S    
C21   C22   1.384792 A    
C33   C36   1.408121 A    
N4    H15   1.026228 S    
C7    H6    1.084406 S    
C26   N2    1.367795 A    
C51   O30   1.223192 D    
C12   C34   1.422813 A    
S2    O24   1.503505 D    
C18   C33   1.419883 A    
Cu1   Cu2   2.701076 S    
C46   N4    1.294405 D    
C8    C52   1.480425 S    
O3    C2    1.306182 A    
C15   C37   1.420054 A    
N2    C27   1.363080 A    
C8    C16   1.415951 A    
C13   C14   1.417283 A    
O1    C1    1.292372 A    
C23   C24   1.411741 A    
C1    C44   1.457957 S    
C30   C31   1.405790 A    
C25   C26   1.419496 A    
N3    S3    1.768212 S    
Cu1   O7    1.951261 S    
O23   H20   1.013890 S    
Cu2   O8    1.947875 S    
N1    C6    1.365463 A    
C37   S1    1.781306 S    
C51   O31   1.397980 S    
C12   C13   1.418644 A    
C47   O14   1.397519 S    
C34   C35   1.416480 A    
C9    C16   1.416563 A    
O8    C4    1.304622 A    
S2    O26   1.678454 S    
Cu2   N4    2.029734 S    
C45   C46   1.508570 S    
C48   O19   1.398145 S    
C4    C17   1.474912 S    
O19   H18   1.013954 S    
C31   C32   1.416117 A    
O31   H23   1.013905 S    
C3    C42   1.439949 S    
C21   H4    1.077720 S    
Cu1   O5    1.954709 S    
C35   C40   1.410419 A    
C18   C21   1.413260 A    
O1    Cu1   1.960530 S    
C19   C20   1.414923 A    
O2    Cu2   1.954709 S    
C6    C15   1.416197 A    
C46   H14   1.083125 S    
C47   O13   1.222646 D    
O6    C3    1.292379 A    
O4    Cu2   1.951264 S    
C38   H7    1.077437 S    
C36   H5    1.078435 S    
C7    C8    1.396323 A    
O2    C1    1.305978 A    
O33   H24   1.012534 S    
C18   C20   1.419144 A    
C41   C43   1.458157 S    
S3    O28   1.504986 D    
C9    C47   1.478940 S    
C23   C27   1.398487 A    
C25   C39   1.419214 A    
C22   H3    1.083609 S    
C49   O21   1.398260 S    
O14   H16   1.012076 S    
C28   C32   1.400632 A    
C10   C11   1.413296 A    
C43   H12   1.086412 S    
C42   H11   1.081041 S    
C48   O18   1.223109 D    
O29   H22   0.990643 S    
C14   C51   1.483462 S    
C5    O9    1.348845 S    
S3    O29   1.679751 S    
