data_mof_unit_1241.cif
_audit_creation_date              2013-03-05T16:11:00-0500
_audit_creation_method            fapswitch 2.2
_symmetry_space_group_name_H-M    P1
_symmetry_Int_Tables_number       1
_space_group_crystal_system       triclinic
_cell_length_a                    22.940697
_cell_length_b                    7.204387
_cell_length_c                    20.824188
_cell_angle_alpha                 89.983238
_cell_angle_beta                  93.636857
_cell_angle_gamma                 89.995948
_cell_volume                      3434.75847599

loop_
_atom_site_label
_atom_site_type_symbol
_atom_site_description
_atom_site_fract_x
_atom_site_fract_y
_atom_site_fract_z
_atom_type_partial_charge
O1    O     O_R   0.307200 0.614510 0.194080 -0.561506
O2    O     O_R   0.692800 0.385490 0.805920 -0.561563
O3    O     O_R   0.192800 0.114510 0.305920 -0.560678
O4    O     O_R   0.807200 0.885490 0.694080 -0.560666
O5    O     O_R   0.188140 0.283260 0.181690 -0.563995
O6    O     O_R   0.811860 0.716740 0.818310 -0.563999
O7    O     O_R   0.311860 0.783260 0.318310 -0.563178
O8    O     O_R   0.688140 0.216740 0.681690 -0.563159
C1    C     C_R   0.168367 0.453093 0.166217 1.059446
C2    C     C_R   0.831633 0.546907 0.833781 1.059446
C3    C     C_R   0.331678 0.953035 0.333741 1.054938
C4    C     C_R   0.668323 0.046964 0.666258 1.054916
O9    O     O_R   0.306460 0.284700 0.186400 -0.588109
O10   O     O_R   0.693540 0.715300 0.813600 -0.588081
O11   O     O_R   0.193540 0.784700 0.313600 -0.588979
O12   O     O_R   0.806460 0.215300 0.686400 -0.588967
O13   O     O_R   0.311970 0.115840 0.310660 -0.578869
O14   O     O_R   0.688030 0.884160 0.689340 -0.578861
O15   O     O_R   0.188030 0.615840 0.189340 -0.578909
O16   O     O_R   0.811970 0.384160 0.810660 -0.578997
C5    C     C_R   0.325391 0.453272 0.171815 1.012558
C6    C     C_R   0.674609 0.546728 0.828185 1.012570
C7    C     C_R   0.174626 0.953260 0.328207 1.011461
C8    C     C_R   0.825374 0.046740 0.671793 1.011427
O17   O     O_3   0.251670 0.448440 0.290760 -0.270592
O18   O     O_3   0.748330 0.551560 0.709240 -0.270560
O19   O     O_3   0.248330 0.948440 0.209240 -0.270305
O20   O     O_3   0.751670 0.051560 0.790760 -0.270371
V1    V     V_3+5 0.249690 0.173030 0.242440 1.314384
V2    V     V_3+5 0.750310 0.826970 0.757560 1.314354
V3    V     V_3+5 0.250310 0.673030 0.257560 1.313338
V4    V     V_3+5 0.749690 0.326970 0.742440 1.313286
C9    C     C_R   0.965660 0.159865 0.502284 -0.195270
C10   C     C_R   0.034338 0.840133 0.497714 -0.195273
C11   C     C_R   0.506503 0.660717 0.963527 -0.193922
C12   C     C_R   0.493497 0.339284 0.036472 -0.193923
H1    H     H_    0.939266 0.284354 0.503635 0.202734
H2    H     H_    0.060732 0.715644 0.496363 0.202733
H3    H     H_    0.511088 0.785782 0.935389 0.204751
H4    H     H_    0.488912 0.214219 0.064611 0.204752
C13   C     C_R   0.955254 0.011649 0.543843 -0.029057
C14   C     C_R   0.044744 0.988349 0.456155 -0.029050
C15   C     C_R   0.545107 0.511824 0.956605 -0.027796
C16   C     C_R   0.454893 0.488177 0.043395 -0.027797
C17   C     C_R   0.990035 0.850787 0.541278 0.374742
C18   C     C_R   0.009963 0.149211 0.458719 0.374731
C19   C     C_R   0.538260 0.350053 0.993476 0.374725
C20   C     C_R   0.461740 0.649948 0.006523 0.374723
C21   C     C_1   0.909068 0.026440 0.588660 0.185047
C22   C     C_1   0.090931 0.973558 0.411338 0.185041
C23   C     C_1   0.591067 0.526485 0.911505 0.187502
C24   C     C_1   0.408932 0.473516 0.088494 0.187492
C25   C     C_1   0.129244 0.962900 0.373698 -0.137649
C26   C     C_1   0.870755 0.037099 0.626301 -0.137642
C27   C     C_1   0.370728 0.462930 0.126270 -0.135059
C28   C     C_1   0.629272 0.537070 0.873729 -0.135039
C29   C     C_R   0.436262 0.891795 0.370093 0.313859
C30   C     C_R   0.563740 0.108204 0.629898 0.313940
C31   C     C_R   0.063329 0.397523 0.130727 0.315534
C32   C     C_R   0.936679 0.602418 0.869251 0.315460
C33   C     C_R   0.380983 0.961906 0.383465 -0.397666
C34   C     C_R   0.619019 0.038085 0.616532 -0.397684
C35   C     C_R   0.119041 0.462028 0.116531 -0.401981
C36   C     C_R   0.880964 0.537975 0.883462 -0.401994
C37   C     C_R   0.373214 0.047366 0.443172 0.330571
C38   C     C_R   0.626787 0.952585 0.556831 0.330570
C39   C     C_R   0.127275 0.541901 0.056001 0.325362
C40   C     C_R   0.872722 0.458188 0.944005 0.325268
C41   C     C_R   0.419016 0.043325 0.492480 -0.128615
C42   C     C_R   0.580987 0.956611 0.507521 -0.128615
C43   C     C_R   0.081305 0.537551 0.006856 -0.127796
C44   C     C_R   0.918696 0.462524 0.993146 -0.127797
C45   C     C_R   0.476154 0.992816 0.476488 -0.020048
C46   C     C_R   0.523849 0.007128 0.523509 -0.020066
C47   C     C_R   0.023863 0.492918 0.023500 -0.019567
C48   C     C_R   0.976142 0.507106 0.976492 -0.019568
C49   C     C_R   0.485530 0.926871 0.413616 -0.108738
C50   C     C_R   0.514472 0.073079 0.586380 -0.108744
C51   C     C_R   0.014203 0.432960 0.087031 -0.110563
C52   C     C_R   0.985804 0.567037 0.912958 -0.110579
C53   C     C_R   0.409037 0.080504 0.557736 0.262295
C54   C     C_R   0.590966 0.919404 0.442266 0.262314
C55   C     C_R   0.091343 0.568576 0.941210 0.261936
C56   C     C_R   0.908659 0.431568 0.058801 0.262035
C57   C     C_R   0.456202 0.097521 0.603985 0.250905
C58   C     C_R   0.543803 0.902386 0.396017 0.250878
C59   C     C_R   0.044169 0.585387 0.894933 0.243388
C60   C     C_R   0.955838 0.414677 0.105068 0.243320
Br1   Br    Br    0.021524 0.357487 0.403496 -0.402598
Br2   Br    Br    0.978474 0.642509 0.596500 -0.402583
Br3   Br    Br    0.410886 0.859397 0.013507 -0.406479
Br4   Br    Br    0.589114 0.140604 0.986493 -0.406461
Br5   Br    Br    0.440990 0.736975 0.294270 -0.425249
Br6   Br    Br    0.559007 0.263138 0.705694 -0.425208
Br7   Br    Br    0.057842 0.248930 0.207935 -0.393689
Br8   Br    Br    0.942166 0.750846 0.792001 -0.393675
N1    N     N_R   0.320335 0.148785 0.451642 0.254411
O21   O     O_R   0.322831 0.324434 0.466170 -0.322798
O22   O     O_R   0.269677 0.068188 0.442936 -0.394547
N2    N     N_R   0.679666 0.851157 0.548370 0.254406
O23   O     O_R   0.677168 0.675492 0.533853 -0.322796
O24   O     O_R   0.730325 0.931754 0.557060 -0.394527
N3    N     N_R   0.180860 0.638355 0.046471 0.255014
O25   O     O_R   0.179622 0.812903 0.030275 -0.313155
O26   O     O_R   0.230932 0.554551 0.055876 -0.381475
N4    N     N_R   0.819110 0.361912 0.953558 0.254915
O27   O     O_R   0.820294 0.187379 0.969859 -0.313030
O28   O     O_R   0.769067 0.445939 0.944197 -0.381473
Br9   Br    Br    0.331543 0.064642 0.589672 -0.213018
Br10  Br    Br    0.668461 0.935220 0.410323 -0.212974
Br11  Br    Br    0.168607 0.544157 0.909218 -0.198272
Br12  Br    Br    0.831402 0.456283 0.090817 -0.198099
N5    N     N_R   0.443492 0.112928 0.670306 0.279527
O29   O     O_R   0.415748 0.257259 0.690374 -0.249244
O30   O     O_R   0.455254 0.975225 0.709485 -0.292065
N6    N     N_R   0.556520 0.886923 0.329699 0.279517
O31   O     O_R   0.584233 0.742498 0.309640 -0.249251
O32   O     O_R   0.544836 0.024711 0.290527 -0.291967
N7    N     N_R   0.056752 0.594097 0.828411 0.281195
O33   O     O_R   0.085539 0.734243 0.806808 -0.241580
O34   O     O_R   0.043595 0.454428 0.790572 -0.276611
N8    N     N_R   0.943268 0.406012 0.171595 0.281186
O35   O     O_R   0.914431 0.265969 0.193207 -0.241543
O36   O     O_R   0.956492 0.545639 0.209431 -0.276695

loop_
_geom_bond_atom_site_label_1
_geom_bond_atom_site_label_2
_geom_bond_distance
_ccdc_geom_bond_type
O17   V3    1.758860 S    
C55   C59   1.407872 A    
C30   C34   1.409116 A    
O19   V1    1.759237 S    
O13   V1    1.992819 S    
C19   Br4   1.918467 S    
O3    C7    1.327816 A    
C10   C14   1.404241 A    
C44   C48   1.420600 A    
O15   V3    1.993033 S    
N1    O21   1.301615 A    
C39   N3    1.436776 S    
C18   Br1   1.918861 S    
O1    C5    1.327885 A    
O5    C1    1.337077 A    
C56   Br12  1.940962 S    
C31   Br7   1.942043 S    
C54   Br10  1.940624 S    
O9    V1    1.974237 S    
C52   C59   1.419470 A    
C14   C18   1.409920 A    
C11   H3    1.083403 S    
O4    C8    1.327818 A    
N4    O27   1.302154 A    
C8    C26   1.453006 S    
C21   C26   1.216650 T    
O1    V3    1.961534 S    
C58   N6    1.433852 S    
N6    O31   1.301986 A    
C12   C19   1.406696 A    
O2    V4    1.961534 S    
C23   C28   1.216639 T    
C45   C46   1.425043 A    
C38   N2    1.436535 S    
O3    V1    1.961409 S    
C42   C46   1.420148 A    
C1    O15   1.335259 A    
C3    O13   1.335354 A    
C2    O16   1.335254 A    
C20   Br3   1.918467 S    
O2    C6    1.327883 A    
C41   C45   1.420163 A    
O14   V2    1.992821 S    
C11   C15   1.404233 A    
O5    V1    1.999363 S    
C24   C27   1.216640 T    
C40   C44   1.422537 A    
C16   C24   1.459609 S    
O11   C7    1.331304 A    
O12   C8    1.331307 A    
C10   H2    1.083457 S    
C9    C18   1.406723 A    
C40   N4    1.436813 S    
O10   V2    1.974237 S    
C11   C20   1.406697 A    
C13   C21   1.459617 S    
C51   C60   1.419496 A    
N1    O22   1.301554 A    
C7    C25   1.453006 S    
C43   C55   1.418272 A    
N7    O34   1.301851 A    
C35   C39   1.409069 A    
C22   C25   1.216651 T    
O7    V3    1.999732 S    
C34   C38   1.409013 A    
O8    V4    1.999733 S    
C29   C49   1.425826 A    
C12   H4    1.083403 S    
C60   N8    1.434206 S    
C31   C51   1.425847 A    
C5    C27   1.452998 S    
O18   V4    1.758860 S    
C6    C28   1.452999 S    
C54   C58   1.407516 A    
C9    H1    1.083458 S    
C56   C60   1.407884 A    
O7    C3    1.337070 A    
C47   C48   1.425192 A    
C59   N7    1.434196 S    
C4    C34   1.485634 S    
O8    C4    1.337073 A    
N2    O24   1.301515 A    
O9    C5    1.331299 A    
N3    O26   1.301405 A    
C10   C17   1.406724 A    
O11   V3    1.974439 S    
C17   Br2   1.918859 S    
C44   C56   1.418359 A    
C14   C22   1.459617 S    
C32   Br8   1.942109 S    
C50   C57   1.419336 A    
O6    V2    1.999357 S    
C53   Br9   1.940566 S    
C49   C58   1.419378 A    
C55   Br11  1.940702 S    
C12   C16   1.404234 A    
N8    O36   1.301890 A    
C36   C40   1.409088 A    
N5    O29   1.301873 A    
O16   V4    1.993033 S    
C32   C52   1.425873 A    
C45   C49   1.422055 A    
C1    C35   1.485455 S    
C2    C36   1.485446 S    
C48   C52   1.422298 A    
C15   C19   1.409726 A    
C3    C33   1.485629 S    
O6    C2    1.337076 A    
N7    O33   1.302098 A    
C29   C33   1.409131 A    
O12   V4    1.974440 S    
C31   C35   1.408802 A    
C32   C36   1.408811 A    
C9    C13   1.404241 A    
O10   C6    1.331301 A    
C57   N5    1.433840 S    
C30   Br6   1.942111 S    
C37   N1    1.436531 S    
C43   C47   1.420558 A    
C15   C23   1.459611 S    
C38   C42   1.422087 A    
N4    O28   1.301476 A    
C37   C41   1.422070 A    
O20   V2    1.759237 S    
N2    O23   1.301675 A    
N6    O32   1.301693 A    
C39   C43   1.422531 A    
C42   C54   1.417918 A    
C53   C57   1.407543 A    
C41   C53   1.417897 A    
C30   C50   1.425814 A    
C33   C37   1.409015 A    
C46   C50   1.422041 A    
C4    O14   1.335352 A    
N3    O25   1.301698 A    
C13   C17   1.409921 A    
C29   Br5   1.942074 S    
N8    O35   1.302197 A    
C47   C51   1.422258 A    
O4    V2    1.961407 S    
C16   C20   1.409727 A    
N5    O30   1.301616 A    
