data_mof_unit_2921.cif
_audit_creation_date              2013-03-05T15:57:42-0500
_audit_creation_method            fapswitch 2.2
_symmetry_space_group_name_H-M    P1
_symmetry_Int_Tables_number       1
_space_group_crystal_system       triclinic
_cell_length_a                    19.236245
_cell_length_b                    17.913455
_cell_length_c                    12.715834
_cell_angle_alpha                 89.143405
_cell_angle_beta                  99.530449
_cell_angle_gamma                 89.75028
_cell_volume                      4320.65458088

loop_
_atom_site_label
_atom_site_type_symbol
_atom_site_description
_atom_site_fract_x
_atom_site_fract_y
_atom_site_fract_z
_atom_type_partial_charge
O1    O     O_R   0.448200 0.076800 0.373930 -0.612799
O2    O     O_R   0.448200 0.923200 0.373930 -0.634158
O3    O     O_R   0.948200 0.576800 0.373930 -0.612809
O4    O     O_R   0.948200 0.423200 0.373930 -0.634153
O5    O     O_R   0.414750 0.076790 0.542400 -0.630238
O6    O     O_R   0.414750 0.923210 0.542400 -0.605218
O7    O     O_R   0.914750 0.576790 0.542400 -0.630245
O8    O     O_R   0.914750 0.423210 0.542400 -0.605226
C1    C     C_R   0.410436 0.102052 0.443438 0.827114
C2    C     C_R   0.406474 0.902686 0.441717 0.844455
C3    C     C_R   0.910439 0.602055 0.443440 0.827121
C4    C     C_R   0.906470 0.402690 0.441716 0.844466
Zn1   Zn    Zn3+2 0.522330 0.000000 0.387520 0.943385
Zn2   Zn    Zn3+2 0.022330 0.500000 0.387520 0.943386
Zn3   Zn    Zn3+2 0.477660 0.000000 0.612480 0.915979
Zn4   Zn    Zn3+2 0.977660 0.500000 0.612480 0.915976
O9    O     O_R   0.585240 0.923200 0.457600 -0.604464
O10   O     O_R   0.585240 0.076800 0.457600 -0.581430
O11   O     O_R   0.085240 0.423200 0.457600 -0.604466
O12   O     O_R   0.085240 0.576800 0.457600 -0.581424
O13   O     O_R   0.551780 0.923190 0.626070 -0.628960
O14   O     O_R   0.551780 0.076810 0.626070 -0.639877
O15   O     O_R   0.051780 0.423190 0.626070 -0.628948
O16   O     O_R   0.051780 0.576810 0.626070 -0.639876
C5    C     C_R   0.591211 0.899993 0.557815 0.880273
C6    C     C_R   0.588238 0.102890 0.554794 0.867498
C7    C     C_R   0.091214 0.399996 0.557817 0.880268
C8    C     C_R   0.088241 0.602890 0.554796 0.867476
C9    C     C_R   0.631760 0.297497 0.647802 0.242364
C10   C     C_R   0.756682 0.825883 0.724284 0.217934
C11   C     C_R   0.131755 0.797510 0.647746 0.242222
C12   C     C_R   0.256714 0.325930 0.724258 0.217926
H1    H     H_    0.561593 0.212391 0.687175 0.178645
H2    H     H_    0.668444 0.889596 0.758579 0.146671
H3    H     H_    0.061633 0.712400 0.687231 0.178833
H4    H     H_    0.168479 0.389645 0.758563 0.146645
C13   C     C_R   0.626375 0.172176 0.577024 -0.104414
C14   C     C_R   0.651108 0.851937 0.596448 -0.078118
C15   C     C_R   0.126385 0.672175 0.577026 -0.104463
C16   C     C_R   0.151117 0.351947 0.596450 -0.078102
C17   C     C_R   0.352374 0.808181 0.314664 -0.195941
C18   C     C_R   0.319193 0.156783 0.304665 -0.200012
C19   C     C_R   0.852338 0.308213 0.314642 -0.195958
C20   C     C_R   0.819218 0.656819 0.304660 -0.199991
C21   C     C_R   0.302070 0.754084 0.283584 -0.153432
C22   C     C_R   0.261693 0.203549 0.273989 -0.152797
C23   C     C_R   0.802027 0.254124 0.283561 -0.153423
C24   C     C_R   0.761726 0.703595 0.273982 -0.152807
C25   C     C_R   0.249997 0.740287 0.344991 -0.186684
C26   C     C_R   0.238177 0.248513 0.349004 -0.177347
C27   C     C_R   0.749966 0.240317 0.344987 -0.186693
C28   C     C_R   0.738202 0.748547 0.349003 -0.177340
C29   C     C_R   0.246257 0.782326 0.437162 0.103929
C30   C     C_R   0.273514 0.248530 0.456336 0.099952
C31   C     C_R   0.746245 0.282339 0.437180 0.103928
C32   C     C_R   0.773524 0.748541 0.456343 0.099956
C33   C     C_R   0.289055 0.845456 0.457006 0.066347
C34   C     C_R   0.338260 0.210707 0.481604 0.028330
C35   C     C_R   0.789050 0.345463 0.457033 0.066353
C36   C     C_R   0.838265 0.710711 0.481619 0.028339
C37   C     C_R   0.700817 0.263305 0.509648 0.002940
C38   C     C_R   0.746126 0.783883 0.539353 0.007422
C39   C     C_R   0.200821 0.763301 0.509621 0.002899
C40   C     C_R   0.246128 0.283886 0.539344 0.007431
C41   C     C_R   0.684803 0.315378 0.585597 0.045476
C42   C     C_R   0.788082 0.792357 0.642368 0.029763
C43   C     C_R   0.184792 0.815390 0.585537 0.045525
C44   C     C_R   0.288100 0.292386 0.642341 0.029731
C45   C     C_R   0.223515 0.882296 0.598052 0.163832
C46   C     C_R   0.359104 0.266962 0.658021 0.198232
C47   C     C_R   0.723545 0.382271 0.598138 0.163747
C48   C     C_R   0.859083 0.766926 0.658063 0.198212
C49   C     C_R   0.272812 0.897770 0.531322 -0.272549
C50   C     C_R   0.382253 0.224943 0.578923 -0.228807
C51   C     C_R   0.772826 0.397759 0.531385 -0.272456
C52   C     C_R   0.882245 0.724928 0.578957 -0.228814
C53   C     C_R   0.674991 0.191094 0.512367 -0.241876
C54   C     C_R   0.676644 0.809190 0.522021 -0.248415
C55   C     C_R   0.174997 0.691089 0.512359 -0.241839
C56   C     C_R   0.176644 0.309186 0.522029 -0.248413
C57   C     C_R   0.604086 0.225295 0.643811 -0.243312
C58   C     C_R   0.689625 0.858461 0.698728 -0.260903
C59   C     C_R   0.104105 0.725299 0.643818 -0.243312
C60   C     C_R   0.189651 0.358497 0.698715 -0.260911
C61   C     C_R   0.347625 0.853026 0.402984 -0.102816
C62   C     C_R   0.357779 0.159806 0.408090 -0.081287
C63   C     C_R   0.847610 0.353041 0.402987 -0.102839
C64   C     C_R   0.857790 0.659820 0.408097 -0.081297
H5    H     H_    0.692685 0.148053 0.464112 0.169681
H6    H     H_    0.641279 0.799014 0.448614 0.144583
H7    H     H_    0.192691 0.648042 0.464113 0.169685
H8    H     H_    0.141269 0.298996 0.448636 0.144572
H9    H     H_    0.395434 0.814315 0.270118 0.161786
H10   H     H_    0.331449 0.116356 0.248672 0.143469
H11   H     H_    0.895388 0.314353 0.270078 0.161792
H12   H     H_    0.831478 0.616401 0.248659 0.143468
H13   H     H_    0.711314 0.198504 0.317391 0.132434
H14   H     H_    0.692882 0.783194 0.320253 0.117961
H15   H     H_    0.211351 0.698469 0.317397 0.132433
H16   H     H_    0.192851 0.283153 0.320257 0.117971
H17   H     H_    0.304778 0.721040 0.213764 0.142090
H18   H     H_    0.233187 0.202362 0.193117 0.140056
H19   H     H_    0.804720 0.221091 0.213724 0.142098
H20   H     H_    0.733232 0.702424 0.193103 0.140054
H21   H     H_    0.298218 0.951390 0.539047 0.164604
H22   H     H_    0.436582 0.206115 0.592249 0.171985
H23   H     H_    0.798232 0.451378 0.539121 0.164604
H24   H     H_    0.936574 0.706095 0.592299 0.172008
C65   C     C_R   0.644008 0.988991 0.133414 -0.355143
C66   C     C_R   0.144006 0.489004 0.133411 -0.355135
H25   H     H_    0.672111 0.982076 0.937763 0.147697
H26   H     H_    0.172110 0.482101 0.937760 0.147687
H27   H     H_    0.698653 0.977108 0.128493 0.163895
H28   H     H_    0.198653 0.477127 0.128486 0.163902
N1    N     N_R   0.552340 0.000000 0.237260 -0.123981
N2    N     N_R   0.052340 0.500000 0.237260 -0.123988
C67   C     C_R   0.381108 0.024969 0.756825 0.031916
C68   C     C_R   0.881101 0.524943 0.756823 0.031962
C69   C     C_R   0.360335 0.057363 0.844445 -0.280592
C70   C     C_R   0.860311 0.557307 0.844450 -0.280659
C71   C     C_R   0.408327 0.060676 0.938382 -0.216590
C72   C     C_R   0.908301 0.560629 0.938387 -0.216592
C73   C     C_R   0.475104 0.025290 0.948434 0.052195
C74   C     C_R   0.975093 0.525275 0.948436 0.052226
C75   C     C_R   0.496512 0.003458 0.852794 0.221564
C76   C     C_R   0.996508 0.503459 0.852796 0.221538
C77   C     C_R   0.523137 0.014991 0.046162 -0.016824
C78   C     C_R   0.023131 0.514986 0.046164 -0.016817
C79   C     C_R   0.594928 0.999367 0.040883 0.107928
C80   C     C_R   0.094924 0.499377 0.040882 0.107920
C81   C     C_R   0.617061 0.991776 0.942704 -0.264609
C82   C     C_R   0.117059 0.491793 0.942703 -0.264597
C83   C     C_R   0.568051 0.992330 0.850012 -0.215377
C84   C     C_R   0.068049 0.492342 0.850012 -0.215343
C85   C     C_R   0.502559 0.011808 0.148282 0.232688
C86   C     C_R   0.002556 0.511801 0.148285 0.232700
C87   C     C_R   0.622111 0.990667 0.232268 0.323171
C88   C     C_R   0.122111 0.490671 0.232265 0.323173
N3    N     N_R   0.448170 0.000000 0.762060 -0.138687
N4    N     N_R   0.948170 0.500000 0.762060 -0.138692
H29   H     H_    0.346294 0.027382 0.681202 0.138988
H30   H     H_    0.846294 0.527364 0.681196 0.138962
H31   H     H_    0.393430 0.095844 0.998406 0.161947
H32   H     H_    0.893390 0.595793 0.998404 0.161962
H33   H     H_    0.308954 0.083554 0.837830 0.150541
H34   H     H_    0.808922 0.583479 0.837837 0.150553
H35   H     H_    0.587602 0.986585 0.776893 0.205620
H36   H     H_    0.087599 0.486600 0.776891 0.205616
C89   C     C_3   0.426362 0.016026 0.160277 -0.867621
H37   H     H_    0.414809 0.992085 0.233250 0.289181
H38   H     H_    0.410994 0.075313 0.161494 0.213956
H39   H     H_    0.392562 0.983198 0.098726 0.217625
C90   C     C_3   0.926361 0.516014 0.160287 -0.867619
H40   H     H_    0.892562 0.483170 0.098753 0.217617
H41   H     H_    0.914810 0.492091 0.233268 0.289193
H42   H     H_    0.910990 0.575301 0.161486 0.213932
N5    N     N_2   0.221684 0.928631 0.687454 -0.313788
H43   H     H_    0.231272 0.984240 0.674068 0.210155
C91   C     C_3   0.262379 0.899294 0.785665 -0.758256
H44   H     H_    0.257628 0.937457 0.852124 0.233825
H45   H     H_    0.318738 0.893344 0.777773 0.246323
H46   H     H_    0.242953 0.843514 0.805819 0.255003
N6    N     N_2   0.410351 0.288506 0.746277 -0.301259
H47   H     H_    0.404169 0.340285 0.777706 0.233254
C92   C     C_3   0.435355 0.230031 0.823048 -0.741421
H48   H     H_    0.477958 0.251621 0.884386 0.224777
H49   H     H_    0.456770 0.182248 0.783549 0.250104
H50   H     H_    0.391937 0.210721 0.863597 0.261530
N7    N     N_2   0.721759 0.428564 0.687595 -0.313881
H51   H     H_    0.731347 0.484179 0.674255 0.210169
C93   C     C_3   0.762477 0.399172 0.785754 -0.758421
H52   H     H_    0.757750 0.437298 0.852265 0.233828
H53   H     H_    0.818829 0.393230 0.777817 0.246406
H54   H     H_    0.743047 0.343381 0.805856 0.254929
N8    N     N_2   0.910313 0.788426 0.746365 -0.301442
H55   H     H_    0.904138 0.840199 0.777819 0.233265
C94   C     C_3   0.935251 0.729918 0.823117 -0.741482
H56   H     H_    0.977812 0.751474 0.884551 0.224730
H57   H     H_    0.956699 0.682155 0.783619 0.250191
H58   H     H_    0.891787 0.710597 0.863555 0.261578
N9    N     N_2   0.597754 0.353591 0.700014 -0.290516
H59   H     H_    0.594087 0.407243 0.669146 0.241065
C95   C     C_3   0.594955 0.344464 0.812556 -0.776383
H60   H     H_    0.540452 0.355557 0.826063 0.246433
H61   H     H_    0.630001 0.385691 0.858761 0.244087
H62   H     H_    0.611314 0.287413 0.842711 0.238502
N10   N     N_2   0.790510 0.825877 0.832466 -0.312784
H63   H     H_    0.792148 0.878201 0.865582 0.213394
C96   C     C_3   0.763502 0.770669 0.899216 -0.809230
H64   H     H_    0.796940 0.769182 0.979270 0.236822
H65   H     H_    0.764464 0.714371 0.863972 0.243882
H66   H     H_    0.708576 0.784961 0.908516 0.241338
N11   N     N_2   0.097735 0.853603 0.699929 -0.290487
H67   H     H_    0.093957 0.907221 0.668939 0.241056
C97   C     C_3   0.095089 0.844561 0.812527 -0.777052
H68   H     H_    0.040488 0.854874 0.826045 0.246789
H69   H     H_    0.129587 0.886336 0.858452 0.244128
H70   H     H_    0.112215 0.787805 0.842971 0.238578
N12   N     N_2   0.290561 0.325949 0.832429 -0.312800
H71   H     H_    0.292175 0.378275 0.865537 0.213387
C98   C     C_3   0.263600 0.270725 0.899203 -0.809205
H72   H     H_    0.297048 0.269264 0.979250 0.236821
H73   H     H_    0.264594 0.214426 0.863971 0.243886
H74   H     H_    0.208669 0.284977 0.908517 0.241336
N13   N     N_2   0.670947 0.976020 0.327162 -0.248394
H75   H     H_    0.678028 0.919687 0.343015 0.226774
C99   C     C_3   0.737324 0.015226 0.339359 -0.819601
H76   H     H_    0.774407 0.986898 0.294381 0.226927
H77   H     H_    0.761222 0.015335 0.425023 0.246982
H78   H     H_    0.729234 0.073742 0.310590 0.237912
N14   N     N_2   0.170947 0.476015 0.327157 -0.248399
H79   H     H_    0.178013 0.419681 0.343013 0.226798
C100  C     C_3   0.237335 0.515200 0.339350 -0.819651
H80   H     H_    0.274413 0.486851 0.294385 0.226936
H81   H     H_    0.261230 0.515316 0.425015 0.246991
H82   H     H_    0.229263 0.573714 0.310563 0.237913

loop_
_geom_bond_atom_site_label_1
_geom_bond_atom_site_label_2
_geom_bond_distance
_ccdc_geom_bond_type
C27   H13   1.078546 S    
C93   H52   1.110035 S    
C2    C61   1.467195 S    
C70   H34   1.082276 S    
C92   H48   1.108892 S    
C67   N3    1.354359 A    
C31   C35   1.402917 A    
C40   C56   1.390930 A    
C98   H72   1.110359 S    
C16   C60   1.392955 A    
C67   H29   1.077172 S    
N6    H47   1.029599 S    
O10   C6    1.320265 A    
C72   H32   1.070871 S    
C48   C52   1.394452 A    
C46   N6    1.424815 S    
N1    C85   1.369005 A    
C68   C70   1.379283 A    
C36   C64   1.408888 A    
N8    C94   1.446063 S    
C39   C55   1.389708 A    
N13   H75   1.030111 S    
C54   H6    1.078526 S    
O7    C3    1.320328 A    
C22   H18   1.082899 S    
C53   H5    1.080670 S    
O5    C1    1.320328 A    
C26   C30   1.420410 A    
C9    N9    1.427041 S    
Zn1   O10   1.960952 S    
C40   C44   1.430818 A    
N6    C92   1.446073 S    
C77   C85   1.419271 A    
O12   C8    1.320281 A    
C12   N12   1.421030 S    
C89   H38   1.102188 S    
C1    C62   1.457604 S    
C25   C29   1.414139 A    
C73   C75   1.407184 A    
C25   H15   1.078541 S    
C75   C83   1.395965 A    
C24   H20   1.082899 S    
C31   C37   1.410284 A    
C88   N14   1.421412 S    
C11   C59   1.399211 A    
C65   C87   1.390947 A    
C27   C31   1.414145 A    
C18   C22   1.384438 A    
C48   N8    1.424801 S    
C33   C49   1.410853 A    
C96   H65   1.111010 S    
O2    Zn1   1.974487 S    
C71   H31   1.070888 S    
O6    Zn3   1.960827 S    
C73   C77   1.429513 A    
Zn3   O14   1.974474 S    
C42   C48   1.419271 A    
N1    C87   1.363771 A    
C37   C53   1.389681 A    
C94   H57   1.110369 S    
C52   H24   1.082255 S    
C99   H78   1.106836 S    
C19   H11   1.083205 S    
C16   C56   1.376837 A    
C45   C49   1.399215 A    
C18   C62   1.400956 A    
O15   C7    1.314274 A    
C90   H41   1.073064 S    
O11   C7    1.321052 A    
C66   H28   1.083718 S    
C55   H7    1.080669 S    
C4    C63   1.467221 S    
C65   H27   1.083718 S    
C12   C44   1.426331 A    
C97   H70   1.111383 S    
N13   C99   1.446770 S    
N12   H71   1.031765 S    
O8    Zn4   1.960827 S    
C14   C58   1.392947 A    
N5    H43   1.030641 S    
N7    C93   1.449708 S    
C13   C57   1.397026 A    
C92   H49   1.110367 S    
C98   H73   1.111005 S    
C68   N4    1.354341 A    
C69   H33   1.082272 S    
C34   C62   1.408881 A    
C70   C72   1.385646 A    
Zn3   N3    2.072882 S    
C69   C71   1.385657 A    
C12   C60   1.399669 A    
C93   H54   1.109559 S    
C17   H9    1.083203 S    
C23   H19   1.082638 S    
C38   C42   1.430816 A    
C28   C32   1.420410 A    
C99   H76   1.110890 S    
N7    H51   1.030632 S    
Zn2   O12   1.960952 S    
C51   H23   1.078005 S    
C66   C88   1.390941 A    
O1    C1    1.317277 A    
C68   H30   1.077154 S    
N9    C95   1.447822 S    
C11   N11   1.426968 S    
H3    C59   1.082958 S    
C87   N13   1.421406 S    
C97   H68   1.107204 S    
C14   C54   1.376834 A    
C8    C15   1.452053 S    
N11   C97   1.447785 S    
N9    H59   1.030385 S    
C13   C53   1.383616 A    
C36   C52   1.406101 A    
C75   N3    1.359080 A    
C32   C36   1.402533 A    
C43   C45   1.410980 A    
C15   C55   1.383646 A    
C10   C58   1.399658 A    
C96   H66   1.111659 S    
C80   C82   1.392445 A    
C95   H60   1.107706 S    
C77   C79   1.420513 A    
C39   C43   1.421477 A    
C46   C50   1.394457 A    
C20   H12   1.075393 S    
C5    C14   1.449570 S    
C50   H22   1.082248 S    
C95   H61   1.109613 S    
C93   H53   1.110011 S    
C49   H21   1.078023 S    
C91   H44   1.110030 S    
C100  H80   1.110891 S    
C3    C64   1.457615 S    
O8    C4    1.321614 A    
C94   H58   1.105811 S    
C76   N4    1.359056 A    
C91   H45   1.109998 S    
C21   C25   1.389097 A    
C91   H46   1.109528 S    
C10   C42   1.426337 A    
H26   C82   1.084572 S    
C90   H42   1.102177 S    
C56   H8    1.078529 S    
N12   C98   1.446978 S    
Zn1   N1    2.085476 S    
O3    Zn2   1.962188 S    
C21   H17   1.082636 S    
C45   N5    1.422589 S    
C83   H35   1.065282 S    
O5    Zn3   1.934557 S    
C82   C84   1.381924 A    
O7    Zn4   1.934557 S    
N14   C100  1.446771 S    
C78   C86   1.419263 A    
H1    C57   1.082935 S    
C9    C57   1.399233 A    
C94   H56   1.108884 S    
Zn4   O15   1.962175 S    
C65   C79   1.390820 A    
C98   H74   1.111660 S    
C9    C41   1.425447 A    
C89   H39   1.108938 S    
C47   N7    1.422578 S    
O4    C4    1.320817 A    
C72   C74   1.415744 A    
O2    C2    1.320788 A    
N2    C88   1.363770 A    
C35   C51   1.410859 A    
Zn4   N4    2.072882 S    
C71   C73   1.415731 A    
C17   C61   1.405439 A    
C34   C50   1.406097 A    
C74   C76   1.407177 A    
C30   C34   1.402533 A    
C100  H82   1.106832 S    
H25   C81   1.084574 S    
O13   C5    1.314269 A    
C29   C33   1.402921 A    
C7    C16   1.449584 S    
C18   H10   1.075405 S    
Zn2   O11   1.934682 S    
C38   C54   1.390923 A    
O16   C8    1.316159 A    
C81   C83   1.381936 A    
C78   C80   1.420523 A    
O6    C2    1.321632 A    
C23   C27   1.389095 A    
C6    C13   1.452005 S    
N2    C86   1.368994 A    
Zn1   O9    1.934682 S    
C92   H50   1.105828 S    
C84   H36   1.065290 S    
C22   C26   1.387795 A    
C26   H16   1.077882 S    
C74   C78   1.429518 A    
C95   H62   1.111767 S    
O9    C5    1.321054 A    
C10   N10   1.421030 S    
C67   C69   1.379311 A    
C100  H81   1.110017 S    
C19   C63   1.405436 A    
N10   H63   1.031763 S    
N8    H55   1.029598 S    
C41   C47   1.410970 A    
C89   H37   1.073097 S    
C47   C51   1.399225 A    
C86   C90   1.500245 S    
C29   C39   1.410272 A    
C30   C40   1.412097 A    
H4    C60   1.081512 S    
Zn2   N2    2.085476 S    
N5    C91   1.449706 S    
C28   H14   1.077878 S    
C33   C61   1.419318 A    
C66   C80   1.390818 A    
C32   C38   1.412096 A    
O4    Zn2   1.974487 S    
C96   H64   1.110359 S    
C35   C63   1.419355 A    
N10   C96   1.446984 S    
O3    C3    1.317284 A    
C11   C43   1.425373 A    
C15   C59   1.397055 A    
N14   H79   1.030113 S    
C37   C41   1.421492 A    
Zn3   O13   1.962175 S    
O1    Zn1   1.962188 S    
C76   C84   1.395960 A    
Zn4   O16   1.974474 S    
N11   H67   1.030389 S    
O14   C6    1.316147 A    
C99   H77   1.110016 S    
C44   C46   1.419279 A    
C17   C21   1.387304 A    
C85   C89   1.500257 S    
C20   C64   1.400957 A    
H2    C58   1.081510 S    
C79   C81   1.392449 A    
C90   H40   1.108938 S    
C24   C28   1.387789 A    
C19   C23   1.387303 A    
C20   C24   1.384434 A    
C97   H69   1.109264 S    
