data_mof_unit_4357.cif
_audit_creation_date              2012-12-10T16:49:30-0500
_audit_creation_method            fapswitch 2.2
_symmetry_space_group_name_H-M    P1
_symmetry_Int_Tables_number       1
_space_group_crystal_system       triclinic
_cell_length_a                    7.769151
_cell_length_b                    8.627967
_cell_length_c                    12.842768
_cell_angle_alpha                 89.628048
_cell_angle_beta                  87.337421
_cell_angle_gamma                 92.893623
_cell_volume                      858.816629775

loop_
_atom_site_label
_atom_site_type_symbol
_atom_type_description
_atom_site_fract_x
_atom_site_fract_y
_atom_site_fract_z
_atom_type_partial_charge
C1    C     C_R   0.455875 0.206025 0.497583 0.908153
C2    C     C_R   0.691544 0.406441 0.140439 0.401253
C3    C     C_R   0.562823 0.439466 0.868483 -0.311377
C4    C     C_R   0.437176 0.560532 0.131517 -0.311376
C5    C     C_R   0.564623 0.456885 0.974885 0.089716
C6    C     C_R   0.435376 0.543114 0.025115 0.089715
C7    C     C_2   0.432127 0.044360 0.510682 -0.106807
C8    C     C_2   0.567873 0.955640 0.489318 -0.106807
C9    C     C_R   0.544125 0.793975 0.502417 0.908153
C10   C     C_R   0.464666 0.503956 0.699818 0.909070
C11   C     C_R   0.535334 0.496043 0.300182 0.909069
C12   C     C_R   0.559217 0.489656 0.188690 -0.133407
C13   C     C_R   0.440783 0.510343 0.811310 -0.133408
C14   C     C_R   0.305381 0.609564 0.968748 -0.015881
C15   C     C_R   0.694618 0.390435 0.031252 -0.015881
C16   C     C_R   0.308456 0.593559 0.859561 0.401253
H1    H     H_    0.340283 0.627414 0.171514 0.210869
H2    H     H_    0.915183 0.308914 0.632597 0.330807
H3    H     H_    0.248518 0.039480 0.629012 0.195452
H4    H     H_    0.171456 0.010444 0.509078 0.209440
H5    H     H_    0.751482 0.960520 0.370988 0.195451
H6    H     H_    0.828544 0.989556 0.490922 0.209441
H7    H     H_    0.659716 0.372584 0.828485 0.210868
H8    H     H_    0.898072 0.288155 0.159063 0.329414
H9    H     H_    0.101929 0.711846 0.840936 0.329415
H10   H     H_    0.053454 0.641787 0.009631 0.192073
H11   H     H_    0.181109 0.808608 0.995318 0.188134
H12   H     H_    0.946544 0.358212 0.990367 0.192073
H13   H     H_    0.818891 0.191391 0.004683 0.188134
H14   H     H_    0.084817 0.691086 0.367403 0.330808
N1    N     N_2   0.054030 0.541640 0.471970 0.193704
N2    N     N_2   0.945970 0.458360 0.528030 0.193704
N3    N     N_3   0.174603 0.694165 0.023042 -0.475651
N4    N     N_3   0.825395 0.305833 0.976958 -0.475653
N5    N     N_3   0.270142 0.983790 0.557844 -0.404525
N6    N     N_3   0.729858 0.016210 0.442156 -0.404526
O1    O     O_R   0.609680 0.261530 0.506880 -0.609993
O2    O     O_3   0.190845 0.661119 0.797776 -0.740722
O3    O     O_3   0.984614 0.636460 0.404475 -0.653821
O4    O     O_3   0.015385 0.363540 0.595525 -0.653821
O5    O     O_R   0.390320 0.738470 0.493120 -0.609993
O6    O     O_R   0.323330 0.288220 0.488910 -0.598381
O7    O     O_R   0.676670 0.711780 0.511090 -0.598381
O8    O     O_R   0.619510 0.488830 0.661140 -0.657626
O9    O     O_R   0.380490 0.511170 0.338860 -0.657626
O10   O     O_R   0.333160 0.515520 0.643180 -0.517363
O11   O     O_R   0.666840 0.484480 0.356820 -0.517363
O12   O     O_3   0.809157 0.338884 0.202223 -0.740721
Zn1   Zn    Zn3+2 0.691200 0.482180 0.511990 1.067471
Zn2   Zn    Zn3+2 0.308800 0.517820 0.488010 1.067471

loop_
_geom_bond_atom_site_label_1
_geom_bond_atom_site_label_2
_ccdc_geom_bond_type
O8    Zn1   S    
C10   O10   A    
C11   C12   S    
H9    O2    S    
C6    C14   A    
O1    Zn1   S    
O10   Zn2   S    
C15   N4    S    
C11   O11   A    
N1    N2    D    
C3    C13   A    
C1    O1    A    
C5    C15   A    
C2    C12   A    
C14   N3    S    
H12   N4    S    
C7    C8    D    
O11   Zn1   S    
H5    N6    S    
H3    N5    S    
H11   N3    S    
C2    C15   A    
C7    N5    S    
O9    Zn2   S    
O6    Zn2   S    
C11   O9    A    
C4    H1    S    
N1    O3    S    
H14   O3    S    
N2    O4    S    
C5    C6    A    
C14   C16   A    
N2    Zn1   S    
C9    O7    A    
C4    C12   A    
N1    Zn2   S    
C10   O8    A    
H8    O12   S    
O5    Zn2   S    
C1    O6    A    
H6    N6    S    
C4    C6    A    
C8    N6    S    
C13   C16   A    
H2    O4    S    
O7    Zn1   S    
H10   N3    S    
C2    O12   S    
C3    H7    S    
C1    C7    S    
H4    N5    S    
C9    O5    A    
H13   N4    S    
C16   O2    S    
C8    C9    S    
C3    C5    A    
C10   C13   S    
