data_mof_unit_3534.cif
_audit_creation_date              2012-12-10T19:12:59-0500
_audit_creation_method            fapswitch 2.2
_symmetry_space_group_name_H-M    P1
_symmetry_Int_Tables_number       1
_space_group_crystal_system       triclinic
_cell_length_a                    8.799785
_cell_length_b                    15.967215
_cell_length_c                    14.762086
_cell_angle_alpha                 89.784001
_cell_angle_beta                  97.778253
_cell_angle_gamma                 90.022388
_cell_volume                      2055.09337426

loop_
_atom_site_label
_atom_site_type_symbol
_atom_type_description
_atom_site_fract_x
_atom_site_fract_y
_atom_site_fract_z
_atom_type_partial_charge
C1    C     C_R   0.500395 0.340856 0.500167 0.781450
C2    C     C_R   0.499102 0.659148 0.499815 0.780680
C3    C     C_R   0.498903 0.500161 0.902923 -0.322510
C4    C     C_R   0.498931 0.499786 0.096829 -0.316162
C5    C     C_R   0.482945 0.423800 0.950507 0.286359
C6    C     C_R   0.494326 0.576593 0.047516 0.288606
C7    C     C_1   0.499491 0.500102 0.802564 0.485221
C8    C     C_1   0.499606 0.499872 0.197339 0.469045
C9    C     C_R   0.203827 0.498744 0.477169 0.790765
C10   C     C_R   0.796202 0.501161 0.522861 0.794731
C11   C     C_2   0.039498 0.491677 0.464727 0.179285
C12   C     C_2   0.960591 0.507845 0.535414 0.178954
C13   C     C_R   0.502141 0.955621 0.585079 0.286062
C14   C     C_R   0.489010 0.044083 0.416516 0.282209
C15   C     C_R   0.477240 0.913192 0.500475 -0.229124
C16   C     C_R   0.514322 0.086661 0.500997 -0.250381
C17   C     C_R   0.458633 0.957088 0.416500 0.287935
C18   C     C_R   0.530576 0.042954 0.585247 0.216762
C19   C     C_1   0.484891 0.823209 0.499496 0.236091
C20   C     C_1   0.509595 0.176696 0.501162 0.201136
C21   C     C_1   0.504590 0.251797 0.500821 -0.044746
C22   C     C_1   0.492415 0.748173 0.499211 -0.050832
C23   C     C_R   0.514097 0.576442 0.952731 0.279787
C24   C     C_R   0.502590 0.423066 0.048500 0.281813
Cu1   Cu    Cu3+1 0.500040 0.500000 0.589220 1.093437
Cu2   Cu    Cu3+1 0.499960 0.500000 0.410780 1.079270
N1    N     N_1   0.500050 0.499980 0.276720 -0.129050
N2    N     N_1   0.499950 0.500020 0.723280 -0.120100
O1    O     O_R   0.500070 0.380310 0.575330 -0.556524
O2    O     O_R   0.499930 0.619690 0.424670 -0.576712
O3    O     O_R   0.500000 0.380310 0.424640 -0.549540
O4    O     O_R   0.500000 0.619690 0.575360 -0.549737
O5    O     O_R   0.274870 0.500000 0.557960 -0.549270
O6    O     O_R   0.725130 0.500000 0.442040 -0.547436
O7    O     O_R   0.274790 0.500000 0.407270 -0.554867
O8    O     O_R   0.725210 0.500000 0.592730 -0.550933
O9    O     O_3   0.966703 0.471847 0.378072 -0.559645
C25   C     C_3   0.975134 0.384405 0.366182 -0.129755
H1    H     H_    0.915099 0.350239 0.416856 0.137976
H2    H     H_    0.095956 0.362537 0.370320 0.146244
H3    H     H_    0.916831 0.368578 0.297051 0.242001
O10   O     O_3   0.033577 0.526905 0.622269 -0.555743
C26   C     C_3   0.027335 0.614340 0.634767 -0.132068
H4    H     H_    0.907250 0.636276 0.634391 0.161513
H5    H     H_    0.082681 0.648673 0.582122 0.135901
H6    H     H_    0.091741 0.629836 0.702511 0.227359
S1    S     S_3+6 0.596694 0.098444 0.688412 0.127102
O11   O     O_2   0.460350 0.132314 0.727606 -0.171821
O12   O     O_2   0.687638 0.042835 0.758084 -0.158718
O13   O     O_3   0.709996 0.179298 0.667885 -0.491754
H7    H     H_    0.798187 0.153441 0.643346 0.352076
S2    S     S_3+6 0.384550 0.902354 0.314360 0.104649
O14   O     O_2   0.294699 0.959784 0.246142 -0.163738
O15   O     O_2   0.515593 0.864718 0.272964 -0.192056
O16   O     O_3   0.266366 0.825057 0.338796 -0.547612
H8    H     H_    0.217952 0.804140 0.278655 0.399304
S3    S     S_3+6 0.486248 0.898875 0.688436 0.105624
O17   O     O_2   0.380686 0.825058 0.669748 -0.263244
O18   O     O_2   0.642534 0.867798 0.727987 -0.226785
O19   O     O_3   0.414703 0.959487 0.765444 -0.412500
H9    H     H_    0.424488 0.925475 0.822202 0.403952
S4    S     S_3+6 0.507217 0.099940 0.313000 0.103834
O20   O     O_2   0.352729 0.134008 0.274204 -0.205086
O21   O     O_2   0.617828 0.171622 0.331227 -0.270134
O22   O     O_3   0.573412 0.037353 0.235720 -0.416498
H10   H     H_    0.559041 0.069753 0.177847 0.392154
S5    S     S_3+6 0.459353 0.671369 0.105631 0.116514
O23   O     O_2   0.609850 0.704303 0.152385 -0.212205
O24   O     O_2   0.384787 0.736687 0.040833 -0.142609
O25   O     O_3   0.341407 0.653307 0.184396 -0.527331
H11   H     H_    0.386260 0.684469 0.239487 0.383023
S6    S     S_3+6 0.434741 0.330856 0.885419 0.124258
O26   O     O_2   0.579853 0.291981 0.861820 -0.176688
O27   O     O_2   0.351598 0.268726 0.937507 -0.149013
O28   O     O_3   0.319609 0.354001 0.788003 -0.524594
H12   H     H_    0.320698 0.303367 0.749525 0.394245
S7    S     S_3+6 0.560526 0.670318 0.895601 0.104567
O29   O     O_2   0.657550 0.651118 0.821916 -0.275167
O30   O     O_2   0.414122 0.711020 0.852731 -0.222126
O31   O     O_3   0.659635 0.737541 0.968609 -0.410966
H13   H     H_    0.663245 0.790342 0.933508 0.405201
S8    S     S_3+6 0.535079 0.327350 0.111749 0.103014
O32   O     O_2   0.632359 0.342163 0.202034 -0.294838
O33   O     O_2   0.383143 0.292170 0.129057 -0.196637
O34   O     O_3   0.626713 0.256999 0.054176 -0.415208
H14   H     H_    0.629359 0.204999 0.091149 0.392351

loop_
_geom_bond_atom_site_label_1
_geom_bond_atom_site_label_2
_ccdc_geom_bond_type
O16   H8    S    
C1    C21   S    
C3    C23   A    
O28   H12   S    
C18   S1    S    
S1    O12   D    
S7    O29   D    
Cu1   N2    S    
C15   C19   S    
Cu2   N1    S    
S4    O20   D    
C13   C18   A    
C5    S6    S    
C3    C7    S    
C25   H1    S    
C4    C24   A    
S3    O18   D    
C13   S3    S    
C14   S4    S    
C1    O3    A    
C2    O4    A    
C11   O9    S    
C24   S8    S    
C12   O10   S    
Cu2   O6    S    
C2    C22   S    
S4    O21   D    
O25   H11   S    
S2    O16   S    
C4    C8    S    
Cu1   O4    S    
Cu2   O3    S    
C9    O5    A    
C14   C17   A    
S6    O28   S    
C17   S2    S    
S2    O15   D    
S1    O13   S    
S7    O30   D    
Cu1   O1    S    
S5    O23   D    
C19   C22   T    
C25   H3    S    
S6    O27   D    
O31   H13   S    
S3    O19   S    
Cu1   Cu2   S    
O34   H14   S    
C7    N2    T    
O19   H9    S    
S5    O24   D    
C26   H4    S    
O9    C25   S    
C9    C11   S    
S1    O11   D    
C16   C20   S    
C1    O1    A    
O13   H7    S    
C10   O6    A    
C23   S7    S    
C26   H5    S    
C10   C12   S    
C4    C6    A    
C6    S5    S    
Cu2   O2    S    
S8    O33   D    
C13   C15   A    
C14   C16   A    
O10   C26   S    
S2    O14   D    
S7    O31   S    
C15   C17   A    
S4    O22   S    
S6    O26   D    
C3    C5    A    
C11   C12   D    
S8    O34   S    
C2    O2    A    
S5    O25   S    
C25   H2    S    
S3    O17   D    
C5    C24   A    
C6    C23   A    
O22   H10   S    
C26   H6    S    
Cu1   O8    S    
Cu2   O7    S    
C20   C21   T    
C16   C18   A    
S8    O32   D    
C9    O7    A    
C8    N1    T    
C10   O8    A    
Cu1   O5    S    
