data_mof_unit_2947.cif
_audit_creation_date              2012-12-10T22:11:06-0500
_audit_creation_method            fapswitch 2.2
_symmetry_space_group_name_H-M    P1
_symmetry_Int_Tables_number       1
_space_group_crystal_system       triclinic
_cell_length_a                    12.124262
_cell_length_b                    12.285497
_cell_length_c                    22.957391
_cell_angle_alpha                 90.444707
_cell_angle_beta                  90.611092
_cell_angle_gamma                 90.562121
_cell_volume                      3419.09785912

loop_
_atom_site_label
_atom_site_type_symbol
_atom_type_description
_atom_site_fract_x
_atom_site_fract_y
_atom_site_fract_z
_atom_type_partial_charge
C1    C     C_R   0.660116 0.997594 0.577855 0.902216
C2    C     C_R   0.099953 0.873324 0.825130 -0.165964
C3    C     C_R   0.900603 0.243650 0.153886 -0.184132
C4    C     C_R   0.099047 0.790721 0.865433 -0.192748
C5    C     C_R   0.111930 0.912654 0.323438 -0.141064
C6    C     C_R   0.847532 0.089211 0.698689 -0.181290
C7    C     C_R   0.195337 0.913140 0.364834 -0.235120
C8    C     C_R   0.766318 0.087723 0.655958 -0.246128
C9    C     C_R   0.875794 0.098881 0.321824 -0.157571
C10   C     C_R   0.161600 0.900269 0.697196 -0.172755
C11   C     C_R   0.795802 0.098673 0.364226 -0.160589
C12   C     C_R   0.345782 0.002561 0.418992 0.909910
C13   C     C_R   0.240474 0.901296 0.654249 -0.163518
C14   C     C_3   0.993494 0.004310 0.247569 -0.080530
C15   C     C_3   0.006692 0.994911 0.752426 -0.083109
C16   C     C_R   0.654572 0.001823 0.420645 0.892495
C17   C     C_R   0.345644 0.998260 0.579458 0.849013
C18   C     C_R   0.092465 0.005000 0.289241 0.033618
C19   C     C_R   0.909398 0.995423 0.709781 0.038544
C20   C     C_R   0.262688 0.005384 0.372776 -0.184478
C21   C     C_R   0.749555 0.995247 0.620704 -0.179023
C22   C     C_R   0.896064 0.004293 0.288725 0.117942
C23   C     C_R   0.894859 0.803427 0.130887 -0.198099
C24   C     C_R   0.105587 0.996438 0.712104 0.110918
C25   C     C_R   0.737499 0.002749 0.375872 -0.011362
C26   C     C_R   0.263526 0.997626 0.624638 -0.023455
C27   C     C_R   0.993944 0.100432 0.206021 0.108257
C28   C     C_R   0.004766 0.896309 0.792038 0.120843
C29   C     C_R   0.998005 0.267058 0.124152 -0.033236
C30   C     C_R   0.001857 0.731679 0.875032 -0.028016
C31   C     C_R   0.992084 0.906978 0.206258 0.122282
C32   C     C_R   0.007946 0.090024 0.795317 0.129620
C33   C     C_R   0.991261 0.745989 0.119853 -0.025067
C34   C     C_R   0.106892 0.225540 0.853489 -0.194280
C35   C     C_R   0.009483 0.249554 0.882620 -0.023338
C36   C     C_R   0.992701 0.661541 0.075585 0.869856
C37   C     C_R   0.007370 0.337248 0.925097 0.866938
C38   C     C_R   0.999015 0.351984 0.080912 0.868824
C39   C     C_R   0.000942 0.647831 0.918950 0.870077
C40   C     C_R   0.156863 0.099138 0.299377 -0.254617
C41   C     C_R   0.893818 0.903708 0.673485 -0.223730
C42   C     C_R   0.246031 0.098473 0.337708 0.454796
C43   C     C_R   0.818160 0.903494 0.627805 0.451132
C44   C     C_R   0.838834 0.907467 0.302229 -0.190059
C45   C     C_R   0.089104 0.850083 0.193538 -0.186117
C46   C     C_R   0.127978 0.092166 0.680826 -0.152143
C47   C     C_R   0.759506 0.907184 0.344921 -0.158113
C48   C     C_R   0.207450 0.093213 0.638195 -0.188055
C49   C     C_R   0.089335 0.120746 0.173004 -0.134147
C50   C     C_R   0.906528 0.838033 0.803129 -0.171523
C51   C     C_R   0.092216 0.204997 0.133550 -0.169351
C52   C     C_R   0.905570 0.755625 0.843877 -0.187375
C53   C     C_R   0.895808 0.884637 0.173023 -0.161377
C54   C     C_R   0.106626 0.145511 0.810740 -0.188210
C55   C     C_R   0.912424 0.110446 0.827727 -0.163852
C56   C     C_R   0.088217 0.769745 0.151268 -0.186018
C57   C     C_R   0.912638 0.190632 0.870182 -0.194579
C58   C     C_R   0.897967 0.160085 0.193827 -0.184692
H1    H     H_    0.857423 0.830493 0.281634 0.148634
H2    H     H_    0.175220 0.920238 0.819873 0.137772
H3    H     H_    0.061005 0.840211 0.318522 0.158702
H4    H     H_    0.862328 0.164885 0.721881 0.158870
H5    H     H_    0.923199 0.172821 0.315107 0.151008
H6    H     H_    0.141871 0.822696 0.716585 0.152745
H7    H     H_    0.716377 0.831700 0.354090 0.168747
H8    H     H_    0.222982 0.168122 0.614955 0.167876
H9    H     H_    0.167191 0.219801 0.109490 0.161374
H10   H     H_    0.829182 0.711823 0.851532 0.158962
H11   H     H_    0.819709 0.787224 0.106256 0.157988
H12   H     H_    0.082066 0.165861 0.688865 0.147090
H13   H     H_    0.183171 0.268676 0.863546 0.158195
H14   H     H_    0.164184 0.726930 0.142905 0.163509
H15   H     H_    0.837017 0.205949 0.893440 0.159614
H16   H     H_    0.825963 0.289182 0.145874 0.162682
H17   H     H_    0.173908 0.774998 0.889998 0.160004
H18   H     H_    0.206010 0.841224 0.391243 0.190832
H19   H     H_    0.717228 0.160126 0.650141 0.184597
H20   H     H_    0.781394 0.172863 0.388666 0.169386
H21   H     H_    0.282292 0.826245 0.643754 0.166178
H22   H     H_    0.138166 0.174515 0.277772 0.203582
H23   H     H_    0.162481 0.071868 0.178548 0.148277
H24   H     H_    0.944866 0.832985 0.679809 0.197843
H25   H     H_    0.364795 0.349878 0.279739 0.384925
H26   H     H_    0.932980 0.659814 0.559548 0.387574
H27   H     H_    0.829287 0.857646 0.781912 0.143662
H28   H     H_    0.821421 0.931035 0.179595 0.142289
H29   H     H_    0.184615 0.126133 0.790983 0.141395
H30   H     H_    0.167170 0.869358 0.214533 0.150111
H31   H     H_    0.837208 0.064111 0.819888 0.140100
H32   H     H_    0.819834 0.141401 0.213853 0.152062
O1    O     O_R   0.621380 0.090460 0.561410 -0.641628
O2    O     O_R   0.912410 0.372520 0.941210 -0.627689
O3    O     O_R   0.905660 0.383870 0.059980 -0.627411
O4    O     O_R   0.094340 0.616130 0.940020 -0.627981
O5    O     O_R   0.092570 0.390420 0.063230 -0.622338
O6    O     O_R   0.907430 0.609580 0.936770 -0.626404
O7    O     O_R   0.900680 0.620930 0.055550 -0.625897
O8    O     O_R   0.099320 0.379070 0.944450 -0.628131
O9    O     O_2   0.313860 0.284233 0.389310 -0.285544
O10   O     O_2   0.453775 0.177813 0.337957 -0.310362
O11   O     O_3   0.313325 0.286983 0.276335 -0.579090
O12   O     O_R   0.378620 0.909540 0.438590 -0.640050
O13   O     O_2   0.724374 0.717098 0.590039 -0.294053
O14   O     O_2   0.815894 0.830658 0.516974 -0.299627
O15   O     O_3   0.938227 0.720513 0.588127 -0.573219
O16   O     O_R   0.617150 0.909540 0.438590 -0.605993
O17   O     O_R   0.382850 0.090460 0.561410 -0.631701
O18   O     O_R   0.619720 0.093230 0.440890 -0.607610
O19   O     O_R   0.380280 0.906770 0.559110 -0.626820
O20   O     O_R   0.618800 0.906770 0.559110 -0.544271
O21   O     O_R   0.381200 0.093230 0.440890 -0.538221
O22   O     O_R   0.087590 0.627480 0.058790 -0.627944
S1    S     S_3+6 0.335592 0.213808 0.336919 0.015523
S2    S     S_3+6 0.821186 0.791042 0.578736 0.021746
Zn1   Zn    Zn3+2 0.501730 0.123520 0.501540 1.059137
Zn2   Zn    Zn3+2 0.498270 0.876480 0.498460 1.058169
Zn3   Zn    Zn3+2 0.125690 0.504390 0.002180 0.952136
Zn4   Zn    Zn3+2 0.874310 0.495610 0.997820 0.950242

loop_
_geom_bond_atom_site_label_1
_geom_bond_atom_site_label_2
_ccdc_geom_bond_type
C13   H21   S    
C1    C21   S    
O11   S1    S    
C23   H11   S    
C14   C31   S    
C49   C51   A    
C15   C32   S    
O5    Zn3   S    
C15   C19   S    
C6    C19   A    
C17   C26   S    
O18   Zn1   S    
O6    Zn4   S    
C35   C37   S    
C17   O17   A    
C43   S2    S    
O22   Zn3   S    
O4    Zn3   S    
C2    H2    S    
C9    C22   A    
C11   C25   A    
C44   H1    S    
C49   H23   S    
C33   C36   S    
C34   C35   A    
C57   H15   S    
O7    Zn4   S    
C3    C29   A    
C3    H16   S    
O2    Zn4   S    
C4    H17   S    
C18   C40   A    
O19   Zn2   S    
C21   C43   A    
C28   C50   A    
C22   C44   A    
C45   C56   A    
C23   C33   A    
C38   O5    A    
C36   O22   A    
C50   C52   A    
C40   H22   S    
C53   H28   S    
C14   C27   S    
C25   C47   A    
C32   C55   A    
C52   H10   S    
C44   C47   A    
C16   O16   A    
C33   C56   A    
C40   C42   A    
C1    O1    A    
C41   C43   A    
C32   C54   A    
C37   O8    A    
C23   C53   A    
C46   C48   A    
O15   S2    S    
O13   S2    D    
C5    C7    A    
C2    C28   A    
C6    C8    A    
C5    C18   A    
C10   C24   A    
C10   C13   A    
O16   Zn2   S    
C29   C38   S    
C2    C4    A    
C39   O4    A    
C12   O12   A    
C11   H20   S    
C1    O20   A    
C9    C11   A    
C42   S1    S    
C12   C20   S    
H26   O15   S    
C5    H3    S    
C51   H9    S    
C31   C53   A    
C58   H32   S    
O17   Zn1   S    
C36   O7    A    
O14   S2    D    
C45   H30   S    
C15   C24   S    
C34   C54   A    
C55   C57   A    
C8    H19   S    
C13   C26   A    
O3    Zn4   S    
O20   Zn2   S    
O8    Zn3   S    
C29   C51   A    
C16   C25   S    
C30   C52   A    
H25   O11   S    
C37   O2    A    
C56   H14   S    
C9    H5    S    
C14   C18   S    
C10   H6    S    
O10   S1    D    
C27   C58   A    
C8    C21   A    
O9    S1    D    
C20   C42   A    
C7    H18   S    
C26   C48   A    
C50   H27   S    
C35   C57   A    
C24   C46   A    
C6    H4    S    
C55   H31   S    
C14   C22   S    
C15   C28   S    
C54   H29   S    
C17   O19   A    
C41   H24   S    
C38   O3    A    
O1    Zn1   S    
C30   C39   S    
C39   O6    A    
C46   H12   S    
O12   Zn2   S    
C16   O18   A    
C3    C58   A    
C19   C41   A    
C7    C20   A    
C31   C45   A    
O21   Zn1   S    
C48   H8    S    
C34   H13   S    
C47   H7    S    
C12   O21   A    
C4    C30   A    
C27   C49   A    
