data_mof_unit_1059.cif
_audit_creation_date              2012-12-10T19:46:26-0500
_audit_creation_method            fapswitch 2.2
_symmetry_space_group_name_H-M    P1
_symmetry_Int_Tables_number       1
_space_group_crystal_system       triclinic
_cell_length_a                    10.921604
_cell_length_b                    10.930238
_cell_length_c                    10.459214
_cell_angle_alpha                 91.944877
_cell_angle_beta                  91.921164
_cell_angle_gamma                 88.315804
_cell_volume                      1246.65665735

loop_
_atom_site_label
_atom_site_type_symbol
_atom_type_description
_atom_site_fract_x
_atom_site_fract_y
_atom_site_fract_z
_atom_type_partial_charge
C1    C     C_R   0.500614 0.261473 0.498100 0.801076
C2    C     C_R   0.499896 0.738629 0.502740 0.799435
C3    C     C_R   0.872313 0.506222 0.503830 -0.109458
C4    C     C_R   0.127892 0.508537 0.494233 -0.074178
C5    C     C_R   0.944087 0.515599 0.618201 0.001385
C6    C     C_R   0.056350 0.499013 0.379278 0.040216
C7    C     C_R   0.483155 0.182565 0.053318 -0.170988
C8    C     C_R   0.556410 0.788956 0.935616 -0.171818
C9    C     C_R   0.455499 0.154449 0.178342 -0.076092
C10   C     C_R   0.565831 0.824401 0.809527 -0.094509
C11   C     C_R   0.546670 0.103602 0.259789 0.081114
C12   C     C_R   0.472714 0.896835 0.751772 0.063128
C13   C     C_R   0.664991 0.081460 0.215465 -0.227630
C14   C     C_R   0.373583 0.938846 0.825548 -0.178193
C15   C     C_R   0.691999 0.105731 0.089387 0.318067
C16   C     C_R   0.365965 0.906899 0.954277 0.335922
C17   C     C_R   0.600555 0.156846 0.008238 -0.144596
C18   C     C_R   0.457394 0.829800 0.007601 -0.195824
C19   C     C_R   0.516892 0.928947 0.391803 -0.248339
C20   C     C_R   0.485125 0.071828 0.613100 -0.245230
C21   C     C_R   0.501459 0.872277 0.507818 -0.087656
C22   C     C_R   0.499595 0.128022 0.496307 -0.087260
C23   C     C_R   0.261460 0.502748 0.497760 0.808724
C24   C     C_R   0.738625 0.501602 0.501934 0.789025
C25   C     C_R   0.486705 0.945030 0.621696 0.016850
C26   C     C_R   0.516541 0.055259 0.384346 0.010825
C27   C     C_1   0.500161 0.499645 0.072037 0.070420
C28   C     C_1   0.500077 0.499460 0.927945 0.073395
C29   C     C_R   0.190629 0.571220 0.060747 -0.197173
C30   C     C_R   0.837120 0.373313 0.917310 -0.159519
C31   C     C_R   0.148040 0.587376 0.185691 0.330328
C32   C     C_R   0.874398 0.383909 0.790542 0.322788
C33   C     C_R   0.107524 0.485251 0.249999 0.105362
C34   C     C_R   0.894827 0.502097 0.746241 0.077244
C35   C     C_R   0.108166 0.369493 0.187332 -0.215197
C36   C     C_R   0.882408 0.605374 0.828679 -0.187956
C37   C     C_R   0.149900 0.354825 0.062821 -0.134266
C38   C     C_R   0.846992 0.592247 0.954219 -0.146290
C39   C     C_R   0.190847 0.455539 0.999578 -0.145785
C40   C     C_R   0.822522 0.476754 0.997661 -0.156819
C41   C     C_R   0.929777 0.499079 0.386046 -0.252754
C42   C     C_R   0.070300 0.519561 0.611767 -0.214924
Cu1   Cu    Cu3+1 0.500000 0.500000 0.625300 0.972383
Cu2   Cu    Cu3+1 0.500000 0.500000 0.374700 0.970321
H1    H     H_    0.223215 0.443826 0.903170 0.143440
H2    H     H_    0.792606 0.466966 0.094069 0.140272
H3    H     H_    0.734581 0.038992 0.277118 0.128102
H4    H     H_    0.305706 0.000750 0.783516 0.134508
H5    H     H_    0.532221 0.874417 0.305113 0.159673
H6    H     H_    0.474331 0.127258 0.700192 0.159826
H7    H     H_    0.222802 0.648571 0.010639 0.136715
H8    H     H_    0.819643 0.285848 0.955475 0.168029
H9    H     H_    0.075617 0.290724 0.234860 0.131813
H10   H     H_    0.901998 0.695585 0.796171 0.129515
H11   H     H_    0.150033 0.265357 0.015137 0.147831
H12   H     H_    0.839005 0.671371 0.018348 0.122493
H13   H     H_    0.876074 0.491401 0.297561 0.157411
H14   H     H_    0.123927 0.525401 0.700798 0.158584
H15   H     H_    0.619694 0.175650 0.910161 0.131635
H16   H     H_    0.452919 0.802738 0.105775 0.122320
H17   H     H_    0.412638 0.221036 0.990174 0.145127
H18   H     H_    0.627268 0.731549 0.978858 0.140773
H19   H     H_    0.362922 0.169594 0.210685 0.137601
H20   H     H_    0.646573 0.796397 0.757364 0.133121
N1    N     N_1   0.500010 0.499990 0.186410 -0.150253
N2    N     N_1   0.499990 0.500010 0.813590 -0.146845
O1    O     O_R   0.499990 0.319650 0.605810 -0.586678
O2    O     O_R   0.500010 0.680350 0.394190 -0.590310
O3    O     O_R   0.499990 0.319640 0.394190 -0.572419
O4    O     O_R   0.500010 0.680360 0.605810 -0.574676
O5    O     O_R   0.319640 0.500010 0.605810 -0.589479
O6    O     O_R   0.680360 0.499990 0.394190 -0.585580
O7    O     O_R   0.319650 0.500010 0.394190 -0.572230
O8    O     O_R   0.680350 0.499990 0.605810 -0.574752
N3    N     N_2   0.809552 0.073103 0.043015 -0.462998
H21   H     H_    0.878942 0.078150 0.112210 0.241709
C43   C     C_3   0.812741 0.957655 0.971891 -0.766286
H22   H     H_    0.905271 0.938462 0.935156 0.229763
H23   H     H_    0.748417 0.961750 0.888162 0.249295
H24   H     H_    0.788976 0.882583 0.034547 0.230659
N4    N     N_2   0.273952 0.960085 0.034030 -0.440338
H25   H     H_    0.281181 0.937186 0.128869 0.243480
C44   C     C_3   0.149649 0.963570 0.982549 -0.764474
H26   H     H_    0.087487 0.998448 0.058124 0.232749
H27   H     H_    0.122206 0.870220 0.949944 0.231187
H28   H     H_    0.139914 0.027088 0.902237 0.233450
N5    N     N_2   0.148520 0.705404 0.247141 -0.430710
H29   H     H_    0.222428 0.756020 0.224384 0.246040
C45   C     C_3   0.033857 0.774169 0.233872 -0.731070
H30   H     H_    0.041769 0.864363 0.285142 0.230228
H31   H     H_    0.958362 0.724745 0.275743 0.242699
H32   H     H_    0.011009 0.789559 0.131347 0.224209
N6    N     N_2   0.896340 0.279002 0.707385 -0.444079
H33   H     H_    0.867810 0.287698 0.613184 0.248643
C46   C     C_3   0.886060 0.156977 0.753532 -0.715800
H34   H     H_    0.917445 0.089050 0.679448 0.225123
H35   H     H_    0.788939 0.139852 0.772585 0.240863
H36   H     H_    0.945572 0.145216 0.840568 0.254539

loop_
_geom_bond_atom_site_label_1
_geom_bond_atom_site_label_2
_ccdc_geom_bond_type
C15   N3    S    
N5    H29   S    
N6    H33   S    
C35   H9    S    
C46   H34   S    
Cu1   Cu2   S    
C42   H14   S    
N4    H25   S    
C3    C24   S    
C46   H36   S    
C43   H22   S    
C40   H2    S    
C35   C37   A    
C2    O2    A    
C20   C25   A    
C7    C9    A    
C19   C26   A    
C7    H17   S    
C20   H6    S    
C33   C35   A    
C7    C17   A    
C6    C41   A    
C31   C33   A    
C45   H31   S    
C39   H1    S    
Cu1   O8    S    
C32   N6    S    
C1    C22   S    
N6    C46   S    
C38   C40   A    
Cu2   N1    S    
C23   O7    A    
N4    C44   S    
C43   H23   S    
C31   N5    S    
C23   O5    A    
C4    C6    A    
C13   H3    S    
C4    C23   S    
C14   H4    S    
C11   C26   S    
C8    C18   A    
C32   C34   A    
C28   N2    T    
N3    H21   S    
C27   N1    T    
N3    C43   S    
C19   H5    S    
C44   H26   S    
C29   C31   A    
C5    C34   S    
C29   C39   A    
C2    C21   S    
C30   C40   A    
Cu2   O3    S    
C16   C18   A    
C45   H32   S    
C9    C11   A    
C10   C12   A    
C17   H15   S    
C18   H16   S    
C44   H27   S    
C20   C22   A    
Cu1   O4    S    
C13   C15   A    
C14   C16   A    
Cu2   O2    S    
C24   O6    A    
C5    C42   A    
C29   H7    S    
C43   H24   S    
C15   C17   A    
C21   C25   A    
C3    C41   A    
Cu1   O5    S    
C19   C21   A    
C9    H19   S    
C8    C10   A    
C10   H20   S    
C12   C14   A    
C3    C5    A    
C46   H35   S    
C6    C33   S    
C12   C25   S    
C36   C38   A    
C41   H13   S    
C37   C39   A    
C30   C32   A    
C11   C13   A    
C24   O8    A    
C4    C42   A    
Cu1   N2    S    
C16   N4    S    
C1    O1    A    
Cu2   O6    S    
C34   C36   A    
Cu2   O7    S    
C1    O3    A    
C36   H10   S    
C37   H11   S    
C44   H28   S    
C38   H12   S    
Cu1   O1    S    
C22   C26   A    
C27   C28   S    
N5    C45   S    
C45   H30   S    
C2    O4    A    
C8    H18   S    
C30   H8    S    
