data_mof_unit_4988.cif
_audit_creation_date              2012-12-10T19:24:06-0500
_audit_creation_method            fapswitch 2.2
_symmetry_space_group_name_H-M    P1
_symmetry_Int_Tables_number       1
_space_group_crystal_system       triclinic
_cell_length_a                    10.482373
_cell_length_b                    10.504481
_cell_length_c                    9.797872
_cell_angle_alpha                 90.211724
_cell_angle_beta                  90.465948
_cell_angle_gamma                 89.864498
_cell_volume                      1078.81620279

loop_
_atom_site_label
_atom_site_type_symbol
_atom_type_description
_atom_site_fract_x
_atom_site_fract_y
_atom_site_fract_z
_atom_type_partial_charge
C1    C     C_R   0.499771 0.257807 0.499632 0.871631
C2    C     C_R   0.500229 0.742193 0.500367 0.871631
C3    C     C_3   0.532060 0.959546 0.626629 -0.186658
C4    C     C_3   0.467940 0.040454 0.373371 -0.186657
C5    C     C_3   0.482164 0.386064 0.048179 -0.129446
C6    C     C_3   0.517836 0.613936 0.951821 -0.129446
C7    C     C_3   0.588475 0.428644 0.952997 0.100300
C8    C     C_3   0.411525 0.571356 0.047003 0.100300
C9    C     C_3   0.392178 0.458593 0.950143 -0.132466
C10   C     C_3   0.607822 0.541407 0.049857 -0.132466
C11   C     C_R   0.257633 0.500188 0.499364 0.866537
C12   C     C_R   0.742367 0.499812 0.500636 0.866537
C13   C     C_3   0.043486 0.394119 0.561633 -0.158537
C14   C     C_3   0.956514 0.605881 0.438367 -0.158537
C15   C     C_3   0.957255 0.396366 0.433148 -0.166881
C16   C     C_3   0.042745 0.603634 0.566852 -0.166881
C17   C     C_3   0.877567 0.499816 0.501813 0.013984
C18   C     C_3   0.122433 0.500184 0.498187 0.013984
C19   C     C_3   0.961091 0.497571 0.630446 -0.134827
C20   C     C_3   0.038909 0.502429 0.369554 -0.134827
C21   C     C_3   0.615581 0.041145 0.533208 0.040791
C22   C     C_3   0.384419 0.958855 0.466792 0.040791
C23   C     C_3   0.585717 0.956833 0.408517 -0.222432
C24   C     C_3   0.414283 0.043167 0.591483 -0.222432
C25   C     C_3   0.500244 0.877124 0.501235 -0.029678
C26   C     C_3   0.499756 0.122875 0.498765 -0.029678
H1    H     H_    0.925487 0.495793 0.736825 0.155181
H2    H     H_    0.074513 0.504207 0.263175 0.155181
H3    H     H_    0.656080 0.917640 0.335280 0.146271
H4    H     H_    0.343920 0.082360 0.664720 0.146271
N1    N     N_3   0.499910 0.500030 0.863290 -0.090196
N2    N     N_3   0.500090 0.499970 0.136710 -0.090196
O1    O     O_R   0.500010 0.313960 0.616610 -0.614192
O2    O     O_R   0.499990 0.686040 0.383390 -0.614192
O3    O     O_R   0.500060 0.313950 0.383350 -0.629883
O4    O     O_R   0.499940 0.686050 0.616650 -0.629883
O5    O     O_R   0.313930 0.499970 0.616610 -0.627561
O6    O     O_R   0.686070 0.500030 0.383390 -0.627561
O7    O     O_R   0.313980 0.499960 0.383350 -0.617463
O8    O     O_R   0.686020 0.500040 0.616650 -0.617463
Zn1   Zn    Zn3+2 0.499970 0.500010 0.655740 0.948585
Zn2   Zn    Zn3+2 0.500030 0.499990 0.344260 0.948585
H5    H     H_    0.917555 0.312219 0.378790 0.149649
H6    H     H_    0.082445 0.687781 0.621210 0.149649
H7    H     H_    0.083820 0.308037 0.611484 0.145303
H8    H     H_    0.916180 0.691963 0.388516 0.145303
C27   C     C_1   0.743325 0.088748 0.567685 0.145451
N3    N     N_1   0.844320 0.125842 0.594488 -0.209664
C28   C     C_1   0.256675 0.911252 0.432315 0.145451
N4    N     N_1   0.155680 0.874158 0.405512 -0.209664
H9    H     H_    0.559144 0.923313 0.729205 0.147285
H10   H     H_    0.440856 0.076687 0.270795 0.147285
C29   C     C_1   0.689142 0.347537 0.896671 0.165727
N5    N     N_1   0.768828 0.283490 0.852619 -0.208011
C30   C     C_1   0.310858 0.652463 0.103329 0.165727
N6    N     N_1   0.231172 0.716510 0.147380 -0.208011
H11   H     H_    0.468120 0.290223 0.092965 0.128878
H12   H     H_    0.531880 0.709777 0.907035 0.128878
H13   H     H_    0.301332 0.424686 0.903837 0.132322
H14   H     H_    0.698668 0.575314 0.096163 0.132322

loop_
_geom_bond_atom_site_label_1
_geom_bond_atom_site_label_2
_ccdc_geom_bond_type
C12   C17   S    
C12   O8    A    
C7    C10   S    
C10   H14   S    
C30   N6    T    
C11   C18   S    
C5    C9    S    
C16   H6    S    
C14   C16   S    
C10   N2    S    
C2    C25   S    
C4    C22   S    
C6    H12   S    
C4    C26   S    
C27   N3    T    
O2    Zn2   S    
C5    H11   S    
C21   C26   S    
C5    N2    S    
O1    Zn1   S    
C2    O2    A    
C23   C25   S    
C6    N1    S    
C3    C24   S    
C15   H5    S    
C14   H8    S    
N1    Zn1   S    
C29   N5    T    
C13   H7    S    
C14   C17   S    
O4    Zn1   S    
C15   C20   S    
C13   C18   S    
C4    H10   S    
C16   C19   S    
C6    C8    S    
C23   H3    S    
C8    C30   S    
C16   C18   S    
O8    Zn1   S    
C17   C19   S    
C24   C26   S    
O6    Zn2   S    
O7    Zn2   S    
C18   C20   S    
C2    O4    A    
C13   C15   S    
C21   C23   S    
O5    Zn1   S    
C1    C26   S    
C11   O7    A    
C22   C24   S    
C3    C21   S    
C24   H4    S    
C7    N1    S    
C6    C10   S    
C7    C29   S    
C1    O1    A    
C8    N2    S    
C12   O6    A    
C14   C20   S    
C3    C25   S    
C19   H1    S    
C1    O3    A    
C11   O5    A    
C28   N4    T    
C22   C28   S    
C5    C7    S    
O3    Zn2   S    
C3    H9    S    
C8    C9    S    
C13   C19   S    
N2    Zn2   S    
C20   H2    S    
C9    H13   S    
C4    C23   S    
C15   C17   S    
C9    N1    S    
C21   C27   S    
C22   C25   S    
