data_mof_unit_3788.cif
_audit_creation_date              2012-12-10T18:57:42-0500
_audit_creation_method            fapswitch 2.2
_symmetry_space_group_name_H-M    P1
_symmetry_Int_Tables_number       1
_space_group_crystal_system       triclinic
_cell_length_a                    10.928646
_cell_length_b                    10.852197
_cell_length_c                    9.569839
_cell_angle_alpha                 89.444476
_cell_angle_beta                  91.305063
_cell_angle_gamma                 90.868061
_cell_volume                      1134.50690187

loop_
_atom_site_label
_atom_site_type_symbol
_atom_type_description
_atom_site_fract_x
_atom_site_fract_y
_atom_site_fract_z
_atom_type_partial_charge
C1    C     C_R   0.501565 0.262373 0.500663 0.794618
C2    C     C_R   0.511297 0.129227 0.501739 -0.094996
C3    C     C_R   0.529892 0.066024 0.376448 -0.184128
C4    C     C_R   0.527895 0.937557 0.375247 -0.191270
C5    C     C_R   0.506822 0.870799 0.498986 -0.032444
C6    C     C_R   0.499665 0.934556 0.624171 -0.035309
C7    C     C_3   0.405129 0.926623 0.735007 0.158193
C8    C     C_3   0.415114 0.066402 0.742216 0.238087
C9    C     C_R   0.531482 0.604144 0.071705 0.216892
C10   C     C_R   0.453861 0.402723 0.074185 -0.052143
C11   C     C_R   0.453460 0.403099 0.925451 -0.024355
C12   C     C_R   0.265842 0.500381 0.498104 0.804771
C13   C     C_R   0.527519 0.605083 0.925082 0.228371
C14   C     C_3   0.638802 0.684179 0.913186 -0.518900
C15   C     C_3   0.647281 0.681507 0.072336 -0.286450
C16   C     C_R   0.499919 0.737524 0.499386 0.796807
C17   C     C_R   0.734882 0.496168 0.502935 0.736323
C18   C     C_2   0.931610 0.436041 0.413321 -0.138128
C19   C     C_2   0.867753 0.484191 0.517042 0.246225
C20   C     C_2   0.066007 0.429923 0.418070 -0.111029
C21   C     C_2   0.135023 0.509723 0.492598 -0.209221
C22   C     C_R   0.505724 0.061692 0.626731 -0.006245
Cu1   Cu    Cu3+1 0.499990 0.499980 0.640670 0.962957
Cu2   Cu    Cu3+1 0.500010 0.500020 0.359330 0.959784
H1    H     H_    0.884148 0.396620 0.323117 0.143004
H2    H     H_    0.417766 0.323115 0.129069 0.156663
H3    H     H_    0.415083 0.325450 0.869668 0.196763
H4    H     H_    0.713420 0.636807 0.858777 0.212326
H5    H     H_    0.618251 0.777024 0.870119 0.174703
H6    H     H_    0.636659 0.773646 0.119061 0.138598
H7    H     H_    0.109083 0.359995 0.356091 0.140811
H8    H     H_    0.097370 0.586186 0.548331 0.191165
H9    H     H_    0.540948 0.115264 0.278436 0.169789
H10   H     H_    0.537475 0.891285 0.276813 0.149716
H11   H     H_    0.434536 0.877487 0.832379 0.110442
H12   H     H_    0.329915 0.116237 0.713087 0.165185
N1    N     N_R   0.500780 0.500930 0.147930 -0.196059
N2    N     N_R   0.500780 0.500890 0.852020 -0.193759
O1    O     O_R   0.500000 0.319640 0.618810 -0.570396
O2    O     O_R   0.500010 0.319680 0.381230 -0.596009
O3    O     O_R   0.321940 0.499980 0.618760 -0.573940
O4    O     O_R   0.321950 0.500020 0.381180 -0.571128
O5    O     O_R   0.499990 0.680320 0.618770 -0.595505
O6    O     O_R   0.500000 0.680360 0.381190 -0.587363
O7    O     O_R   0.678050 0.499980 0.618820 -0.575586
O8    O     O_R   0.678060 0.500020 0.381240 -0.581129
O9    O     O_3   0.468063 0.106896 0.869559 -0.767690
H13   H     H_    0.548231 0.066222 0.884624 0.321815
C23   C     C_1   0.759233 0.619326 0.119345 0.362600
N3    N     N_1   0.849670 0.572406 0.152413 -0.303414
O10   O     O_3   0.924793 0.505515 0.645682 -0.725072
H14   H     H_    0.872771 0.558545 0.702519 0.330493
O11   O     O_3   0.290452 0.888140 0.681385 -0.720929
H15   H     H_    0.288072 0.797046 0.691046 0.335497

loop_
_geom_bond_atom_site_label_1
_geom_bond_atom_site_label_2
_ccdc_geom_bond_type
C2    C22   A    
C11   N2    A    
C8    C22   S    
Cu1   Cu2   S    
C14   H4    S    
C12   O3    A    
Cu1   O7    S    
Cu1   N2    S    
Cu2   O4    S    
C16   O6    A    
O9    H13   S    
Cu1   O3    S    
C11   H3    S    
Cu2   O8    S    
C10   H2    S    
C9    N1    A    
C2    C3    A    
C9    C15   S    
C8    O9    S    
C7    C8    S    
C13   C14   S    
C20   C21   D    
C16   O5    A    
C13   N2    A    
C6    C7    S    
C18   H1    S    
C10   N1    A    
Cu1   O1    S    
C17   C19   S    
C17   O7    A    
Cu2   N1    S    
C18   C20   S    
C15   C23   S    
C5    C6    A    
Cu2   O6    S    
C21   H8    S    
C4    H10   S    
C7    O11   S    
C10   C11   A    
C3    H9    S    
C14   H5    S    
C12   O4    A    
C3    C4    A    
C6    C22   A    
C19   O10   S    
Cu1   O5    S    
C17   O8    A    
C15   H6    S    
C1    C2    S    
C8    H12   S    
C23   N3    T    
C1    O1    A    
C14   C15   S    
C18   C19   D    
C5    C16   S    
C9    C13   A    
C1    O2    A    
Cu2   O2    S    
O11   H15   S    
C7    H11   S    
C12   C21   S    
O10   H14   S    
C4    C5    A    
C20   H7    S    
