data_mof_unit_857.cif
_audit_creation_date              2012-12-10T17:13:14-0500
_audit_creation_method            fapswitch 2.2
_symmetry_space_group_name_H-M    P1
_symmetry_Int_Tables_number       1
_space_group_crystal_system       triclinic
_cell_length_a                    11.779394
_cell_length_b                    12.941847
_cell_length_c                    13.852595
_cell_angle_alpha                 88.227746
_cell_angle_beta                  92.807595
_cell_angle_gamma                 99.675423
_cell_volume                      2078.6981004

loop_
_atom_site_label
_atom_site_type_symbol
_atom_type_description
_atom_site_fract_x
_atom_site_fract_y
_atom_site_fract_z
_atom_type_partial_charge
C1    C     C_R   0.479570 0.299437 0.505883 0.825522
C2    C     C_R   0.520499 0.700233 0.493742 0.810398
C3    C     C_R   0.544680 0.030981 0.472043 0.066836
C4    C     C_R   0.478472 0.971881 0.543868 0.072233
C5    C     C_R   0.040080 0.414084 0.604287 0.040917
C6    C     C_R   0.945332 0.526150 0.373405 0.042297
C7    C     C_R   0.159293 0.420723 0.590466 0.033455
C8    C     C_R   0.830707 0.534893 0.392041 0.032103
C9    C     C_R   0.144750 0.528169 0.449782 0.283652
C10   C     C_R   0.863025 0.495777 0.558284 0.288028
C11   C     C_R   0.021643 0.506083 0.451644 -0.029516
C12   C     C_R   0.973189 0.469523 0.538814 -0.056203
C13   C     C_R   0.519951 0.501103 0.681747 0.819487
C14   C     C_R   0.480074 0.498960 0.318231 0.809851
C15   C     C_1   0.466493 0.499424 0.215451 -0.209179
C16   C     C_1   0.533745 0.501049 0.784482 -0.211007
C17   C     C_2   0.452262 0.501721 0.024591 0.181293
C18   C     C_2   0.548428 0.499626 0.975280 0.184788
C19   C     C_1   0.542278 0.500559 0.871172 0.006923
C20   C     C_1   0.458239 0.500305 0.128730 0.008395
C21   C     C_R   0.531999 0.813633 0.483569 -0.094466
C22   C     C_R   0.471266 0.185890 0.518474 -0.106852
C23   C     C_R   0.416590 0.022001 0.608897 0.205104
C24   C     C_R   0.611565 0.981979 0.410196 0.196075
C25   C     C_R   0.405227 0.128117 0.590739 0.162350
C26   C     C_R   0.599877 0.871348 0.412459 0.166301
C27   C     C_R   0.541496 0.138043 0.462483 -0.294985
C28   C     C_R   0.473108 0.863428 0.547542 -0.315313
Cu1   Cu    Cu3+1 0.615220 0.507680 0.492970 0.924829
Cu2   Cu    Cu3+1 0.384780 0.492320 0.507030 0.922139
H1    H     H_    0.419195 0.814797 0.597899 0.172722
H2    H     H_    0.590462 0.185790 0.408345 0.176630
H3    H     H_    0.775937 0.553837 0.331962 0.155560
H4    H     H_    0.211162 0.380278 0.640321 0.146361
N1    N     N_R   0.788370 0.519230 0.482390 -0.192399
N2    N     N_R   0.211630 0.480770 0.517610 -0.202130
O1    O     O_R   0.581500 0.354430 0.495010 -0.575331
O2    O     O_R   0.418500 0.645570 0.504990 -0.584374
O3    O     O_R   0.386890 0.341450 0.506880 -0.577255
O4    O     O_R   0.613110 0.658550 0.493120 -0.583231
O5    O     O_R   0.611060 0.507430 0.631070 -0.577071
O6    O     O_R   0.388940 0.492570 0.368930 -0.588841
O7    O     O_R   0.416450 0.494450 0.642940 -0.582036
O8    O     O_R   0.583550 0.505550 0.357060 -0.595437
C29   C     C_3   0.663689 0.494143 0.026019 -0.896018
H5    H     H_    0.732062 0.495657 0.973236 0.235588
H6    H     H_    0.688968 0.562084 0.074076 0.234079
H7    H     H_    0.658315 0.420236 0.069720 0.233275
C30   C     C_3   0.336737 0.506020 0.973786 -0.884475
H8    H     H_    0.268939 0.507127 0.026608 0.233545
H9    H     H_    0.341923 0.578106 0.927464 0.233843
H10   H     H_    0.310788 0.436122 0.928216 0.233008
C31   C     C_3   0.651829 0.815890 0.334807 -0.858649
H11   H     H_    0.634942 0.851371 0.262632 0.229079
H12   H     H_    0.746138 0.821817 0.349683 0.235204
H13   H     H_    0.613105 0.732172 0.328499 0.227548
C32   C     C_3   0.324593 0.180599 0.647287 -0.868195
H14   H     H_    0.272809 0.128086 0.699069 0.231063
H15   H     H_    0.374170 0.247636 0.687606 0.224172
H16   H     H_    0.260398 0.208529 0.596166 0.243227
C33   C     C_3   0.368725 0.965438 0.699732 -0.893911
H17   H     H_    0.416685 0.902386 0.725161 0.224617
H18   H     H_    0.380459 0.019138 0.761674 0.239118
H19   H     H_    0.275978 0.932892 0.687114 0.235995
C34   C     C_3   0.693872 0.047964 0.342374 -0.893422
H20   H     H_    0.750795 0.110181 0.383605 0.231991
H21   H     H_    0.752755 0.003518 0.307848 0.243344
H22   H     H_    0.644215 0.084363 0.284379 0.229780
C35   C     C_3   0.848879 0.528467 0.661182 -0.383330
C36   C     C_3   0.838083 0.644276 0.666073 -0.771242
H23   H     H_    0.764920 0.663631 0.620389 0.291909
H24   H     H_    0.825338 0.663784 0.741871 0.225218
H25   H     H_    0.918220 0.693972 0.641435 0.224645
H26   H     H_    0.779949 0.475139 0.697397 0.210462
H27   H     H_    0.926934 0.522352 0.707675 0.175840
C37   C     C_3   0.196722 0.630080 0.399242 -0.370150
C38   C     C_3   0.195101 0.722885 0.464664 -0.806606
H28   H     H_    0.232288 0.708574 0.538044 0.266582
H29   H     H_    0.245365 0.795054 0.432686 0.243837
H30   H     H_    0.104991 0.735730 0.471834 0.233648
H31   H     H_    0.284065 0.629108 0.375863 0.242844
H32   H     H_    0.149054 0.647204 0.331857 0.164236
C39   C     C_3   0.985656 0.339645 0.682555 -0.439068
C40   C     C_3   0.001272 0.226624 0.667063 -0.822512
H33   H     H_    0.092388 0.217617 0.681500 0.240314
H34   H     H_    0.948128 0.173403 0.718050 0.243516
H35   H     H_    0.973501 0.202979 0.591991 0.260475
H36   H     H_    0.024332 0.365354 0.754437 0.200254
H37   H     H_    0.891428 0.338179 0.683329 0.210129
C41   C     C_3   0.976324 0.520088 0.268685 -0.438827
C42   C     C_3   0.898289 0.430601 0.216284 -0.823857
H38   H     H_    0.901193 0.355002 0.255822 0.257945
H39   H     H_    0.807878 0.444628 0.209678 0.246825
H40   H     H_    0.928465 0.424721 0.142255 0.242450
H41   H     H_    0.969595 0.595621 0.230265 0.200568
H42   H     H_    0.065377 0.503874 0.263528 0.211471

loop_
_geom_bond_atom_site_label_1
_geom_bond_atom_site_label_2
_ccdc_geom_bond_type
C21   C26   A    
C26   C31   S    
C7    N2    A    
C40   H35   S    
C13   O5    A    
C41   C42   S    
C41   H41   S    
C38   H28   S    
C31   H13   S    
C24   C26   A    
C5    C39   S    
C32   H15   S    
C17   C20   S    
Cu2   O2    S    
C18   C19   S    
C29   H6    S    
C33   H18   S    
C31   H11   S    
C30   H9    S    
C22   C25   A    
C9    N2    A    
C36   H23   S    
C9    C37   S    
C42   H38   S    
C1    O1    A    
C14   O6    A    
C34   H22   S    
C38   H29   S    
C39   H36   S    
C1    C22   S    
C3    C24   A    
C35   C36   S    
C25   C32   S    
C2    C21   S    
C4    C28   A    
C31   H12   S    
C15   C20   T    
C39   H37   S    
C37   C38   S    
C5    C12   A    
C17   C30   S    
C6    C11   A    
C5    C7    A    
C4    C23   A    
C32   H16   S    
C6    C8    A    
C29   H7    S    
C34   H21   S    
C6    C41   S    
C8    N1    A    
C33   H19   S    
Cu1   Cu2   S    
C42   H39   S    
C2    O2    A    
C39   C40   S    
C30   H10   S    
C36   H25   S    
C17   C18   D    
C35   H26   S    
C40   H33   S    
C9    C11   A    
C10   N1    A    
C10   C12   A    
C24   C34   S    
C21   C28   A    
C30   H8    S    
C22   C27   A    
Cu1   O8    S    
C7    H4    S    
Cu2   O7    S    
C29   H5    S    
C37   H32   S    
C3    C4    A    
C18   C29   S    
C13   O7    A    
C14   O8    A    
C38   H30   S    
Cu1   O5    S    
C27   H2    S    
C28   H1    S    
C40   H34   S    
C37   H31   S    
C11   C12   A    
C41   H42   S    
Cu1   N1    S    
Cu2   N2    S    
C3    C27   A    
C42   H40   S    
C32   H14   S    
C16   C19   T    
Cu1   O4    S    
Cu2   O3    S    
C35   H27   S    
C8    H3    S    
C23   C25   A    
C33   H17   S    
C1    O3    A    
C10   C35   S    
C2    O4    A    
C23   C33   S    
C34   H20   S    
C13   C16   S    
Cu1   O1    S    
C14   C15   S    
Cu2   O6    S    
C36   H24   S    
