data_mof_unit_872.cif
_audit_creation_date              2012-12-10T16:50:08-0500
_audit_creation_method            fapswitch 2.2
_symmetry_space_group_name_H-M    P1
_symmetry_Int_Tables_number       1
_space_group_crystal_system       triclinic
_cell_length_a                    23.481203
_cell_length_b                    8.66636
_cell_length_c                    7.437879
_cell_angle_alpha                 102.540196
_cell_angle_beta                  94.572098
_cell_angle_gamma                 92.672028
_cell_volume                      1469.59119525

loop_
_atom_site_label
_atom_site_type_symbol
_atom_type_description
_atom_site_fract_x
_atom_site_fract_y
_atom_site_fract_z
_atom_type_partial_charge
C1    C     C_R   0.495406 0.199899 0.454297 0.811766
C2    C     C_R   0.504182 0.799767 0.545019 0.852793
C3    C     C_R   0.243645 0.510897 0.672535 -0.103613
C4    C     C_R   0.765958 0.514541 0.658210 -0.123316
C5    C     C_R   0.303053 0.512114 0.671776 -0.220288
C6    C     C_R   0.706711 0.512116 0.660143 -0.241460
C7    C     C_R   0.328396 0.498557 0.504523 -0.034327
C8    C     C_R   0.671517 0.500359 0.495001 -0.038118
C9    C     C_R   0.293353 0.483611 0.338488 -0.203856
C10   C     C_R   0.696658 0.491375 0.328073 -0.221262
C11   C     C_R   0.234125 0.482697 0.339729 -0.099538
C12   C     C_R   0.755994 0.493555 0.326528 -0.117496
C13   C     C_R   0.209099 0.496368 0.506478 0.355332
C14   C     C_R   0.790695 0.504881 0.491524 0.359601
C15   C     C_2   0.487256 0.031852 0.433784 0.112738
C16   C     C_2   0.514972 0.965540 0.560297 0.170803
C17   C     C_R   0.390955 0.499514 0.501745 0.801904
C18   C     C_R   0.609001 0.499210 0.498086 0.761245
C19   C     C_R   0.884317 0.641501 0.562208 0.521464
C20   C     C_R   0.115141 0.362233 0.428684 0.532572
C21   C     C_R   0.875339 0.366696 0.414416 0.559241
C22   C     C_R   0.124446 0.636346 0.579621 0.556800
C23   C     C_R   0.935192 0.362156 0.412621 -0.075011
C24   C     C_R   0.064455 0.642702 0.576093 -0.096443
C25   C     C_R   0.969749 0.501696 0.494872 -0.080213
C26   C     C_R   0.029899 0.501764 0.499392 -0.094522
C27   C     C_R   0.944071 0.643161 0.565110 -0.036437
C28   C     C_R   0.055393 0.361299 0.423677 -0.028336
C29   C     C_R   0.960990 0.223661 0.328425 0.422105
C30   C     C_R   0.038261 0.785196 0.643963 0.463976
C31   C     C_R   0.020946 0.224505 0.338183 -0.278158
C32   C     C_R   0.978218 0.784107 0.631064 -0.327715
Cu1   Cu    Cu3+1 0.506340 0.517380 0.684380 0.945430
Cu2   Cu    Cu3+1 0.493660 0.482620 0.315620 0.946671
H1    H     H_    0.040711 0.120890 0.268024 0.177464
H2    H     H_    0.958316 0.895067 0.671668 0.178512
H3    H     H_    0.224395 0.521324 0.801866 0.133119
H4    H     H_    0.792709 0.522972 0.785959 0.136558
H5    H     H_    0.329019 0.523656 0.801645 0.154101
H6    H     H_    0.688562 0.519327 0.790871 0.156937
H7    H     H_    0.311608 0.473020 0.207471 0.154674
H8    H     H_    0.670593 0.482855 0.198991 0.156605
H9    H     H_    0.207587 0.472296 0.211184 0.127621
H10   H     H_    0.775082 0.486404 0.197351 0.132551
H11   H     H_    0.454696 0.379248 0.948890 0.228059
H12   H     H_    0.545145 0.621265 0.051208 0.216840
N1    N     N_R   0.851559 0.504333 0.489705 -0.477097
N2    N     N_R   0.148143 0.497873 0.506758 -0.479494
N3    N     N_2   0.484110 0.456420 0.038520 -0.212842
N4    N     N_2   0.515890 0.543580 0.961480 -0.224972
O1    O     O_R   0.504120 0.286130 0.619770 -0.554431
O2    O     O_R   0.495880 0.713870 0.380230 -0.583858
O3    O     O_R   0.493410 0.256770 0.308360 -0.594390
O4    O     O_R   0.506590 0.743230 0.691640 -0.582352
O5    O     O_R   0.423230 0.514630 0.655730 -0.601229
O6    O     O_R   0.576770 0.485370 0.344270 -0.588932
O7    O     O_R   0.412530 0.485280 0.344320 -0.583016
O8    O     O_R   0.587470 0.514720 0.655680 -0.585689
O9    O     O_2   0.858946 0.776116 0.628761 -0.565295
O10   O     O_2   0.140258 0.228203 0.357771 -0.540731
O11   O     O_2   0.841006 0.234356 0.345406 -0.497497
O12   O     O_2   0.159098 0.767048 0.653719 -0.474952
O13   O     O_3   0.928204 0.105636 0.201319 -0.580005
C33   C     C_3   0.931681 0.956129 0.246750 0.059437
H13   H     H_    0.906631 0.951717 0.366503 0.198498
H14   H     H_    0.976478 0.928189 0.280509 0.125428
C34   C     C_3   0.905727 0.831378 0.078156 -0.271146
H15   H     H_    0.859679 0.850350 0.049760 0.253902
H16   H     H_    0.927910 0.846519 0.956865 0.235166
C35   C     C_3   0.911639 0.662281 0.101199 -0.921189
H17   H     H_    0.956416 0.644453 0.148686 0.262051
H18   H     H_    0.899579 0.578253 0.966484 0.256230
H19   H     H_    0.882196 0.635839 0.200906 0.260579
O14   O     O_3   0.071494 0.927210 0.701682 -0.543341
C36   C     C_3   0.057979 0.015085 0.875535 0.111852
H20   H     H_    0.096536 0.026735 0.975602 0.202900
H21   H     H_    0.023773 0.957487 0.938869 0.075492
C37   C     C_3   0.040709 0.179806 0.856782 -0.351371
H22   H     H_    0.013938 0.170236 0.724193 0.222958
H23   H     H_    0.014397 0.230143 0.970037 0.202406
C38   C     C_3   0.093000 0.293482 0.865133 -0.769210
H24   H     H_    0.117821 0.313125 0.002483 0.245367
H25   H     H_    0.078991 0.409400 0.844239 0.224015
H26   H     H_    0.121044 0.244557 0.756187 0.294630
O15   O     O_3   0.440557 0.949147 0.320011 -0.626343
C39   C     C_3   0.446310 0.940694 0.130156 0.119566
H27   H     H_    0.444242 0.813466 0.059311 0.180089
H28   H     H_    0.487862 0.993180 0.100384 0.152727
C40   C     C_3   0.395783 0.016940 0.048496 -0.347318
H29   H     H_    0.355123 0.953432 0.066554 0.233411
H30   H     H_    0.395040 0.142479 0.123276 0.233457
C41   C     C_3   0.399184 0.010862 0.843296 -0.861395
H31   H     H_    0.438530 0.078630 0.823258 0.266240
H32   H     H_    0.361520 0.065049 0.788552 0.259243
H33   H     H_    0.399343 0.886240 0.764846 0.261929
O16   O     O_3   0.554231 0.049230 0.702018 -0.612032
C42   C     C_3   0.607870 0.072944 0.633593 0.068939
H34   H     H_    0.629820 0.182267 0.723513 0.184148
H35   H     H_    0.604077 0.093631 0.490325 0.098553
C43   C     C_3   0.645079 0.933794 0.642737 -0.397798
H36   H     H_    0.647304 0.910776 0.784355 0.238441
H37   H     H_    0.625537 0.826366 0.543617 0.194695
C44   C     C_3   0.705602 0.967088 0.593180 -0.804308
H38   H     H_    0.704338 0.987909 0.450759 0.257600
H39   H     H_    0.731235 0.863603 0.599605 0.283168
H40   H     H_    0.726785 0.072722 0.692191 0.261740

loop_
_geom_bond_atom_site_label_1
_geom_bond_atom_site_label_2
_ccdc_geom_bond_type
Cu1   O5    S    
C22   N2    A    
C29   O13   S    
Cu2   O6    S    
Cu1   O8    S    
C10   H8    S    
C38   H26   S    
C42   H34   S    
O15   C39   S    
C23   C29   A    
C24   C26   A    
C30   O14   S    
C37   H23   S    
C15   C16   D    
C1    O3    A    
C41   H31   S    
C42   H35   S    
C18   O8    A    
C7    C17   S    
Cu2   O7    S    
C11   H9    S    
C35   H17   S    
C1    C15   S    
C20   O10   S    
C2    C16   S    
C17   O5    A    
C21   O11   S    
C3    C13   A    
C18   O6    A    
C15   O15   S    
C23   C25   A    
C10   C12   A    
C41   H32   S    
C26   C28   A    
C38   H25   S    
C38   H24   S    
C16   O16   S    
O14   C36   S    
C39   H28   S    
C34   H15   S    
C33   C34   S    
C4    C6    A    
C2    O4    A    
C5    C7    A    
C37   H22   S    
C6    C8    A    
C20   C28   A    
C19   O9    S    
Cu1   N4    S    
C41   H33   S    
C8    C18   S    
Cu1   O1    S    
C34   H16   S    
C33   H14   S    
C36   H20   S    
C22   O12   S    
C9    C11   A    
H11   N3    S    
O16   C42   S    
C35   H19   S    
C43   H37   S    
Cu1   Cu2   S    
C44   H39   S    
C40   C41   S    
C36   H21   S    
C20   N2    A    
C2    O2    A    
C12   C14   A    
C21   C23   A    
C6    H6    S    
C40   H30   S    
C32   H2    S    
C42   C43   S    
C19   C27   A    
Cu1   O4    S    
C7    C9    A    
Cu2   N3    S    
C27   C32   A    
C39   H27   S    
C9    H7    S    
C28   C31   A    
C4    H4    S    
C3    C5    A    
C39   C40   S    
C13   N2    S    
C14   N1    S    
C25   C27   A    
H12   N4    S    
Cu2   O2    S    
C1    O1    A    
C34   C35   S    
C33   H13   S    
C5    H5    S    
C25   C26   A    
C29   C31   A    
C30   C32   A    
C11   C13   A    
C37   C38   S    
C31   H1    S    
C43   H36   S    
C44   H40   S    
C22   C24   A    
C43   C44   S    
C4    C14   A    
C36   C37   S    
C24   C30   A    
O13   C33   S    
C3    H3    S    
Cu2   O3    S    
C8    C10   A    
N3    N4    D    
C19   N1    A    
C44   H38   S    
C12   H10   S    
C35   H18   S    
C40   H29   S    
C17   O7    A    
C21   N1    A    
