data_mof_unit_2878.cif
_audit_creation_date              2012-12-10T20:34:15-0500
_audit_creation_method            fapswitch 2.2
_symmetry_space_group_name_H-M    P1
_symmetry_Int_Tables_number       1
_space_group_crystal_system       triclinic
_cell_length_a                    9.863346
_cell_length_b                    10.680392
_cell_length_c                    13.616231
_cell_angle_alpha                 90.026496
_cell_angle_beta                  82.838801
_cell_angle_gamma                 89.982873
_cell_volume                      1423.20426109

loop_
_atom_site_label
_atom_site_type_symbol
_atom_type_description
_atom_site_fract_x
_atom_site_fract_y
_atom_site_fract_z
_atom_type_partial_charge
C1    C     C_R   0.500435 0.740079 0.497141 0.876174
C2    C     C_3   0.252011 0.929412 0.554123 -0.491081
C3    C     C_R   0.920573 0.592172 0.548059 0.209179
C4    C     C_R   0.475411 0.499992 0.685775 0.895765
C5    C     C_R   0.937429 0.415491 0.445566 -0.135731
C6    C     C_R   0.081404 0.415411 0.445624 -0.128941
C7    C     C_R   0.063148 0.592194 0.547993 0.217558
C8    C     C_3   0.050543 0.620787 0.655887 -0.533252
C9    C     C_3   0.896611 0.620735 0.656050 -0.487037
C10   C     C_R   0.500538 0.259942 0.496950 0.876102
C11   C     C_R   0.524684 0.500304 0.314184 0.912994
C12   C     C_1   0.456854 0.500073 0.789605 -0.176440
C13   C     C_1   0.544532 0.503344 0.210325 -0.197040
C14   C     C_2   0.567551 0.509569 0.017047 0.531982
C15   C     C_2   0.448380 0.500524 0.981029 -0.261448
C16   C     C_1   0.447120 0.500214 0.877386 0.074673
C17   C     C_1   0.559419 0.506439 0.122432 -0.192768
C18   C     C_3   0.806102 0.528385 0.002450 0.120356
C19   C     C_3   0.932368 0.541538 0.926699 -0.844846
C20   C     C_R   0.379799 0.936203 0.482632 0.141291
C21   C     C_R   0.502469 0.871461 0.481595 -0.103251
C22   C     C_R   0.627201 0.935195 0.461614 -0.226735
C23   C     C_R   0.627241 0.064686 0.461426 -0.226073
C24   C     C_R   0.502551 0.128574 0.481259 -0.102200
C25   C     C_R   0.379835 0.063922 0.482384 0.125533
C26   C     C_3   0.251883 0.071350 0.553691 -0.473243
H1    H     H_    0.351957 0.491822 0.028926 0.118043
H2    H     H_    0.165436 0.112125 0.519251 0.201908
H3    H     H_    0.269412 0.888630 0.626652 0.199107
H4    H     H_    0.165472 0.888069 0.520144 0.203726
H5    H     H_    0.890382 0.345740 0.403165 0.140730
H6    H     H_    0.817227 0.441729 0.046193 0.146369
H7    H     H_    0.800339 0.611828 0.051876 0.147493
H8    H     H_    0.925482 0.628564 0.882980 0.265427
H9    H     H_    0.025274 0.546159 0.964996 0.206847
H10   H     H_    0.941032 0.459849 0.875788 0.257370
H11   H     H_    0.143015 0.345536 0.403310 0.146264
H12   H     H_    0.087724 0.543071 0.699835 0.224955
H13   H     H_    0.092145 0.714559 0.670846 0.199690
H14   H     H_    0.844948 0.543019 0.700325 0.242917
H15   H     H_    0.849613 0.714516 0.670976 0.203462
H16   H     H_    0.724134 0.886146 0.452991 0.170232
H17   H     H_    0.724188 0.113649 0.452690 0.166568
H18   H     H_    0.268821 0.113103 0.626017 0.205579
N1    N     N_R   0.857130 0.500860 0.500650 -0.104013
N2    N     N_R   0.142770 0.500820 0.500650 -0.102974
O1    O     O_R   0.385310 0.683210 0.499990 -0.614180
O2    O     O_R   0.614650 0.683240 0.500000 -0.623130
O3    O     O_R   0.368820 0.499950 0.640340 -0.617178
O4    O     O_R   0.598170 0.499990 0.640350 -0.597928
O5    O     O_R   0.385350 0.316760 0.500000 -0.619946
O6    O     O_R   0.614690 0.316790 0.500010 -0.623493
O7    O     O_R   0.401830 0.500010 0.359650 -0.611004
O8    O     O_R   0.631180 0.500050 0.359660 -0.617438
O9    O     O_3   0.689150 0.520898 0.952499 -0.602916
Zn1   Zn    Zn3+2 0.346870 0.499980 0.499990 0.941332
Zn2   Zn    Zn3+2 0.653130 0.500020 0.500010 0.944660

loop_
_geom_bond_atom_site_label_1
_geom_bond_atom_site_label_2
_ccdc_geom_bond_type
C8    C9    S    
C23   C24   A    
C1    O2    A    
C1    C21   S    
C3    C9    S    
C8    H13   S    
C4    C12   S    
O3    Zn1   S    
C9    H15   S    
C11   O7    A    
C13   C17   T    
C4    O3    A    
C2    H4    S    
C10   O6    A    
O8    Zn2   S    
C14   O9    S    
C6    H11   S    
C26   H18   S    
O2    Zn2   S    
C2    C26   S    
C19   H9    S    
C21   C22   A    
C20   C21   A    
C11   C13   S    
C14   C17   S    
N1    Zn2   S    
C22   H16   S    
C11   O8    A    
C8    H12   S    
C18   O9    S    
C2    H3    S    
C10   O5    A    
C26   H2    S    
O5    Zn1   S    
C3    C7    A    
C19   H10   S    
C5    C6    A    
C18   H7    S    
C18   H6    S    
C20   C25   A    
C2    C20   S    
C15   C16   S    
C7    N2    A    
C7    C8    S    
C23   H17   S    
C24   C25   A    
C18   C19   S    
O6    Zn2   S    
O7    Zn1   S    
N2    Zn1   S    
C14   C15   D    
C1    O1    A    
C5    N1    A    
C6    N2    A    
C10   C24   S    
C25   C26   S    
C22   C23   A    
O4    Zn2   S    
C15   H1    S    
C3    N1    A    
C9    H14   S    
C12   C16   T    
C4    O4    A    
O1    Zn1   S    
C5    H5    S    
C19   H8    S    
