data_mof_unit_2179.cif
_audit_creation_date              2012-12-10T16:59:59-0500
_audit_creation_method            fapswitch 2.2
_symmetry_space_group_name_H-M    P1
_symmetry_Int_Tables_number       1
_space_group_crystal_system       triclinic
_cell_length_a                    23.474527
_cell_length_b                    10.955782
_cell_length_c                    9.861507
_cell_angle_alpha                 90.508004
_cell_angle_beta                  89.566178
_cell_angle_gamma                 89.260819
_cell_volume                      2535.81446519

loop_
_atom_site_label
_atom_site_type_symbol
_atom_type_description
_atom_site_fract_x
_atom_site_fract_y
_atom_site_fract_z
_atom_type_partial_charge
C1    C     C_R   0.503496 0.265289 0.498923 0.773622
C2    C     C_R   0.969406 0.258286 0.519519 -0.249167
C3    C     C_R   0.028377 0.258507 0.539067 0.507557
C4    C     C_R   0.057851 0.369492 0.535308 -0.095920
C5    C     C_R   0.029467 0.475629 0.493619 -0.147467
C6    C     C_R   0.060857 0.580291 0.466867 -0.174572
C7    C     C_R   0.031692 0.691663 0.444013 0.389463
C8    C     C_R   0.972244 0.692728 0.423403 0.397776
C9    C     C_R   0.115209 0.378190 0.571935 0.645323
C10   C     C_R   0.120798 0.570035 0.464704 0.562096
C11   C     C_R   0.237469 0.579164 0.567195 -0.254211
C12   C     C_R   0.391468 0.500554 0.501203 0.922572
C13   C     C_R   0.296208 0.591467 0.554610 0.366911
C14   C     C_R   0.329367 0.491598 0.507877 -0.258296
C15   C     C_R   0.303960 0.377573 0.484783 0.199357
C16   C     C_R   0.244555 0.363845 0.508310 0.349791
C17   C     C_R   0.209953 0.469444 0.536059 0.118969
C18   C     C_R   0.758789 0.384645 0.552345 0.385398
C19   C     C_R   0.699273 0.385760 0.527902 0.268385
C20   C     C_R   0.670941 0.497179 0.501605 -0.354677
C21   C     C_R   0.701349 0.606524 0.507478 0.251416
C22   C     C_R   0.760318 0.601790 0.527423 0.404460
C23   C     C_R   0.496557 0.734416 0.501086 0.710446
C24   C     C_R   0.789954 0.488390 0.512674 -0.027082
C25   C     C_2   0.498787 0.930874 0.390788 -0.277215
C26   C     C_2   0.486334 0.867309 0.503156 0.380958
C27   C     C_2   0.492402 0.065346 0.388695 0.416632
C28   C     C_2   0.513473 0.131274 0.493519 0.284400
C29   C     C_2   0.453427 0.486901 0.922389 0.586526
C30   C     C_2   0.455940 0.465294 0.078821 0.629060
C31   C     C_R   0.608535 0.500875 0.499803 0.934848
C32   C     C_R   0.880785 0.581717 0.436470 0.631022
C33   C     C_R   0.880522 0.371044 0.481143 0.630418
C34   C     C_R   0.939725 0.367999 0.494865 -0.057625
C35   C     C_R   0.969878 0.476901 0.480322 -0.095852
C36   C     C_R   0.940793 0.584915 0.445069 -0.194029
Cu1   Cu    Cu3+1 0.500010 0.500020 0.638630 0.990592
Cu2   Cu    Cu3+1 0.499990 0.499980 0.361370 0.998910
H1    H     H_    0.947253 0.172243 0.524135 0.190566
H2    H     H_    0.516879 0.885190 0.302096 0.105556
H3    H     H_    0.212617 0.658839 0.597608 0.194185
N1    N     N_R   0.851275 0.480946 0.480191 -0.435341
N2    N     N_R   0.147931 0.471226 0.523410 -0.435927
N3    N     N_2   0.499380 0.498660 0.846910 -0.026332
N4    N     N_2   0.499370 0.498630 0.153040 -0.029696
O1    O     O_R   0.500010 0.321960 0.617040 -0.586418
O2    O     O_2   0.853506 0.265023 0.460100 -0.572366
O3    O     O_2   0.135832 0.300624 0.664283 -0.528456
O4    O     O_2   0.151023 0.657106 0.401768 -0.512868
O5    O     O_R   0.499990 0.321920 0.382900 -0.553160
O6    O     O_R   0.417890 0.499980 0.617100 -0.555569
O7    O     O_R   0.417870 0.499940 0.382950 -0.531828
O8    O     O_R   0.500010 0.678080 0.617100 -0.596438
O9    O     O_R   0.499990 0.678040 0.382960 -0.593785
O10   O     O_R   0.582130 0.500060 0.617050 -0.577075
O11   O     O_R   0.582110 0.500020 0.382900 -0.634081
O12   O     O_2   0.852961 0.675107 0.377286 -0.488159
O13   O     O_3   0.667966 0.280905 0.539936 -0.604220
C37   C     C_3   0.662975 0.227698 0.409976 -0.378592
H4    H     H_    0.704961 0.215931 0.357675 0.168298
H5    H     H_    0.633875 0.282600 0.345947 0.175989
H6    H     H_    0.644831 0.135583 0.421799 0.219573
O14   O     O_3   0.672781 0.717781 0.514851 -0.591098
C38   C     C_3   0.669930 0.770096 0.384180 0.077114
H7    H     H_    0.627009 0.812868 0.374612 0.143355
H8    H     H_    0.674732 0.702283 0.299406 0.096974
C39   C     C_3   0.714314 0.870325 0.368080 -0.270665
H9    H     H_    0.709304 0.938200 0.451772 0.221215
H10   H     H_    0.757803 0.830021 0.372381 0.285252
C40   C     C_3   0.707972 0.935085 0.232549 -0.986500
H11   H     H_    0.714874 0.869674 0.147244 0.267883
H12   H     H_    0.739930 0.008574 0.224733 0.270364
H13   H     H_    0.664819 0.976337 0.224179 0.258181
O15   O     O_3   0.786173 0.706174 0.576820 -0.557808
C41   C     C_3   0.804950 0.688310 0.711674 0.092929
H14   H     H_    0.830431 0.769185 0.740260 0.164494
H15   H     H_    0.834100 0.607820 0.719962 0.139673
C42   C     C_3   0.754811 0.678084 0.812399 -0.390346
H16   H     H_    0.724202 0.754763 0.797103 0.250443
H17   H     H_    0.732051 0.591145 0.794513 0.206401
C43   C     C_3   0.775266 0.680188 0.958872 -0.907253
H18   H     H_    0.806210 0.604429 0.976037 0.268776
H19   H     H_    0.738349 0.668702 0.028490 0.245900
H20   H     H_    0.795790 0.768605 0.982414 0.261383
O16   O     O_3   0.455184 0.925587 0.607138 -0.597515
C44   C     C_3   0.476015 0.897860 0.737544 -0.264049
H21   H     H_    0.523110 0.884371 0.739495 0.191936
H22   H     H_    0.454267 0.817230 0.779496 0.162520
H23   H     H_    0.465221 0.975172 0.806772 0.153765
O17   O     O_3   0.465791 0.122540 0.280211 -0.618365
C45   C     C_3   0.496767 0.102457 0.157561 0.066091
H24   H     H_    0.474363 0.153549 0.076543 0.166473
H25   H     H_    0.495954 0.004864 0.126129 0.128897
C46   C     C_3   0.558354 0.149476 0.164983 -0.369214
H26   H     H_    0.557900 0.248217 0.190400 0.249905
H27   H     H_    0.582038 0.099091 0.243735 0.189767
C47   C     C_3   0.590553 0.132131 0.032366 -0.987963
H28   H     H_    0.588033 0.035873 0.996858 0.254402
H29   H     H_    0.636011 0.155656 0.046643 0.263524
H30   H     H_    0.572360 0.194895 0.956656 0.286252
O18   O     O_3   0.553571 0.070993 0.574283 -0.618895
C48   C     C_3   0.564504 0.129018 0.698330 -0.282956
H31   H     H_    0.524621 0.143392 0.758024 0.176995
H32   H     H_    0.587607 0.215342 0.683904 0.232417
H33   H     H_    0.592812 0.067883 0.756775 0.187206
O19   O     O_3   0.401152 0.477314 0.860496 -0.625414
C49   C     C_3   0.388454 0.352130 0.841962 -0.316601
H34   H     H_    0.377109 0.307450 0.938727 0.163576
H35   H     H_    0.423950 0.300175 0.792451 0.197131
H36   H     H_    0.350809 0.345165 0.775137 0.180594
O20   O     O_3   0.538814 0.417617 0.893408 -0.563364
C50   C     C_3   0.594475 0.461533 0.877589 -0.092505
H37   H     H_    0.596554 0.560724 0.854578 0.167352
H38   H     H_    0.618036 0.404036 0.802640 0.163367
H39   H     H_    0.618550 0.442740 0.970741 0.098875
O21   O     O_3   0.409112 0.415274 0.142365 -0.618000
C51   C     C_3   0.362421 0.498984 0.139496 -0.324818
H40   H     H_    0.337160 0.489929 0.045902 0.198616
H41   H     H_    0.375442 0.595421 0.155983 0.173085
H42   H     H_    0.332400 0.476641 0.222345 0.181367
O22   O     O_3   0.057838 0.149029 0.546790 -0.588844
C52   C     C_3   0.072698 0.112411 0.413140 -0.287869
H43   H     H_    0.102219 0.033032 0.416920 0.210856
H44   H     H_    0.095646 0.185088 0.357256 0.164162
H45   H     H_    0.034290 0.084024 0.356086 0.171712
O23   O     O_3   0.522293 0.599639 0.096484 -0.560558
C53   C     C_3   0.577809 0.618704 0.142687 -0.120432
H46   H     H_    0.577401 0.678469 0.232792 0.172456
H47   H     H_    0.601239 0.670284 0.064267 0.093921
H48   H     H_    0.602032 0.532899 0.158762 0.152710
O24   O     O_3   0.059678 0.801923 0.452887 -0.584476
C54   C     C_3   0.071582 0.828662 0.590989 0.097158
H49   H     H_    0.106213 0.896273 0.593025 0.179228
H50   H     H_    0.088369 0.748507 0.647660 0.106664
C55   C     C_3   0.019112 0.882589 0.664949 -0.312399
H51   H     H_    0.999157 0.954949 0.602363 0.277104
H52   H     H_    0.987232 0.809919 0.680918 0.197390
C56   C     C_3   0.035001 0.936280 0.802688 -0.891410
H53   H     H_    0.054133 0.864522 0.867631 0.244473
H54   H     H_    0.996181 0.973532 0.854009 0.252080
H55   H     H_    0.065892 0.011377 0.790004 0.293529
O25   O     O_3   0.944352 0.802791 0.401511 -0.539382
C57   C     C_3   0.952751 0.836474 0.265149 -0.213843
H56   H     H_    0.927235 0.920342 0.245696 0.181415
H57   H     H_    0.937834 0.764347 0.193960 0.154631
H58   H     H_    0.998097 0.857942 0.243941 0.166836
O26   O     O_3   0.318179 0.707987 0.564138 -0.610230
C58   C     C_3   0.340618 0.733053 0.694458 0.080258
H59   H     H_    0.350680 0.831805 0.696477 0.191295
H60   H     H_    0.381555 0.684620 0.708988 0.190698
C59   C     C_3   0.300212 0.707364 0.814451 -0.387330
H61   H     H_    0.257217 0.745471 0.794351 0.222043
H62   H     H_    0.296561 0.607249 0.828684 0.232239
C60   C     C_3   0.322640 0.763895 0.945234 -0.917778
H63   H     H_    0.366709 0.730815 0.964680 0.255737
H64   H     H_    0.294820 0.738346 0.031725 0.265832
H65   H     H_    0.322890 0.864936 0.937711 0.257554
O27   O     O_3   0.338831 0.277044 0.455648 -0.621363
C61   C     C_3   0.327027 0.226897 0.325981 0.121597
H66   H     H_    0.361869 0.253013 0.256797 0.238698
H67   H     H_    0.286128 0.258981 0.280615 0.129548
C62   C     C_3   0.327117 0.087324 0.333006 -0.289436
H68   H     H_    0.364988 0.054646 0.389735 0.260718
H69   H     H_    0.288484 0.056799 0.387289 0.220248
C63   C     C_3   0.327730 0.029105 0.191797 -0.912814
H70   H     H_    0.289406 0.058160 0.134435 0.250441
H71   H     H_    0.327636 0.928200 0.201256 0.271648
H72   H     H_    0.366561 0.055464 0.134700 0.262736
O28   O     O_3   0.221031 0.248349 0.502287 -0.588526
C64   C     C_3   0.239937 0.179690 0.615746 0.135046
H73   H     H_    0.234973 0.233144 0.712075 0.158198
H74   H     H_    0.285484 0.152872 0.605961 0.158837
C65   C     C_3   0.205614 0.062316 0.626841 -0.318951
H75   H     H_    0.159481 0.083719 0.625750 0.291376
H76   H     H_    0.215326 0.001189 0.539032 0.210126
C66   C     C_3   0.218865 0.995372 0.757822 -0.940177
H77   H     H_    0.207791 0.053710 0.847131 0.267507
H78   H     H_    0.264820 0.970764 0.761080 0.262373
H79   H     H_    0.193191 0.911148 0.762841 0.251078
O29   O     O_3   0.783152 0.315303 0.655842 -0.607946
C67   C     C_3   0.769677 0.189818 0.655080 0.227599
H80   H     H_    0.810376 0.138239 0.667022 0.162569
H81   H     H_    0.752043 0.155789 0.558158 0.171167
C68   C     C_3   0.731935 0.160255 0.777670 -0.374359
H82   H     H_    0.754400 0.186557 0.872149 0.215509
H83   H     H_    0.691435 0.213365 0.774609 0.243702
C69   C     C_3   0.718780 0.024387 0.782670 -0.919907
H84   H     H_    0.694437 0.996577 0.691654 0.281701
H85   H     H_    0.692858 0.004980 0.874417 0.256897
H86   H     H_    0.758939 0.969926 0.787310 0.260957

loop_
_geom_bond_atom_site_label_1
_geom_bond_atom_site_label_2
_ccdc_geom_bond_type
C55   C56   S    
C53   H47   S    
C63   H70   S    
C43   H20   S    
C57   H58   S    
C24   N1    S    
O28   C64   S    
C30   N4    D    
C35   C36   A    
C58   C59   S    
C12   O6    A    
C50   H38   S    
C43   H18   S    
C7    C8    A    
C30   O21   S    
C67   H80   S    
O21   C51   S    
O23   C53   S    
C27   O17   S    
C18   C24   A    
C33   N1    A    
C32   C36   A    
Cu1   Cu2   S    
C58   H60   S    
C18   C19   A    
C51   H41   S    
C25   H2    S    
C5    C6    A    
Cu1   O6    S    
C69   H85   S    
C42   H17   S    
C1    O1    A    
C59   C60   S    
Cu2   O7    S    
O19   C49   S    
C15   C16   A    
C47   H28   S    
C68   H82   S    
C48   H33   S    
C57   H57   S    
C34   C35   A    
C8    C36   A    
C23   C26   S    
C57   H56   S    
C69   H86   S    
O26   C58   S    
C47   H29   S    
C28   O18   S    
C66   H79   S    
O20   C50   S    
C16   C17   A    
Cu2   N4    S    
C1    C28   S    
C59   H61   S    
C61   H67   S    
C40   H11   S    
C31   O11   A    
C1    O5    A    
C7    O24   S    
Cu1   O8    S    
C2    C34   A    
C66   H78   S    
C18   O29   S    
C37   H4    S    
C63   H71   S    
C65   H75   S    
C21   C22   A    
C49   H35   S    
C48   H31   S    
C32   O12   S    
C16   O28   S    
C50   H37   S    
C43   H19   S    
O18   C48   S    
C23   O8    A    
C62   H69   S    
C65   H76   S    
C19   O13   S    
C37   H5    S    
C9    N2    A    
O15   C41   S    
C39   H9    S    
C38   C39   S    
C54   C55   S    
C55   H51   S    
C58   H59   S    
C60   H65   S    
C51   H42   S    
C45   H24   S    
C42   H16   S    
C54   H49   S    
C46   C47   S    
C25   C26   D    
O16   C44   S    
C44   H23   S    
C39   H10   S    
C38   H8    S    
C46   H27   S    
C41   H14   S    
C17   N2    S    
C29   C30   S    
C45   H25   S    
C62   C63   S    
C2    H1    S    
N3    O20   S    
C61   H66   S    
Cu2   O9    S    
N4    O23   S    
C49   H34   S    
C40   H13   S    
C14   C15   A    
C33   C34   A    
O22   C52   S    
C61   C62   S    
C4    C9    A    
C48   H32   S    
C41   H15   S    
C60   H63   S    
C56   H54   S    
C15   O27   S    
C66   H77   S    
C12   C14   S    
O24   C54   S    
C63   H72   S    
C29   N3    D    
O27   C61   S    
C33   O2    S    
C49   H36   S    
C22   C24   A    
C29   O19   S    
C13   O26   S    
C52   H44   S    
C3    C4    A    
C47   H30   S    
O29   C67   S    
C23   O9    A    
C62   H68   S    
C67   C68   S    
C55   H52   S    
C11   C17   A    
C37   H6    S    
C32   N1    A    
C10   N2    A    
C44   H21   S    
C60   H64   S    
C4    C5    A    
C56   H55   S    
C6    C10   A    
C8    O25   S    
C6    C7    A    
Cu2   O5    S    
C25   C27   S    
C12   O7    A    
C68   C69   S    
C39   C40   S    
C38   H7    S    
C19   C20   A    
C2    C3    A    
O13   C37   S    
C53   H48   S    
C69   H84   S    
C51   H40   S    
C45   C46   S    
C11   C13   A    
C42   C43   S    
O17   C45   S    
C64   H74   S    
C52   H45   S    
C26   O16   S    
C5    C35   A    
C65   C66   S    
C68   H83   S    
C11   H3    S    
C44   H22   S    
C59   H62   S    
C46   H26   S    
C41   C42   S    
C21   O14   S    
C56   H53   S    
O14   C38   S    
Cu1   O10   S    
Cu1   N3    S    
C3    O22   S    
C67   H81   S    
Cu2   O11   S    
C20   C21   A    
C9    O3    S    
C54   H50   S    
C64   H73   S    
C27   C28   D    
C52   H43   S    
C22   O15   S    
O25   C57   S    
C40   H12   S    
C31   O10   A    
Cu1   O1    S    
C13   C14   A    
C10   O4    S    
C20   C31   S    
C50   H39   S    
C53   H46   S    
C64   C65   S    
