data_mof_unit_2833.cif
_audit_creation_date              2012-12-11T14:53:42-0500
_audit_creation_method            fapswitch 2.2
_symmetry_space_group_name_H-M    P1
_symmetry_Int_Tables_number       1
_space_group_crystal_system       triclinic
_cell_length_a                    6.940616
_cell_length_b                    23.105427
_cell_length_c                    23.526716
_cell_angle_alpha                 112.261048
_cell_angle_beta                  89.299959
_cell_angle_gamma                 90.283041
_cell_volume                      3491.41959346

loop_
_atom_site_label
_atom_site_type_symbol
_atom_type_description
_atom_site_fract_x
_atom_site_fract_y
_atom_site_fract_z
_atom_type_partial_charge
O1    O     O_R   0.494720 0.434890 0.424760 -0.533453
O2    O     O_R   0.819720 0.445970 0.545570 -0.515514
O3    O     O_R   0.993930 0.565110 0.575240 -0.548497
C1    C     C_R   0.650241 0.434032 0.562835 0.746938
O4    O     O_R   0.824180 0.427610 0.423390 -0.524373
O5    O     O_R   0.998420 0.546620 0.452190 -0.491848
C2    C     C_R   0.657880 0.410668 0.398042 0.798631
O6    O     O_R   0.490230 0.453380 0.547810 -0.522367
O7    O     O_3   0.662090 0.539070 0.509590 -0.355445
V1    V     V_3+5 0.935410 0.492750 0.498220 1.744911
O8    O     O_R   0.328360 0.554030 0.454430 -0.506045
C3    C     C_R   0.160144 0.565601 0.436915 0.963268
O9    O     O_R   0.323900 0.572390 0.576610 -0.528599
C4    C     C_R   0.154630 0.591495 0.599812 0.817876
V2    V     V_3+5 0.435890 0.507250 0.501780 1.733183
O10   O     O_3   0.159350 0.460930 0.490410 -0.369295
C5    C     C_R   0.088552 0.857534 0.838364 -0.194281
C6    C     C_R   0.146804 0.645918 0.659181 -0.240753
C7    C     C_R   0.169472 0.683332 0.771046 0.479903
C8    C     C_R   0.167766 0.634523 0.713075 -0.292691
C9    C     C_R   0.127303 0.708277 0.662849 0.398928
C10   C     C_R   0.104476 0.757358 0.721754 -0.109772
C11   C     C_R   0.136293 0.745641 0.776054 -0.032712
C12   C     C_R   0.131861 0.796583 0.833716 -0.148332
C13   C     C_R   0.043239 0.867814 0.784781 0.400848
C14   C     C_R   0.047168 0.817838 0.727859 -0.061653
H1    H     H_    0.159425 0.789736 0.875832 0.199692
H2    H     H_    0.997285 0.826469 0.688609 0.237692
H3    H     H_    0.187385 0.586758 0.709402 0.210307
C15   C     C_R   0.237233 0.853393 0.092553 -0.226919
H4    H     H_    0.346799 0.849790 0.058208 0.215800
C16   C     C_R   0.252029 0.816395 0.128125 0.347362
C17   C     C_R   0.107297 0.820686 0.173107 -0.330867
C18   C     C_R   0.955960 0.864042 0.181609 0.622297
C19   C     C_R   0.942061 0.899565 0.144978 0.585219
C20   C     C_R   0.082707 0.894673 0.100082 -0.326737
N1    N     N_R   0.040111 0.805244 0.270557 -0.177981
N2    N     N_R   0.043768 0.771350 0.305561 -0.169422
C21   C     C_R   0.118859 0.712671 0.283666 0.629443
N3    N     N_R   0.186759 0.688959 0.224923 -0.224107
N4    N     N_R   0.180529 0.722620 0.189737 -0.155533
C22   C     C_R   0.110128 0.781951 0.211939 0.606947
C23   C     C_R   0.290652 0.638269 0.320416 -0.207935
H5    H     H_    0.409418 0.636600 0.289525 0.228197
C24   C     C_R   0.303198 0.603669 0.358044 0.636572
C25   C     C_R   0.150839 0.604215 0.398448 -0.416890
C26   C     C_R   0.986971 0.641026 0.400555 0.571423
C27   C     C_R   0.977253 0.676817 0.363973 0.613754
C28   C     C_R   0.128606 0.675501 0.323191 -0.295299
C29   C     C_R   0.468867 0.393716 0.634413 0.610147
C30   C     C_R   0.460798 0.358813 0.671835 -0.173644
H6    H     H_    0.327893 0.358571 0.696354 0.191984
C31   C     C_R   0.622768 0.325892 0.678731 -0.162253
C32   C     C_R   0.792691 0.327927 0.646493 -0.187384
H7    H     H_    0.919680 0.302673 0.650375 0.188725
C33   C     C_R   0.801109 0.361871 0.608223 0.598511
C34   C     C_R   0.639486 0.395811 0.601848 -0.321979
N5    N     N_R   0.779264 0.270066 0.737342 -0.246883
N6    N     N_R   0.772328 0.238548 0.774518 -0.210810
C35   C     C_R   0.601136 0.225634 0.795880 0.588820
N7    N     N_R   0.437152 0.244609 0.777151 -0.176570
N8    N     N_R   0.443747 0.276439 0.740266 -0.252076
C36   C     C_R   0.615074 0.290021 0.719629 0.576754
C37   C     C_R   0.442657 0.193106 0.878749 0.471624
C38   C     C_R   0.439543 0.152225 0.910474 -0.201894
H8    H     H_    0.320528 0.154452 0.941420 0.170281
C39   C     C_R   0.591156 0.110226 0.904756 -0.127282
C40   C     C_R   0.748038 0.109945 0.866717 -0.044282
H9    H     H_    0.869628 0.079815 0.862674 0.180693
C41   C     C_R   0.747403 0.147158 0.831728 -0.074889
H10   H     H_    0.866747 0.142647 0.800283 0.201867
C42   C     C_R   0.595007 0.188776 0.836260 -0.119498
C43   C     C_R   0.574824 0.145312 0.160765 -0.089066
C44   C     C_R   0.660687 0.357849 0.336482 -0.256490
C45   C     C_R   0.830832 0.296678 0.240294 0.570883
C46   C     C_R   0.809871 0.352490 0.292503 0.280496
C47   C     C_R   0.524721 0.309209 0.323254 -0.215707
C48   C     C_R   0.541014 0.254777 0.269325 0.077368
C49   C     C_R   0.697808 0.247693 0.228286 -0.044921
C50   C     C_R   0.715690 0.192449 0.174837 -0.125916
C51   C     C_R   0.418975 0.153327 0.201960 -0.107624
C52   C     C_R   0.403406 0.206927 0.255847 -0.054670
H11   H     H_    0.834042 0.187175 0.142786 0.178181
H12   H     H_    0.307680 0.117947 0.192237 0.127677
H13   H     H_    0.281656 0.211378 0.286494 0.120537
H14   H     H_    0.408757 0.313033 0.355782 0.161910
O11   O     O_R   0.743670 0.046700 0.952260 -0.539434
O12   O     O_R   0.409540 0.072400 0.076630 -0.545580
O13   O     O_R   0.235480 0.953360 0.047790 -0.547217
C53   C     C_R   0.576389 0.090647 0.101018 0.714829
O14   O     O_R   0.414170 0.054050 0.954440 -0.549652
O15   O     O_R   0.240140 0.934880 0.924740 -0.534627
C54   C     C_R   0.583456 0.067532 0.938892 0.783469
O16   O     O_R   0.739000 0.065180 0.075310 -0.539960
O17   O     O_3   0.571870 0.960980 0.990450 -0.355950
V3    V     V_3+5 0.298470 0.007240 0.001770 1.504923
O18   O     O_R   0.910180 0.927540 0.923320 -0.521632
C55   C     C_R   0.079638 0.909153 0.899618 0.739122
O19   O     O_R   0.905550 0.945890 0.045500 -0.505826
C56   C     C_R   0.073664 0.933903 0.062478 0.805698
V4    V     V_3+5 0.798010 0.992650 0.998130 1.587818
O20   O     O_3   0.074480 0.039020 0.009550 -0.393144
F1    F     F_    0.793209 0.940275 0.154848 -0.639531
F2    F     F_    0.462641 0.568403 0.353612 -0.616625
F3    F     F_    0.835990 0.643036 0.438499 -0.556725
F4    F     F_    0.816909 0.711411 0.367219 -0.583910
F5    F     F_    0.310358 0.426649 0.631590 -0.626862
F6    F     F_    0.967673 0.360586 0.576954 -0.626583
S1    S     S_3+6 0.262840 0.251828 0.897941 0.062009
O21   O     O_2   0.117877 0.234691 0.847372 -0.317843
O22   O     O_2   0.161797 0.257939 0.956837 -0.297638
O23   O     O_3   0.364936 0.320779 0.906533 -0.462722
H15   H     H_    0.255448 0.349476 0.910632 0.399125
S2    S     S_3+6 0.980436 0.942834 0.787320 0.048031
O24   O     O_2   0.962567 0.942690 0.723659 -0.250847
O25   O     O_2   0.789744 0.961266 0.820011 -0.355541
O26   O     O_3   0.151472 0.994813 0.824689 -0.488067
H16   H     H_    0.109732 0.012293 0.868283 0.316493
F7    F     F_    0.980654 0.290147 0.200593 -0.611426
S3    S     S_3+6 0.965311 0.416168 0.299372 0.084532
O27   O     O_2   0.131270 0.416347 0.339841 -0.329466
O28   O     O_2   0.043729 0.410811 0.237727 -0.233853
O29   O     O_3   0.844595 0.484041 0.330568 -0.490189
H17   H     H_    0.743603 0.481757 0.300416 0.379744
S4    S     S_3+6 0.207994 0.663824 0.836029 0.066244
O30   O     O_2   0.383596 0.697643 0.869333 -0.296938
O31   O     O_2   0.035659 0.683542 0.878293 -0.288208
O32   O     O_3   0.241162 0.586341 0.814747 -0.477764
H18   H     H_    0.257595 0.579889 0.853703 0.402214
S5    S     S_3+6 0.150500 0.724802 0.594654 0.044538
O33   O     O_2   0.956872 0.717696 0.564910 -0.280630
O34   O     O_2   0.224858 0.789957 0.608673 -0.282481
O35   O     O_3   0.307624 0.675513 0.545241 -0.510283
H19   H     H_    0.332811 0.693315 0.513613 0.378845
S6    S     S_3+6 0.458635 0.767834 0.115810 0.148421
O36   O     O_2   0.401904 0.701788 0.077445 -0.222828
O37   O     O_2   0.613064 0.788342 0.082134 -0.294207
O38   O     O_3   0.548389 0.769784 0.182639 -0.433509
H20   H     H_    0.512141 0.811304 0.213438 0.364371
F8    F     F_    0.819422 0.872383 0.225733 -0.607222

loop_
_geom_bond_atom_site_label_1
_geom_bond_atom_site_label_2
_ccdc_geom_bond_type
S6    O38   S    
O12   V3    S    
V4    O20   S    
V3    O20   S    
C6    C9    A    
N4    C22   A    
C4    C6    S    
S5    O34   D    
O17   V3    S    
C12   H1    S    
C1    O6    A    
O32   H18   S    
S2    O24   D    
O15   C55   A    
S6    O36   D    
C47   C48   A    
N8    C36   A    
C44   C46   A    
C17   C22   S    
C43   C53   S    
C19   F1    S    
S1    O22   D    
O5    C3    A    
C15   H4    S    
C35   C42   S    
V2    O10   S    
O18   C55   A    
O15   V3    S    
C33   C34   A    
C18   C19   A    
N1    C22   A    
C33   F6    S    
O14   V3    S    
O11   V4    S    
O8    V2    S    
C27   F4    S    
C19   C20   A    
O16   V4    S    
C40   H9    S    
C26   F3    S    
C44   C47   A    
C1    C34   S    
S4    O32   S    
C11   C12   A    
C41   H10   S    
O1    V2    S    
O7    V1    S    
S3    O29   S    
S4    O30   D    
N6    C35   A    
O9    C4    A    
C50   H11   S    
O26   H16   S    
C43   C51   A    
O23   H15   S    
S3    O28   D    
C53   O16   A    
C2    C44   S    
C8    H3    S    
C32   C33   A    
C5    C12   A    
O13   C56   A    
C39   C40   A    
S2    O26   S    
O29   H17   S    
C45   F7    S    
C3    C25   S    
S1    O23   S    
C21   N3    A    
O4    C2    A    
C48   C49   A    
C23   C28   A    
C38   C39   A    
C13   C14   A    
C31   C32   A    
C7    S4    S    
C51   C52   A    
C30   H6    S    
C35   N7    A    
C30   C31   A    
O2    C1    A    
C45   C46   A    
N1    N2    A    
C24   F2    S    
O14   C54   A    
O35   H19   S    
C48   C52   A    
C26   C27   A    
C29   C30   A    
C20   C56   S    
C46   S3    S    
C23   C24   A    
O3    C4    A    
N3    N4    A    
C21   C28   S    
O12   C53   A    
C47   H14   S    
O6    V2    S    
O9    V2    S    
C23   H5    S    
C29   F5    S    
S5    O35   S    
O2    V1    S    
C51   H12   S    
S3    O27   D    
C7    C11   A    
C39   C54   S    
C5    C55   S    
N5    C36   A    
S6    O37   D    
C25   C26   A    
C27   C28   A    
O19   V4    S    
O1    C2    A    
C29   C34   A    
O5    V1    S    
C32   H7    S    
S2    O25   D    
O8    C3    A    
C52   H13   S    
C14   H2    S    
O19   C56   A    
C15   C20   A    
C5    C13   A    
C16   C17   A    
C7    C8    A    
S5    O33   D    
N5    N6    A    
O4    V1    S    
O3    V1    S    
V1    O10   S    
C13   S2    S    
C37   C38   A    
C15   C16   A    
C31   C36   S    
C37   S1    S    
N2    C21   A    
O13   V3    S    
O11   C54   A    
C18   F8    S    
C43   C50   A    
C17   C18   A    
C6    C8    A    
C37   C42   A    
O7    V2    S    
N7    N8    A    
C9    S5    S    
C16   S6    S    
O38   H20   S    
C49   C50   A    
C24   C25   A    
C40   C41   A    
C38   H8    S    
C10   C14   A    
S1    O21   D    
S4    O31   D    
C10   C11   A    
C41   C42   A    
C9    C10   A    
C45   C49   A    
O18   V4    S    
O17   V4    S    
