data_mof_unit_2095.cif
_audit_creation_date              2013-03-05T15:47:46-0500
_audit_creation_method            fapswitch 2.2
_symmetry_space_group_name_H-M    P1
_symmetry_Int_Tables_number       1
_space_group_crystal_system       triclinic
_cell_length_a                    21.579287
_cell_length_b                    7.20618
_cell_length_c                    18.679737
_cell_angle_alpha                 89.64543
_cell_angle_beta                  95.977988
_cell_angle_gamma                 89.74217
_cell_volume                      2888.88784193

loop_
_atom_site_label
_atom_site_type_symbol
_atom_site_description
_atom_site_fract_x
_atom_site_fract_y
_atom_site_fract_z
_atom_type_partial_charge
O1    O     O_R   0.449650 0.506500 0.414480 -0.580402
O2    O     O_R   0.550350 0.006500 0.585520 -0.583017
O3    O     O_R   0.432010 0.173150 0.560250 -0.590816
O4    O     O_R   0.567990 0.673150 0.439750 -0.594852
C1    C     C_R   0.415840 0.344516 0.580456 0.913597
C2    C     C_R   0.584478 0.844716 0.420002 0.918205
O5    O     O_R   0.442320 0.176650 0.413480 -0.579019
O6    O     O_R   0.557680 0.676650 0.586520 -0.583469
O7    O     O_R   0.560730 0.008380 0.437700 -0.585161
O8    O     O_R   0.439270 0.508380 0.562300 -0.577805
C3    C     C_R   0.428626 0.345770 0.387578 0.941049
C4    C     C_R   0.571812 0.844036 0.612148 0.940300
O9    O     O_3   0.538840 0.339860 0.508120 -0.286940
O10   O     O_3   0.461160 0.839860 0.491880 -0.278846
V1    V     V_3+5 0.492800 0.064220 0.498490 1.187585
V2    V     V_3+5 0.507200 0.564220 0.501510 1.186396
C5    C     C_R   0.869341 0.039768 0.693186 0.356137
C6    C     C_R   0.125846 0.469501 0.310736 0.362100
C7    C     C_R   0.886716 0.948447 0.819281 -0.159394
C8    C     C_R   0.112953 0.439858 0.180550 -0.154563
C9    C     C_R   0.590674 0.755709 0.739197 -0.236717
C10   C     C_R   0.415197 0.333208 0.255351 -0.249673
C11   C     C_R   0.629608 0.714043 0.801622 0.402965
C12   C     C_R   0.379715 0.339282 0.188264 0.405877
C13   C     C_R   0.692480 0.765762 0.806646 -0.269713
C14   C     C_R   0.314997 0.366406 0.185069 -0.266027
C15   C     C_R   0.717782 0.858817 0.749439 0.074139
C16   C     C_R   0.284442 0.387080 0.248108 0.068960
C17   C     C_R   0.677375 0.895051 0.685035 0.119435
C18   C     C_R   0.321827 0.381745 0.315986 0.118869
C19   C     C_R   0.782342 0.911066 0.753299 0.091577
C20   C     C_R   0.218063 0.413083 0.245853 0.089687
C21   C     C_R   0.805586 0.990030 0.691218 -0.005259
C22   C     C_R   0.191006 0.438524 0.311664 -0.011360
C23   C     C_R   0.764402 0.024250 0.629114 -0.133191
C24   C     C_R   0.229144 0.428160 0.377315 -0.128342
C25   C     C_R   0.701821 0.977822 0.626072 -0.219774
C26   C     C_R   0.293037 0.401098 0.379434 -0.202987
C27   C     C_R   0.824383 0.891482 0.817090 -0.190651
C28   C     C_R   0.177441 0.413883 0.180615 -0.180735
C29   C     C_R   0.908454 0.022091 0.757484 -0.254540
C30   C     C_R   0.087801 0.467664 0.245336 -0.268162
C31   C     C_R   0.613573 0.842609 0.680389 -0.227302
C32   C     C_R   0.387384 0.354867 0.319053 -0.224751
H1    H     H_    0.809535 0.841258 0.866891 0.168185
H2    H     H_    0.194110 0.395188 0.128808 0.159246
H3    H     H_    0.720726 0.727756 0.855480 0.194995
H4    H     H_    0.289730 0.370690 0.132368 0.192187
C33   C     C_R   0.639104 0.718263 0.319062 -0.114402
C34   C     C_R   0.363521 0.219942 0.684127 -0.101902
C35   C     C_R   0.634232 0.855584 0.370999 -0.158820
C36   C     C_R   0.366544 0.354853 0.630170 -0.174431
C37   C     C_R   0.675100 0.007243 0.373633 -0.202055
C38   C     C_R   0.324375 0.504353 0.626198 -0.175016
C39   C     C_R   0.720538 0.021271 0.325201 0.218851
C40   C     C_R   0.279583 0.519242 0.675333 0.217981
C41   C     C_R   0.724474 0.884079 0.271938 0.064073
C42   C     C_R   0.276888 0.383512 0.730062 0.047018
C43   C     C_R   0.682686 0.733405 0.268063 -0.059206
C44   C     C_R   0.319277 0.232843 0.734641 -0.058549
C45   C     C_R   0.761242 0.172710 0.328282 -0.168486
C46   C     C_R   0.238260 0.670382 0.671358 -0.148542
C47   C     C_R   0.805603 0.188854 0.279311 -0.147011
C48   C     C_R   0.194419 0.687813 0.720778 -0.166315
C49   C     C_R   0.810314 0.053736 0.226328 0.204021
C50   C     C_R   0.190721 0.554039 0.775030 0.202556
C51   C     C_R   0.769485 0.900068 0.222069 0.011613
C52   C     C_R   0.232349 0.400918 0.780490 0.008511
C53   C     C_R   0.773044 0.764919 0.167723 -0.207455
C54   C     C_R   0.229686 0.267194 0.836200 -0.201556
C55   C     C_R   0.728255 0.619067 0.162184 0.221764
C56   C     C_R   0.275293 0.121979 0.842756 0.231117
C57   C     C_R   0.683913 0.603522 0.212241 0.197125
C58   C     C_R   0.318737 0.103681 0.791608 0.202718
C59   C     C_R   0.855425 0.071170 0.177895 -0.152532
C60   C     C_R   0.145465 0.571724 0.823182 -0.153129
C61   C     C_R   0.861967 0.936003 0.125588 -0.290884
C62   C     C_R   0.139095 0.436475 0.875994 -0.291816
C63   C     C_R   0.820551 0.782354 0.120191 0.358294
C64   C     C_R   0.181463 0.283780 0.882986 0.357824
H5    H     H_    0.671720 0.114093 0.413690 0.128467
H6    H     H_    0.326528 0.609639 0.584806 0.132307
H7    H     H_    0.758480 0.279705 0.368357 0.135713
H8    H     H_    0.240104 0.776150 0.630147 0.140938
O11   O     O_R   0.060820 0.290050 0.937800 -0.569158
O12   O     O_R   0.939180 0.790050 0.062200 -0.569373
O13   O     O_R   0.057690 0.616620 0.086540 -0.589823
O14   O     O_R   0.942310 0.116620 0.913460 -0.589213
C65   C     C_R   0.071489 0.448125 0.112482 0.959681
C66   C     C_R   0.928355 0.949713 0.887473 0.959259
O15   O     O_R   0.068010 0.619890 0.939770 -0.565790
O16   O     O_R   0.931990 0.119890 0.060230 -0.563042
O17   O     O_R   0.949640 0.787940 0.914460 -0.579399
O18   O     O_R   0.050360 0.287940 0.085540 -0.577559
C67   C     C_R   0.085878 0.450410 0.921084 0.964232
C68   C     C_R   0.914432 0.950420 0.079414 0.964225
O19   O     O_3   0.961210 0.453080 0.991940 -0.246582
O20   O     O_3   0.038790 0.953080 0.008060 -0.247479
V3    V     V_3+5 0.007200 0.728820 0.001500 1.280151
V4    V     V_3+5 0.992800 0.228820 0.998500 1.283924
H9    H     H_    0.956666 0.065097 0.759224 0.158520
H10   H     H_    0.038157 0.492313 0.244829 0.156858
H11   H     H_    0.836280 0.307856 0.282795 0.140400
H12   H     H_    0.163129 0.806353 0.716420 0.140930
H13   H     H_    0.887143 0.187775 0.182556 0.160084
H14   H     H_    0.113196 0.687983 0.817581 0.157165
N1    N     N_R   0.828180 0.642681 0.067502 0.254664
O21   O     O_R   0.818050 0.682909 0.999285 -0.385775
O22   O     O_R   0.853567 0.484102 0.087505 -0.375198
N2    N     N_R   0.173809 0.143994 0.936224 0.253890
O23   O     O_R   0.150657 0.983631 0.916516 -0.375581
O24   O     O_R   0.181316 0.185549 0.004254 -0.385238
N3    N     N_R   0.721495 0.500227 0.100816 0.286172
O25   O     O_R   0.734051 0.323923 0.107691 -0.299091
O26   O     O_R   0.694384 0.563816 0.040191 -0.239573
N4    N     N_R   0.280431 0.995772 0.902742 0.284315
O27   O     O_R   0.274285 0.818311 0.891879 -0.314782
O28   O     O_R   0.302966 0.054003 0.965884 -0.248451
N5    N     N_R   0.636041 0.465740 0.201504 0.259025
O29   O     O_R   0.649809 0.290291 0.208379 -0.341454
O30   O     O_R   0.578433 0.516106 0.184190 -0.305190
N6    N     N_R   0.364684 0.958187 0.800568 0.258176
O31   O     O_R   0.403835 0.950409 0.858399 -0.240806
O32   O     O_R   0.365422 0.827925 0.752789 -0.403800
H15   H     H_    0.779770 0.091509 0.582229 0.175802
H16   H     H_    0.209897 0.437957 0.428330 0.178120
N7    N     N_R   0.895412 0.108147 0.630443 0.232868
O33   O     O_R   0.888787 0.013813 0.570978 -0.366792
O34   O     O_R   0.935166 0.243853 0.636294 -0.360769
N8    N     N_R   0.097503 0.507924 0.375376 0.234415
O35   O     O_R   0.118547 0.642254 0.417219 -0.382424
O36   O     O_R   0.043997 0.434465 0.385019 -0.348773
H17   H     H_    0.542548 0.710709 0.734696 0.181688
H18   H     H_    0.465183 0.312520 0.258260 0.186036
N9    N     N_R   0.605872 0.610210 0.858679 0.258305
O37   O     O_R   0.643054 0.506367 0.901260 -0.280656
O38   O     O_R   0.546288 0.604943 0.864322 -0.281029
N10   N     N_R   0.409443 0.317749 0.123167 0.266259
O39   O     O_R   0.378135 0.342287 0.060381 -0.276277
O40   O     O_R   0.468181 0.273270 0.126024 -0.261881
H19   H     H_    0.672611 0.007651 0.576614 0.120067
H20   H     H_    0.319831 0.394918 0.431757 0.100054
H21   H     H_    0.607383 0.602040 0.317526 0.164152
H22   H     H_    0.397626 0.108933 0.687799 0.174714

loop_
_geom_bond_atom_site_label_1
_geom_bond_atom_site_label_2
_geom_bond_distance
_ccdc_geom_bond_type
C50   C52   1.416157 A    
C47   C49   1.403537 A    
C57   N5    1.435890 S    
C15   C17   1.432265 A    
N1    O22   1.300793 A    
C37   C39   1.405211 A    
O1    C3    1.328285 A    
O2    C4    1.331343 A    
C2    O7    1.340731 A    
N9    O37   1.300272 A    
O17   V3    1.983393 S    
O5    C3    1.329044 A    
C18   C26   1.401688 A    
C25   H19   1.082619 S    
C10   H18   1.083955 S    
C23   C25   1.388238 A    
C60   C62   1.399847 A    
C4    C31   1.482443 S    
C6    C30   1.399303 A    
C8    C28   1.403169 A    
C62   C64   1.424072 A    
C41   C43   1.411926 A    
C42   C44   1.412976 A    
C39   C45   1.401665 A    
O16   C68   1.338057 A    
N4    O27   1.301253 A    
C55   N3    1.430807 S    
C37   H5    1.084460 S    
C33   C35   1.401333 A    
C65   O18   1.325803 A    
C53   C55   1.428004 A    
N2    O23   1.301040 A    
C46   C48   1.394747 A    
C23   H15   1.081029 S    
C9    C31   1.396577 A    
C10   C32   1.396693 A    
N4    O28   1.300850 A    
C16   C18   1.430397 A    
C49   C51   1.415666 A    
C34   C36   1.402654 A    
N1    O21   1.300934 A    
C19   C21   1.426804 A    
C1    C36   1.485073 S    
C2    C35   1.483680 S    
C43   C57   1.407711 A    
C22   C24   1.405319 A    
C14   H4    1.074709 S    
C27   H1    1.076114 S    
O5    V1    1.995117 S    
O6    V2    2.007045 S    
N9    O38   1.301688 A    
C17   C31   1.423404 A    
C26   H20   1.083080 S    
C18   C32   1.422188 A    
C5    C21   1.420089 A    
C41   C51   1.418663 A    
C30   H10   1.084186 S    
C9    H17   1.084407 S    
C36   C38   1.403677 A    
O13   V3    1.994968 S    
N5    O30   1.300947 A    
C38   C40   1.404742 A    
C5    C29   1.398985 A    
C15   C19   1.439431 A    
C16   C20   1.440014 A    
C47   H11   1.083822 S    
C45   H7    1.083718 S    
C55   C57   1.410122 A    
C5    N7    1.437256 S    
C12   N10   1.441586 S    
C40   C42   1.416227 A    
C54   C64   1.431973 A    
C51   C53   1.418713 A    
C48   C50   1.402896 A    
O4    V2    1.995300 S    
N8    O36   1.301324 A    
N7    O34   1.301359 A    
O2    V1    1.981070 S    
C6    C22   1.421014 A    
C19   C27   1.426340 A    
O18   V4    1.990105 S    
C62   C67   1.496598 S    
O6    C4    1.325583 A    
C50   C60   1.400792 A    
C45   C47   1.395991 A    
C61   C63   1.423502 A    
C63   N1    1.432961 S    
C3    C32   1.481877 S    
O1    V2    1.987630 S    
O12   C68   1.326252 A    
O12   V3    1.995459 S    
C59   C61   1.400934 A    
O14   V4    2.006875 S    
C7    C27   1.404707 A    
C56   C58   1.412860 A    
C58   N6    1.436756 S    
O14   C66   1.324010 A    
C59   H13   1.084333 S    
C9    C11   1.394659 A    
C34   H22   1.081554 S    
C10   C12   1.399203 A    
C53   C63   1.429855 A    
O4    C2    1.347906 A    
C28   H2    1.075989 S    
C64   N2    1.433277 S    
N7    O33   1.301364 A    
C38   H6    1.084505 S    
O19   V4    1.749741 S    
O3    V1    1.996272 S    
O16   V4    1.995252 S    
C66   O17   1.328075 A    
N3    O25   1.300634 A    
C42   C52   1.419790 A    
C48   H12   1.083846 S    
C46   H8    1.083753 S    
C13   H3    1.076217 S    
C60   H14   1.084531 S    
C24   H16   1.081030 S    
C12   C14   1.404355 A    
O3    C1    1.348519 A    
C33   C43   1.410727 A    
C8    C30   1.392165 A    
N5    O29   1.299973 A    
N10   O40   1.301640 A    
C13   C15   1.416232 A    
C8    C65   1.477314 S    
C56   N4    1.433738 S    
C61   C68   1.496631 S    
C14   C16   1.416532 A    
C49   C59   1.401815 A    
C11   N9    1.437165 S    
C34   C44   1.413672 A    
C39   C41   1.415466 A    
N8    O35   1.301372 A    
O7    V1    1.986768 S    
C1    O8    1.342072 A    
C7    C66   1.480488 S    
O8    V2    1.986595 S    
C24   C26   1.388050 A    
O11   C67   1.327245 A    
C33   H21   1.082675 S    
C44   C58   1.410406 A    
C21   C23   1.405756 A    
C29   H9    1.084200 S    
C40   C46   1.401198 A    
C20   C28   1.425093 A    
N2    O24   1.301183 A    
C6    N8    1.437059 S    
N10   O39   1.301738 A    
C35   C37   1.405308 A    
O15   C67   1.338340 A    
C11   C13   1.402460 A    
C52   C54   1.419651 A    
O20   V3    1.756794 S    
O9    V2    1.750836 S    
C17   C25   1.401038 A    
O11   V4    1.995277 S    
O13   C65   1.325590 A    
O10   V1    1.757907 S    
C54   C56   1.429220 A    
O15   V3    1.996219 S    
N6    O31   1.301002 A    
N6    O32   1.300439 A    
C7    C29   1.393444 A    
C20   C22   1.427260 A    
N3    O26   1.299187 A    
