data_mof_unit_4394.cif
_audit_creation_date              2012-12-10T17:24:15-0500
_audit_creation_method            fapswitch 2.2
_symmetry_space_group_name_H-M    P1
_symmetry_Int_Tables_number       1
_space_group_crystal_system       triclinic
_cell_length_a                    19.341651
_cell_length_b                    10.846264
_cell_length_c                    9.57545
_cell_angle_alpha                 88.304375
_cell_angle_beta                  89.849403
_cell_angle_gamma                 92.719041
_cell_volume                      2005.62593207

loop_
_atom_site_label
_atom_site_type_symbol
_atom_type_description
_atom_site_fract_x
_atom_site_fract_y
_atom_site_fract_z
_atom_type_partial_charge
C1    C     C_R   0.496808 0.262194 0.502186 0.851912
C2    C     C_R   0.291551 0.495330 0.499697 -0.025881
C3    C     C_R   0.929639 0.486214 0.497637 0.409167
C4    C     C_R   0.069846 0.484118 0.497149 0.407412
C5    C     C_R   0.816714 0.485259 0.625016 -0.161735
C6    C     C_R   0.744870 0.490193 0.625572 -0.192077
C7    C     C_R   0.708489 0.498967 0.499299 -0.033425
C8    C     C_R   0.745199 0.502987 0.372470 -0.188556
C9    C     C_R   0.817060 0.498557 0.371926 -0.169649
C10   C     C_R   0.853547 0.489616 0.498189 0.057114
C11   C     C_R   0.405424 0.114316 0.699037 -0.246759
C12   C     C_R   0.367522 0.498872 0.500120 0.757031
C13   C     C_R   0.367057 0.044413 0.799459 0.239427
C14   C     C_R   0.365938 0.915492 0.798606 0.421045
C15   C     C_R   0.404002 0.857899 0.696088 -0.290333
C16   C     C_R   0.446122 0.927444 0.597841 0.017982
C17   C     C_R   0.447630 0.057864 0.600904 -0.026847
C18   C     C_R   0.491301 0.127386 0.505138 -0.233483
C19   C     C_R   0.528064 0.068214 0.402129 0.430017
C20   C     C_R   0.512272 0.943398 0.378107 0.117807
C21   C     C_R   0.483161 0.870418 0.490755 -0.219713
C22   C     C_R   0.594598 0.659247 0.139153 -0.127590
C23   C     C_R   0.494065 0.736985 0.497472 0.812012
C24   C     C_R   0.642457 0.734624 0.064653 -0.204376
C25   C     C_R   0.642545 0.735235 0.920765 -0.230771
C26   C     C_R   0.595123 0.659782 0.850649 -0.144003
C27   C     C_R   0.546944 0.577993 0.922506 0.218466
C28   C     C_R   0.546819 0.577896 0.072229 0.198032
C29   C     C_R   0.454489 0.427780 0.076709 -0.047550
C30   C     C_R   0.454451 0.427883 0.928643 -0.077142
C31   C     C_R   0.632527 0.501004 0.499753 0.756635
C32   C     C_R   0.254120 0.462529 0.621902 -0.203009
C33   C     C_R   0.181990 0.456892 0.620404 -0.168951
C34   C     C_R   0.146079 0.485853 0.497340 0.059327
C35   C     C_R   0.183702 0.518074 0.374933 -0.160782
C36   C     C_R   0.255782 0.522275 0.375991 -0.188698
Cu1   Cu    Cu3+1 0.500000 0.499990 0.640660 0.918096
Cu2   Cu    Cu3+1 0.500000 0.500010 0.359340 0.946046
H1    H     H_    0.280536 0.439693 0.718192 0.147191
H2    H     H_    0.400404 0.212831 0.698938 0.176423
H3    H     H_    0.398731 0.758843 0.693401 0.174001
H4    H     H_    0.417085 0.369167 0.134572 0.136363
H5    H     H_    0.596311 0.671008 0.248683 0.206623
H6    H     H_    0.678516 0.795446 0.119199 0.149674
H7    H     H_    0.678915 0.796157 0.862670 0.154269
H8    H     H_    0.598435 0.670946 0.740389 0.200040
H9    H     H_    0.154370 0.429664 0.715673 0.158007
H10   H     H_    0.416875 0.369490 0.875357 0.144406
H11   H     H_    0.157580 0.540764 0.278362 0.151226
H12   H     H_    0.283482 0.547551 0.280148 0.148913
H13   H     H_    0.843317 0.478547 0.724101 0.152924
H14   H     H_    0.717879 0.486449 0.724968 0.158943
H15   H     H_    0.718482 0.509390 0.273445 0.159112
H16   H     H_    0.843915 0.501848 0.272432 0.153784
N1    N     N_R   0.034684 0.501648 0.376267 -0.243270
N2    N     N_R   0.965951 0.502543 0.376491 -0.242510
N3    N     N_R   0.964795 0.468337 0.618470 -0.241550
N4    N     N_R   0.033524 0.467240 0.618221 -0.242835
N5    N     N_R   0.500660 0.501210 0.147910 -0.197301
N6    N     N_R   0.500680 0.501290 0.852040 -0.198417
O1    O     O_R   0.499990 0.319640 0.618810 -0.591217
O2    O     O_R   0.500000 0.319660 0.381240 -0.529370
O3    O     O_R   0.400140 0.499970 0.618820 -0.601352
O4    O     O_R   0.400150 0.500000 0.381250 -0.586965
O5    O     O_R   0.500000 0.680340 0.618760 -0.601140
O6    O     O_R   0.500010 0.680360 0.381190 -0.597589
O7    O     O_R   0.599850 0.500000 0.618750 -0.598271
O8    O     O_R   0.599860 0.500030 0.381180 -0.589476
N7    N     N_2   0.327579 0.105564 0.899315 -0.434132
H17   H     H_    0.278344 0.066388 0.913960 0.270634
C37   C     C_3   0.362897 0.124526 0.030311 -0.685174
H18   H     H_    0.369287 0.034750 0.086684 0.257513
H19   H     H_    0.332060 0.183773 0.096776 0.217929
H20   H     H_    0.414606 0.170849 0.011689 0.219050
O9    O     O_3   0.333068 0.849399 0.908169 -0.619264
C38   C     C_3   0.286971 0.755235 0.860066 0.033405
H21   H     H_    0.315716 0.670824 0.841223 0.160753
H22   H     H_    0.259816 0.784095 0.762542 0.137988
C39   C     C_3   0.232739 0.725291 0.974043 -0.317469
H23   H     H_    0.259041 0.699446 0.073017 0.221378
H24   H     H_    0.203054 0.808671 0.992248 0.221588
C40   C     C_3   0.182678 0.619519 0.934183 -0.916391
H25   H     H_    0.156130 0.642769 0.834793 0.269045
H26   H     H_    0.142966 0.603152 0.017426 0.260658
H27   H     H_    0.210987 0.533670 0.922812 0.249564
N8    N     N_2   0.519405 0.892284 0.241898 -0.426114
H28   H     H_    0.477812 0.833987 0.217487 0.280685
C41   C     C_3   0.538593 0.970324 0.120995 -0.594309
H29   H     H_    0.530226 0.917624 0.024178 0.219099
H30   H     H_    0.594370 0.998394 0.123894 0.241093
H31   H     H_    0.506227 0.052018 0.114285 0.238240
O10   O     O_3   0.577710 0.135640 0.323282 -0.596553
C42   C     C_3   0.644754 0.100982 0.363401 0.034041
H32   H     H_    0.681477 0.139424 0.282087 0.173812
H33   H     H_    0.649570 0.998916 0.365465 0.133434
C43   C     C_3   0.665942 0.153964 0.504872 -0.366963
H34   H     H_    0.653226 0.252334 0.506760 0.233390
H35   H     H_    0.636593 0.103254 0.590290 0.201177
C44   C     C_3   0.743222 0.143929 0.531507 -0.879487
H36   H     H_    0.757234 0.045823 0.530432 0.249104
H37   H     H_    0.756374 0.181463 0.635274 0.260614
H38   H     H_    0.773824 0.198088 0.450518 0.264833

loop_
_geom_bond_atom_site_label_1
_geom_bond_atom_site_label_2
_ccdc_geom_bond_type
N1    N2    A    
C42   H32   S    
C20   N8    S    
C29   H4    S    
C19   C20   A    
C38   C39   S    
C2    C12   S    
C1    O2    A    
C7    C8    A    
C31   O7    A    
C26   C27   A    
C16   C21   A    
C23   O6    A    
C30   H10   S    
Cu1   Cu2   S    
C38   H22   S    
C18   C19   A    
C27   N6    A    
C5    C6    A    
C12   O4    A    
N8    C41   S    
C15   C16   A    
C43   C44   S    
C2    C32   A    
C34   C35   A    
C32   H1    S    
N7    C37   S    
C19   O10   S    
C29   N5    A    
C43   H35   S    
C8    C9    A    
Cu1   O5    S    
C35   H11   S    
C9    C10   A    
C41   H29   S    
C42   H33   S    
C22   C28   A    
C13   C14   A    
C11   H2    S    
Cu1   O3    S    
C33   C34   A    
Cu2   O4    S    
C31   O8    A    
C4    C34   S    
C7    C31   S    
Cu2   O6    S    
C38   H21   S    
C15   H3    S    
C39   H24   S    
C12   O3    A    
N8    H28   S    
C16   C17   A    
C25   C26   A    
C39   H23   S    
C30   N6    A    
C35   C36   A    
O9    C38   S    
C29   C30   A    
C37   H20   S    
C3    N2    A    
C22   H5    S    
C41   H31   S    
C43   H34   S    
C17   C18   A    
C1    C18   S    
C24   C25   A    
C3    N3    A    
C44   H37   S    
C41   H30   S    
C42   C43   S    
C40   H26   S    
C21   C23   S    
C4    N1    A    
C33   H9    S    
C22   C24   A    
C25   H7    S    
C36   H12   S    
C37   H19   S    
C28   N5    A    
C2    C36   A    
C11   C17   A    
Cu2   O8    S    
C1    O1    A    
C8    H15   S    
C39   C40   S    
Cu1   O1    S    
C6    C7    A    
C40   H27   S    
C44   H36   S    
C14   O9    S    
C23   O5    A    
C5    C10   A    
C3    C10   S    
C32   C33   A    
C11   C13   A    
N3    N4    A    
C13   N7    S    
C24   H6    S    
Cu1   O7    S    
O10   C42   S    
N7    H17   S    
Cu1   N6    S    
C26   H8    S    
Cu2   N5    S    
C37   H18   S    
C44   H38   S    
C20   C21   A    
C40   H25   S    
C4    N4    A    
C27   C28   A    
C14   C15   A    
C5    H13   S    
C9    H16   S    
C6    H14   S    
Cu2   O2    S    
