data_mof_unit_234.cif
_audit_creation_date              2012-12-10T17:45:19-0500
_audit_creation_method            fapswitch 2.2
_symmetry_space_group_name_H-M    P1
_symmetry_Int_Tables_number       1
_space_group_crystal_system       triclinic
_cell_length_a                    15.130698
_cell_length_b                    14.145795
_cell_length_c                    23.349984
_cell_angle_alpha                 90.051352
_cell_angle_beta                  78.058726
_cell_angle_gamma                 89.961823
_cell_volume                      4889.57760527

loop_
_atom_site_label
_atom_site_type_symbol
_atom_type_description
_atom_site_fract_x
_atom_site_fract_y
_atom_site_fract_z
_atom_type_partial_charge
C1    C     C_R   0.328261 0.500100 0.503724 0.858792
C2    C     C_R   0.582549 0.427719 0.685966 -0.142456
C3    C     C_R   0.402008 0.422971 0.256748 -0.096992
C4    C     C_R   0.596452 0.422462 0.743657 -0.106477
C5    C     C_R   0.444802 0.485724 0.214044 0.229507
C6    C     C_R   0.553972 0.485749 0.786250 0.230857
C7    C     C_R   0.836165 0.495092 0.440864 0.344599
C8    C     C_R   0.163699 0.494564 0.559477 0.252651
C9    C     C_R   0.769583 0.500598 0.493849 -0.163337
C10   C     C_R   0.230260 0.500901 0.506484 -0.143100
C11   C     C_R   0.795979 0.508438 0.547310 -0.257040
C12   C     C_R   0.671684 0.500021 0.496436 0.861897
C13   C     C_R   0.203757 0.509865 0.453129 -0.247725
C14   C     C_R   0.886770 0.505604 0.550221 0.122765
C15   C     C_R   0.112977 0.507131 0.450222 0.121366
C16   C     C_R   0.498805 0.498906 0.390301 0.884428
C17   C     C_R   0.501045 0.498973 0.609725 0.882537
C18   C     C_R   0.953798 0.503118 0.498469 0.029847
C19   C     C_R   0.045984 0.503204 0.501946 0.051132
C20   C     C_R   0.928972 0.500229 0.443357 -0.009251
C21   C     C_R   0.070835 0.499071 0.557020 -0.016711
C22   C     C_R   0.911196 0.504511 0.604539 -0.131557
C23   C     C_R   0.496380 0.558381 0.230431 -0.161162
C24   C     C_R   0.088541 0.507518 0.395905 -0.141124
C25   C     C_R   0.001519 0.499178 0.608020 -0.127809
C26   C     C_R   0.998260 0.502126 0.392365 -0.084838
C27   C     C_R   0.449339 0.797724 0.546663 0.442525
C28   C     C_R   0.564103 0.202967 0.459079 0.449365
C29   C     C_R   0.550776 0.797450 0.453360 0.440985
C30   C     C_R   0.435862 0.203156 0.540863 0.460700
C31   C     C_R   0.549456 0.899261 0.453118 -0.146127
C32   C     C_R   0.435371 0.101345 0.539280 -0.161777
C33   C     C_R   0.450590 0.899513 0.546836 -0.163700
C34   C     C_R   0.503014 0.558848 0.769681 -0.154751
C35   C     C_R   0.564568 0.101149 0.460580 -0.171299
C36   C     C_R   0.500040 0.949083 0.499973 -0.040467
C37   C     C_R   0.500010 0.051763 0.499952 -0.038771
C38   C     C_R   0.595533 0.957183 0.407051 0.397222
C39   C     C_R   0.370878 0.042896 0.575118 0.392711
C40   C     C_R   0.404338 0.957646 0.592828 0.395022
C41   C     C_R   0.629015 0.042534 0.424663 0.379482
C42   C     C_R   0.613741 0.465316 0.875292 0.607976
C43   C     C_R   0.384861 0.466118 0.125006 0.609856
C44   C     C_R   0.456797 0.443822 0.878338 0.602372
C45   C     C_R   0.532242 0.547597 0.280562 0.428279
C46   C     C_R   0.541524 0.442355 0.122014 0.605809
C47   C     C_R   0.437620 0.442617 0.939509 -0.061098
C48   C     C_R   0.560761 0.441295 0.060827 -0.065110
C49   C     C_R   0.509089 0.446377 0.969167 -0.047064
C50   C     C_R   0.489384 0.446213 0.031155 -0.049386
C51   C     C_R   0.599891 0.450142 0.936870 -0.130317
C52   C     C_R   0.398632 0.450729 0.063457 -0.125794
C53   C     C_R   0.348218 0.437939 0.971101 -0.202204
C54   C     C_R   0.650121 0.435846 0.029244 -0.189405
C55   C     C_R   0.327279 0.442132 0.032341 0.358613
C56   C     C_R   0.467282 0.548237 0.719465 0.411794
C57   C     C_R   0.671204 0.440829 0.968020 0.368376
C58   C     C_2   0.362743 0.359877 0.355828 0.867448
C59   C     C_2   0.635561 0.358643 0.644676 0.859109
C60   C     C_R   0.483136 0.492276 0.328152 -0.231120
C61   C     C_R   0.516271 0.492398 0.671978 -0.231571
C62   C     C_R   0.416226 0.428238 0.314379 -0.146723
Cu1   Cu    Cu3+1 0.500000 0.597420 0.500000 1.118250
Cu2   Cu    Cu3+1 0.500000 0.402580 0.500000 1.170235
H1    H     H_    0.293718 0.433321 0.947650 0.231009
H2    H     H_    0.254813 0.517287 0.413275 0.159410
H3    H     H_    0.860110 0.505755 0.644662 0.195185
H4    H     H_    0.139605 0.509991 0.355800 0.193469
H5    H     H_    0.273791 0.677866 0.579326 0.337358
H6    H     H_    0.578991 0.279550 0.332224 0.380116
H7    H     H_    0.728611 0.675294 0.417741 0.366120
H8    H     H_    0.419127 0.280822 0.668323 0.378668
H9    H     H_    0.598339 0.936757 0.250951 0.389725
H10   H     H_    0.126411 0.016858 0.602814 0.389985
H11   H     H_    0.507536 0.078024 0.700609 0.392361
H12   H     H_    0.704440 0.430089 0.052754 0.219635
H13   H     H_    0.798019 0.931084 0.493039 0.391387
H14   H     H_    0.167691 0.327407 0.009217 0.366467
H15   H     H_    0.865212 0.453103 0.000580 0.371470
H16   H     H_    0.754411 0.566369 0.181855 0.392440
H17   H     H_    0.245232 0.568294 0.818164 0.407854
H18   H     H_    0.239701 0.304741 0.388564 0.371798
H19   H     H_    0.758280 0.302655 0.611782 0.369135
H20   H     H_    0.864737 0.551021 0.289625 0.396054
H21   H     H_    0.141805 0.624218 0.646205 0.333185
H22   H     H_    0.014888 0.495893 0.651519 0.230819
H23   H     H_    0.984921 0.500209 0.348838 0.214779
H24   H     H_    0.529146 0.605696 0.196121 0.201460
H25   H     H_    0.470471 0.606572 0.803904 0.204145
H26   H     H_    0.360725 0.367032 0.244323 0.196714
H27   H     H_    0.637230 0.366144 0.756207 0.193374
H28   H     H_    0.744860 0.515092 0.587201 0.163008
N1    N     N_R   0.542269 0.463222 0.847763 -0.465260
N2    N     N_R   0.456243 0.462854 0.152578 -0.465638
N3    N     N_R   0.500000 0.743810 0.500000 -0.285935
N4    N     N_R   0.500000 0.256190 0.500000 -0.268196
O1    O     O_R   0.370260 0.582280 0.500010 -0.574550
O2    O     O_2   0.302666 0.487816 0.156813 -0.428466
O3    O     O_2   0.390111 0.426346 0.849406 -0.457569
O4    O     O_2   0.607985 0.423869 0.150966 -0.451812
O5    O     O_2   0.440130 0.723551 0.651692 -0.214559
O6    O     O_2   0.307533 0.812857 0.640487 -0.233164
O7    O     O_3   0.325645 0.652404 0.594387 -0.459401
O8    O     O_2   0.716884 0.304969 0.429280 -0.185990
O9    O     O_2   0.703991 0.181953 0.361614 -0.207305
O10   O     O_3   0.609576 0.323024 0.355161 -0.429540
O11   O     O_2   0.560442 0.723907 0.348095 -0.221107
O12   O     O_R   0.629740 0.417720 0.499990 -0.525001
O13   O     O_2   0.693220 0.812092 0.360126 -0.214438
O14   O     O_3   0.674013 0.651023 0.405338 -0.439157
O15   O     O_2   0.282875 0.304968 0.570282 -0.190743
O16   O     O_2   0.295850 0.182548 0.638225 -0.202620
O17   O     O_3   0.389594 0.324051 0.644654 -0.431789
O18   O     O_2   0.469871 0.899713 0.347917 -0.234018
O19   O     O_2   0.520118 0.064251 0.335218 -0.273443
O20   O     O_3   0.629293 0.934224 0.284376 -0.412461
O21   O     O_2   0.245246 0.118779 0.521721 -0.220560
O22   O     O_2   0.262920 0.946657 0.518277 -0.283467
O23   O     O_R   0.629740 0.582280 0.499990 -0.572902
O24   O     O_3   0.183775 0.022543 0.616684 -0.427915
O25   O     O_2   0.379450 0.941395 0.709397 -0.163665
O26   O     O_2   0.529851 0.900549 0.652256 -0.233924
O27   O     O_3   0.484993 0.077771 0.663696 -0.533105
O28   O     O_2   0.807823 0.022181 0.390173 -0.172062
O29   O     O_2   0.754415 0.117752 0.478513 -0.222311
O30   O     O_3   0.735635 0.935532 0.486312 -0.537067
O31   O     O_2   0.201000 0.358086 0.114980 -0.216427
O32   O     O_2   0.175235 0.523264 0.091320 -0.159777
O33   O     O_3   0.150093 0.394190 0.017911 -0.468472
O34   O     O_R   0.370260 0.417720 0.500010 -0.524078
O35   O     O_2   0.797356 0.355419 0.886266 -0.168647
O36   O     O_2   0.823026 0.521481 0.907825 -0.207073
O37   O     O_3   0.848795 0.393980 0.982538 -0.464004
O38   O     O_2   0.693871 0.614562 0.296268 -0.130271
O39   O     O_2   0.686017 0.448539 0.267970 -0.168362
O40   O     O_3   0.688490 0.578491 0.190409 -0.509988
O41   O     O_2   0.305555 0.615042 0.703297 -0.109905
O42   O     O_2   0.313389 0.449616 0.732580 -0.150409
O43   O     O_3   0.311011 0.581112 0.809352 -0.497950
O44   O     O_2   0.400015 0.300894 0.380837 -0.528291
O45   O     O_R   0.499980 0.582290 0.417880 -0.519965
O46   O     O_R   0.269249 0.355575 0.360434 -0.757537
O47   O     O_2   0.597833 0.299417 0.620115 -0.533162
O48   O     O_R   0.729102 0.353976 0.639760 -0.759217
O49   O     O_2   0.850036 0.393398 0.342743 -0.202856
O50   O     O_2   0.706698 0.475000 0.377271 -0.176199
O51   O     O_3   0.846828 0.575786 0.330074 -0.500903
O52   O     O_2   0.152145 0.391569 0.656764 -0.150891
O53   O     O_2   0.293538 0.476323 0.622805 -0.177990
O54   O     O_3   0.151377 0.572288 0.672661 -0.446987
O55   O     O_R   0.500020 0.417710 0.582120 -0.516722
O56   O     O_R   0.500020 0.582290 0.582120 -0.518733
O57   O     O_R   0.499980 0.417710 0.417880 -0.517111
O58   O     O_2   0.696186 0.485411 0.843359 -0.426907
S1    S     S_3+6 0.380313 0.747136 0.609803 0.113589
S2    S     S_3+6 0.787132 0.428521 0.933950 0.110719
S3    S     S_3+6 0.652341 0.546801 0.260879 0.126199
S4    S     S_3+6 0.347134 0.548017 0.739085 0.158689
S5    S     S_3+6 0.806772 0.481847 0.371619 0.094321
S6    S     S_3+6 0.193308 0.481288 0.628777 0.119506
S7    S     S_3+6 0.650083 0.253843 0.401609 0.156554
S8    S     S_3+6 0.620024 0.746573 0.390296 0.123376
S9    S     S_3+6 0.349653 0.254286 0.598200 0.156210
S10   S     S_3+6 0.549812 0.964478 0.343108 0.099972
S11   S     S_3+6 0.264141 0.033283 0.555467 0.094176
S12   S     S_3+6 0.450535 0.966133 0.656468 0.102359
S13   S     S_3+6 0.735450 0.032399 0.444604 0.100459
S14   S     S_3+6 0.211443 0.429615 0.066442 0.104470

loop_
_geom_bond_atom_site_label_1
_geom_bond_atom_site_label_2
_ccdc_geom_bond_type
C58   C62   S    
C45   C60   A    
C34   C56   A    
C23   C45   A    
C42   N1    A    
C14   C18   A    
C53   C55   A    
C27   N3    A    
C43   O2    S    
H18   O46   S    
O51   S5    S    
C43   N2    A    
C5    N2    S    
O14   S8    S    
C47   C49   A    
C27   C33   A    
C48   C54   A    
O25   S12   D    
H9    O20   S    
O54   S6    S    
O41   S4    D    
C3    H26   S    
O39   S3    D    
C55   S14   S    
C36   C37   A    
C42   O58   S    
H14   O33   S    
C24   C26   A    
O13   S8    D    
O52   S6    D    
H19   O48   S    
O49   S5    D    
C44   O3    S    
C43   C52   A    
C32   C39   A    
C7    S5    S    
O5    S1    D    
O37   S2    S    
H7    O14   S    
Cu1   N3    S    
C33   C36   A    
C18   C20   A    
C60   C62   A    
C18   C19   A    
C16   C60   S    
O10   S7    S    
O19   S10   D    
C49   C50   A    
C58   O46   S    
H21   O54   S    
C56   S4    S    
C44   N1    A    
C17   C61   S    
O27   S12   S    
C11   H28   S    
C28   C35   A    
O21   S11   D    
O31   S14   D    
C49   C51   A    
C22   C25   A    
C5    C23   A    
C28   S7    S    
C50   C52   A    
C51   C57   A    
C53   H1    S    
C40   S12   S    
C44   C47   A    
C42   C51   A    
C47   C53   A    
C4    H27   S    
C38   S10   S    
C59   O47   D    
O28   S13   D    
C17   O55   A    
C30   S9    S    
C35   C41   A    
O53   S6    D    
O24   S11   S    
Cu2   O12   S    
C13   H2    S    
H5    O7    S    
C27   S1    S    
H15   O37   S    
C57   S2    S    
C46   C48   A    
C33   C40   A    
Cu2   O55   S    
C45   S3    S    
Cu2   N4    S    
C38   C41   A    
C4    C6    A    
O30   S13   S    
H6    O10   S    
C1    O1    A    
O8    S7    D    
C29   N3    A    
C2    C59   S    
C26   H23   S    
O50   S5    D    
C41   S13   S    
Cu2   O57   S    
C6    C34   A    
C22   H3    S    
C39   S11   S    
C15   C19   A    
O43   S4    S    
O17   S9    S    
C12   O23   A    
Cu1   O23   S    
O42   S4    D    
O18   S10   D    
C46   N2    A    
O11   S8    D    
C6    N1    S    
C8    C21   A    
Cu1   O45   S    
O15   S9    D    
C32   C37   A    
C9    C11   A    
C54   H12   S    
O40   S3    S    
O7    S1    S    
C15   C24   A    
Cu2   O34   S    
C59   O48   S    
C1    O34   A    
C23   H24   S    
C13   C15   A    
H11   O27   S    
C17   O56   A    
C3    C62   A    
C8    S6    S    
C39   C40   A    
C12   O12   A    
H20   O51   S    
C58   O44   D    
H17   O43   S    
O16   S9    D    
C21   C25   A    
O35   S2    D    
C46   O4    S    
O33   S14   S    
C35   C37   A    
C31   C36   A    
C29   S8    S    
O20   S10   S    
C8    C10   A    
C1    C10   S    
C3    C5    A    
C10   C13   A    
C2    C61   A    
O29   S13   D    
H10   O24   S    
O22   S11   D    
H16   O40   S    
C31   C38   A    
C28   N4    A    
C14   C22   A    
C16   O45   A    
C34   H25   S    
C29   C31   A    
C30   C32   A    
C52   C55   A    
C20   C26   A    
C2    C4    A    
H8    O17   S    
C48   C50   A    
C25   H22   S    
C11   C14   A    
O9    S7    D    
O26   S12   D    
O36   S2    D    
C9    C12   S    
Cu1   O56   S    
C24   H4    S    
C30   N4    A    
Cu1   Cu2   S    
C7    C9    A    
O38   S3    D    
Cu1   O1    S    
C7    C20   A    
C16   O57   A    
O32   S14   D    
C56   C61   A    
O6    S1    D    
H13   O30   S    
C19   C21   A    
C54   C57   A    
