data_mof_unit_995.cif
_audit_creation_date              2012-12-10T18:09:50-0500
_audit_creation_method            fapswitch 2.2
_symmetry_space_group_name_H-M    P1
_symmetry_Int_Tables_number       1
_space_group_crystal_system       triclinic
_cell_length_a                    10.614793
_cell_length_b                    12.607092
_cell_length_c                    13.099048
_cell_angle_alpha                 82.230852
_cell_angle_beta                  90.119842
_cell_angle_gamma                 102.476715
_cell_volume                      1695.16220122

loop_
_atom_site_label
_atom_site_type_symbol
_atom_type_description
_atom_site_fract_x
_atom_site_fract_y
_atom_site_fract_z
_atom_type_partial_charge
C1    C     C_R   0.481069 0.438617 0.691296 0.849069
C2    C     C_R   0.468313 0.446005 0.974177 0.086223
C3    C     C_R   0.434159 0.464819 0.870542 0.082793
C4    C     C_R   0.742051 0.502930 0.493636 0.816660
C5    C     C_R   0.465543 0.528321 0.037019 -0.054256
C6    C     C_R   0.399083 0.612902 0.003837 0.109388
C7    C     C_R   0.348030 0.620495 0.905725 -0.219346
C8    C     C_R   0.367806 0.548881 0.838842 -0.200779
C9    C     C_R   0.529792 0.531573 0.130799 0.470971
C10   C     C_R   0.429097 0.677489 0.169446 -0.300847
C11   C     C_R   0.467683 0.398761 0.801190 -0.127944
C12   C     C_3   0.122344 0.503168 0.491834 0.140756
C13   C     C_R   0.310831 0.084165 0.356578 -0.434035
C14   C     C_R   0.647507 0.795943 0.633130 -0.072610
C15   C     C_R   0.667681 0.894955 0.671726 -0.345220
C16   C     C_R   0.512638 0.561103 0.308810 0.902889
C17   C     C_R   0.608355 0.978669 0.626696 0.548231
C18   C     C_R   0.529192 0.960606 0.539511 -0.086153
C19   C     C_R   0.506404 0.854796 0.507737 0.168814
C20   C     C_R   0.468673 0.040642 0.483744 0.010487
C21   C     C_R   0.376498 0.009084 0.408408 0.131785
C22   C     C_R   0.352337 0.903268 0.383243 -0.264741
C23   C     C_3   0.105764 0.623534 0.464587 -0.370422
C24   C     C_R   0.419548 0.828719 0.429913 -0.189872
C25   C     C_R   0.498528 0.151959 0.496039 -0.129269
C26   C     C_R   0.341174 0.193454 0.375420 0.699349
C27   C     C_R   0.258598 0.501060 0.495995 0.815759
C28   C     C_3   0.910483 0.431938 0.410565 -0.388651
C29   C     C_3   0.055565 0.434526 0.409087 -0.378912
C30   C     C_3   0.961424 0.626226 0.458246 0.024080
C31   C     C_3   0.916396 0.459984 0.597663 -0.453731
C32   C     C_3   0.879697 0.506216 0.488336 0.139090
C33   C     C_3   0.739955 0.526549 0.108466 -0.366531
C34   C     C_3   0.059119 0.454804 0.598710 -0.427154
C35   C     C_3   0.235433 0.258767 0.231252 -0.376111
C36   C     C_3   0.735518 0.125160 0.691710 -0.400548
C37   C     C_3   0.922281 0.691410 0.356664 -0.352262
C38   C     C_3   0.998385 0.692971 0.256802 -0.914770
C39   C     C_R   0.383608 0.688201 0.069782 -0.201450
C40   C     C_R   0.498735 0.596829 0.200476 -0.146899
C41   C     C_R   0.504777 0.300680 0.838310 -0.189910
C42   C     C_R   0.516212 0.271944 0.943452 -0.184766
C43   C     C_R   0.500650 0.344618 0.011041 -0.152418
H1    H     H_    0.878382 0.458132 0.332283 0.182828
H2    H     H_    0.542102 0.195129 0.972344 0.154811
H3    H     H_    0.857500 0.345567 0.433682 0.185331
H4    H     H_    0.327388 0.557960 0.763067 0.160681
H5    H     H_    0.283908 0.878828 0.324703 0.142120
H6    H     H_    0.237018 0.056958 0.302907 0.153383
H7    H     H_    0.575192 0.187034 0.542770 0.211032
H8    H     H_    0.691344 0.731148 0.669626 0.164601
H9    H     H_    0.724231 0.903809 0.740038 0.160487
H10   H     H_    0.400632 0.750215 0.404391 0.203249
H11   H     H_    0.069026 0.348712 0.424492 0.213677
H12   H     H_    0.108314 0.501549 0.659244 0.161876
H13   H     H_    0.099084 0.469890 0.331453 0.168135
H14   H     H_    0.161891 0.661243 0.392968 0.173328
H15   H     H_    0.897298 0.512568 0.655120 0.165112
H16   H     H_    0.856733 0.376254 0.621801 0.172168
H17   H     H_    0.068069 0.368062 0.618572 0.178492
H18   H     H_    0.768210 0.611861 0.127034 0.163555
H19   H     H_    0.735731 0.527310 0.023524 0.179104
H20   H     H_    0.816256 0.482998 0.136692 0.193130
H21   H     H_    0.219301 0.338190 0.191950 0.196441
H22   H     H_    0.141822 0.198360 0.234481 0.166631
H23   H     H_    0.942103 0.673125 0.520713 0.124635
H24   H     H_    0.308657 0.234317 0.184104 0.159346
H25   H     H_    0.796288 0.138073 0.619923 0.158254
H26   H     H_    0.781073 0.083646 0.757292 0.182932
H27   H     H_    0.731343 0.207237 0.711109 0.187181
H28   H     H_    0.095205 0.748233 0.255865 0.245143
H29   H     H_    0.007901 0.610017 0.244499 0.260445
H30   H     H_    0.947400 0.727124 0.190484 0.240438
H31   H     H_    0.818739 0.661049 0.341744 0.210591
H32   H     H_    0.932019 0.778350 0.369021 0.198844
H33   H     H_    0.148503 0.673252 0.525334 0.166742
H34   H     H_    0.404953 0.728573 0.223194 0.164022
H35   H     H_    0.295666 0.683596 0.879699 0.145562
H36   H     H_    0.330620 0.751461 0.046130 0.149724
H37   H     H_    0.527659 0.247560 0.785967 0.190161
H38   H     H_    0.510023 0.318259 0.091971 0.195096
N1    N     N_R   0.433240 0.222190 0.444680 -0.152746
N2    N     N_R   0.566070 0.776970 0.554790 -0.124032
O1    O     O_R   0.468120 0.366740 0.627160 -0.608351
O2    O     O_3   0.277190 0.273266 0.331759 -0.585953
O3    O     O_3   0.608029 0.067336 0.678783 -0.621336
O4    O     O_R   0.510770 0.544830 0.662520 -0.609448
O5    O     O_R   0.663880 0.410950 0.482330 -0.624223
O6    O     O_R   0.706530 0.589040 0.517700 -0.639065
O7    O     O_R   0.489230 0.455170 0.337480 -0.530568
O8    O     O_R   0.531880 0.633260 0.372840 -0.655995
O9    O     O_R   0.293470 0.410960 0.482300 -0.575273
O10   O     O_R   0.336120 0.589050 0.517670 -0.653406
O11   O     O_3   0.621669 0.470439 0.157520 -0.621102
Zn1   Zn    Zn3+2 0.471520 0.381090 0.476390 0.995443
Zn2   Zn    Zn3+2 0.528480 0.618910 0.523610 0.910030

loop_
_geom_bond_atom_site_label_1
_geom_bond_atom_site_label_2
_ccdc_geom_bond_type
C1    O4    A    
C22   H5    S    
C37   H31   S    
C16   O7    A    
C12   C29   S    
C41   C42   A    
C1    C11   S    
C23   H33   S    
C33   O11   S    
C41   H37   S    
C7    C8    A    
C1    O1    A    
C12   C23   S    
C28   H3    S    
C31   H15   S    
C28   C29   S    
C5    C6    A    
C20   C25   A    
C35   H22   S    
C10   C40   A    
C18   C19   A    
C31   H16   S    
C25   H7    S    
O8    Zn2   S    
C14   H8    S    
C33   H19   S    
C11   C41   A    
C35   H21   S    
C37   H32   S    
O5    Zn1   S    
C34   H12   S    
C26   N1    A    
C21   C22   A    
C34   H17   S    
C14   N2    A    
C19   N2    A    
C10   H34   S    
C36   H27   S    
C38   H29   S    
C12   C27   S    
C17   O3    S    
C23   C30   S    
C28   C32   S    
C3    C8    A    
C36   O3    S    
C24   H10   S    
C28   H1    S    
O9    Zn1   S    
C30   C37   S    
C10   C39   A    
C42   H2    S    
C39   H36   S    
C5    C9    A    
C37   C38   S    
C31   C32   S    
C35   H24   S    
C2    C43   A    
C33   H20   S    
O4    Zn2   S    
C23   H14   S    
C17   C18   A    
C31   C34   S    
C13   C21   A    
C27   O9    A    
C4    C32   S    
C15   H9    S    
C30   H23   S    
C16   C40   S    
C7    H35   S    
C13   H6    S    
O10   Zn2   S    
C25   N1    A    
C43   H38   S    
C22   C24   A    
C13   C26   A    
C27   O10   A    
C2    C5    A    
C42   C43   A    
C12   C34   S    
C36   H26   S    
C4    O6    A    
C15   C17   A    
C38   H28   S    
N1    Zn1   S    
C14   C15   A    
O7    Zn1   S    
C36   H25   S    
C6    C7    A    
C4    O5    A    
C29   H13   S    
O6    Zn2   S    
C19   C24   A    
C8    H4    S    
C30   C32   S    
C35   O2    S    
C26   O2    S    
N2    Zn2   S    
C2    C3    A    
C18   C20   A    
C9    C40   A    
C3    C11   A    
C20   C21   A    
C16   O8    A    
C33   H18   S    
C29   H11   S    
C6    C39   A    
C9    O11   S    
O1    Zn1   S    
C38   H30   S    
