data_mof_unit_253.cif
_audit_creation_date              2012-12-11T14:44:04-0500
_audit_creation_method            fapswitch 2.2
_symmetry_space_group_name_H-M    P1
_symmetry_Int_Tables_number       1
_space_group_crystal_system       triclinic
_cell_length_a                    18.944371
_cell_length_b                    10.905812
_cell_length_c                    18.895262
_cell_angle_alpha                 90.033795
_cell_angle_beta                  89.874582
_cell_angle_gamma                 90.00505
_cell_volume                      3903.82191322

loop_
_atom_site_label
_atom_site_type_symbol
_atom_type_description
_atom_site_fract_x
_atom_site_fract_y
_atom_site_fract_z
_atom_type_partial_charge
C1    C     C_R   0.730125 0.376890 0.145759 0.545636
C2    C     C_R   0.269862 0.376959 0.854224 0.545541
C3    C     C_R   0.230125 0.876890 0.145759 0.545636
C4    C     C_R   0.769862 0.876959 0.854224 0.545541
C5    C     C_R   0.509431 0.391376 0.927058 -0.090832
C6    C     C_R   0.490435 0.391255 0.073128 -0.091327
C7    C     C_R   0.009430 0.891376 0.927058 -0.090832
C8    C     C_R   0.990434 0.891255 0.073128 -0.091327
C9    C     C_R   0.005385 0.002450 0.963570 0.165193
C10   C     C_R   0.994423 0.002389 0.036743 0.164966
C11   C     C_R   0.505385 0.502450 0.963570 0.165192
C12   C     C_R   0.494424 0.502389 0.036742 0.164965
C13   C     C_R   0.697401 0.866252 0.037865 -0.131884
C14   C     C_R   0.302528 0.866135 0.962049 -0.131666
C15   C     C_R   0.197401 0.366253 0.037865 -0.131884
C16   C     C_R   0.802529 0.366136 0.962049 -0.131666
C17   C     C_R   0.699873 0.853212 0.964589 -0.127847
C18   C     C_R   0.300050 0.853035 0.035318 -0.127786
C19   C     C_R   0.199872 0.353213 0.964589 -0.127847
C20   C     C_R   0.800051 0.353035 0.035318 -0.127786
C21   C     C_R   0.751771 0.915619 0.925440 0.022397
C22   C     C_R   0.248188 0.915472 0.074530 0.022128
C23   C     C_R   0.251771 0.415619 0.925440 0.022397
C24   C     C_R   0.748188 0.415472 0.074530 0.022128
C25   C     C_R   0.798276 0.995687 0.959453 -0.128608
C26   C     C_R   0.201700 0.995580 0.040572 -0.128691
C27   C     C_R   0.298277 0.495686 0.959454 -0.128608
C28   C     C_R   0.701699 0.495580 0.040572 -0.128691
C29   C     C_R   0.797624 0.004746 0.031772 -0.127020
C30   C     C_R   0.202364 0.004717 0.968255 -0.126957
C31   C     C_R   0.297625 0.504744 0.031773 -0.127021
C32   C     C_R   0.702364 0.504716 0.968255 -0.126958
C33   C     C_R   0.747539 0.940168 0.071856 0.023037
C34   C     C_R   0.252430 0.940142 0.928116 0.022888
C35   C     C_R   0.247539 0.440168 0.071856 0.023037
C36   C     C_R   0.752430 0.440142 0.928116 0.022888
C37   C     C_R   0.536095 0.060741 0.472535 -0.128925
C38   C     C_R   0.526875 0.064687 0.544741 -0.136515
C39   C     C_R   0.036101 0.560746 0.472537 -0.128923
C40   C     C_R   0.026880 0.564692 0.544743 -0.136512
C41   C     C_R   0.497651 0.168856 0.576044 0.045517
C42   C     C_R   0.518087 0.162162 0.430363 0.016713
C43   C     C_R   0.997650 0.668857 0.576044 0.045523
C44   C     C_R   0.018087 0.662162 0.430363 0.016713
C45   C     C_R   0.531329 0.155599 0.146628 0.538986
C46   C     C_R   0.468699 0.155644 0.853356 0.539663
C47   C     C_R   0.031329 0.655599 0.146628 0.538986
C48   C     C_R   0.968699 0.655644 0.853356 0.539663
C49   C     C_R   0.483033 0.273302 0.534819 -0.075222
C50   C     C_R   0.493644 0.270086 0.461947 -0.140166
C51   C     C_R   0.983027 0.773300 0.534818 -0.075223
C52   C     C_R   0.993639 0.770083 0.461945 -0.140169
C53   C     C_R   0.789406 0.026742 0.474325 0.364487
C54   C     C_R   0.183242 0.921938 0.543895 0.357859
C55   C     C_R   0.289410 0.526736 0.474324 0.364488
C56   C     C_R   0.683242 0.421942 0.543895 0.357858
C57   C     C_R   0.790147 0.012329 0.546577 -0.091922
C58   C     C_R   0.177349 0.910935 0.471524 -0.092596
C59   C     C_R   0.290150 0.512325 0.546576 -0.091921
C60   C     C_R   0.677349 0.410939 0.471523 -0.092597
C61   C     C_R   0.749948 0.920102 0.577929 -0.033853
C62   C     C_R   0.237881 0.897418 0.429047 -0.020759
C63   C     C_R   0.249948 0.420103 0.577929 -0.033852
C64   C     C_R   0.737881 0.397419 0.429047 -0.020758
C65   C     C_R   0.703333 0.849477 0.536891 -0.161704
C66   C     C_R   0.304456 0.889096 0.460024 -0.100323
C67   C     C_R   0.203331 0.349482 0.536892 -0.161706
C68   C     C_R   0.804455 0.389092 0.460024 -0.100316
C69   C     C_R   0.701030 0.865739 0.464033 -0.208136
C70   C     C_R   0.310691 0.901684 0.532854 -0.173116
C71   C     C_R   0.201028 0.365743 0.464034 -0.208138
C72   C     C_R   0.810690 0.401680 0.532855 -0.173115
C73   C     C_R   0.745667 0.951734 0.432083 0.028606
C74   C     C_R   0.250200 0.922300 0.574753 0.025378
C75   C     C_R   0.245667 0.451733 0.432083 0.028605
C76   C     C_R   0.750200 0.422299 0.574753 0.025377
C77   C     C_R   0.740631 0.972704 0.146040 0.541811
C78   C     C_R   0.259364 0.972732 0.853953 0.545572
C79   C     C_R   0.240631 0.472704 0.146040 0.541812
C80   C     C_R   0.759364 0.472732 0.853953 0.545572
C81   C     C_R   0.727614 0.374079 0.354395 0.547849
C82   C     C_R   0.269723 0.379282 0.648037 0.543037
C83   C     C_R   0.227614 0.874079 0.354395 0.547848
C84   C     C_R   0.769723 0.879282 0.648037 0.543035
C85   C     C_R   0.535616 0.156483 0.355631 0.542950
C86   C     C_R   0.468046 0.157714 0.646600 0.549275
C87   C     C_R   0.035616 0.656483 0.355631 0.542948
C88   C     C_R   0.968046 0.657714 0.646600 0.549276
C89   C     C_R   0.739728 0.978552 0.357076 0.561230
C90   C     C_R   0.258723 0.970402 0.645733 0.573438
C91   C     C_R   0.239728 0.478552 0.357076 0.561229
C92   C     C_R   0.758722 0.470402 0.645733 0.573435
C93   C     C_R   0.496619 0.164466 0.925706 0.002351
C94   C     C_R   0.503517 0.164366 0.074241 0.001729
C95   C     C_R   0.996619 0.664466 0.925706 0.002351
C96   C     C_R   0.003517 0.664366 0.074241 0.001729
C97   C     C_R   0.501577 0.278005 0.962543 -0.012651
C98   C     C_R   0.498408 0.277946 0.037525 -0.012117
C99   C     C_R   0.001577 0.778005 0.962543 -0.012651
C100  C     C_R   0.998408 0.777946 0.037525 -0.012117
C101  C     C_R   0.501429 0.054317 0.036150 -0.135209
C102  C     C_R   0.498990 0.054369 0.963662 -0.135084
C103  C     C_R   0.001429 0.554317 0.036150 -0.135209
C104  C     C_R   0.998990 0.554369 0.963662 -0.135084
Cr1   Cr    Cr6+3 0.772000 0.169640 0.250110 1.091371
Cr2   Cr    Cr6+3 0.228000 0.169640 0.749890 1.079136
Cr3   Cr    Cr6+3 0.272000 0.669640 0.250110 1.091372
Cr4   Cr    Cr6+3 0.728000 0.669640 0.749890 1.079136
Cr5   Cr    Cr6+3 0.614960 0.323350 0.249260 1.042961
Cr6   Cr    Cr6+3 0.385040 0.323350 0.750740 1.058119
Cr7   Cr    Cr6+3 0.114960 0.823350 0.249260 1.042961
Cr8   Cr    Cr6+3 0.885040 0.823350 0.750740 1.058120
Cr9   Cr    Cr6+3 0.616670 0.010620 0.250840 1.050146
Cr10  Cr    Cr6+3 0.383330 0.010620 0.749160 1.051065
Cr11  Cr    Cr6+3 0.116670 0.510620 0.250840 1.050145
Cr12  Cr    Cr6+3 0.883330 0.510620 0.749160 1.051065
H1    H     H_    0.504541 0.965961 0.062169 0.188551
H2    H     H_    0.496081 0.966034 0.937533 0.188533
H3    H     H_    0.004541 0.465961 0.062169 0.188551
H4    H     H_    0.996081 0.466034 0.937533 0.188533
H5    H     H_    0.825837 0.068510 0.577502 0.160801
H6    H     H_    0.124897 0.911638 0.448850 0.163178
H7    H     H_    0.325843 0.568503 0.577500 0.160803
H8    H     H_    0.624897 0.411645 0.448849 0.163176
H9    H     H_    0.671849 0.777131 0.560321 0.171657
H10   H     H_    0.351251 0.874896 0.427993 0.173683
H11   H     H_    0.171844 0.277141 0.560323 0.171654
H12   H     H_    0.851250 0.374888 0.427994 0.173690
H13   H     H_    0.665536 0.810019 0.432678 0.143883
H14   H     H_    0.363103 0.902262 0.555670 0.157443
H15   H     H_    0.165531 0.310028 0.432680 0.143883
H16   H     H_    0.863102 0.402255 0.555671 0.157444
H17   H     H_    0.520763 0.395428 0.871060 0.170192
H18   H     H_    0.479088 0.395213 0.129128 0.166036
H19   H     H_    0.020763 0.895428 0.871060 0.170192
H20   H     H_    0.979088 0.895213 0.129128 0.166036
H21   H     H_    0.656812 0.818945 0.067698 0.161539
H22   H     H_    0.343100 0.818812 0.932174 0.161665
H23   H     H_    0.156811 0.318946 0.067698 0.161539
H24   H     H_    0.843101 0.318813 0.932174 0.161665
H25   H     H_    0.663334 0.791132 0.939076 0.169470
H26   H     H_    0.336569 0.790920 0.060778 0.169392
H27   H     H_    0.163333 0.291134 0.939076 0.169470
H28   H     H_    0.836570 0.290921 0.060778 0.169392
H29   H     H_    0.838415 0.046132 0.930680 0.169178
H30   H     H_    0.161579 0.046045 0.069387 0.169245
H31   H     H_    0.338417 0.546129 0.930681 0.169179
H32   H     H_    0.661578 0.546043 0.069387 0.169245
H33   H     H_    0.835662 0.065669 0.055893 0.175655
H34   H     H_    0.164357 0.065702 0.944183 0.175636
H35   H     H_    0.335664 0.565666 0.055893 0.175656
H36   H     H_    0.664356 0.565700 0.944183 0.175636
H37   H     H_    0.557981 0.977741 0.449909 0.149520
H38   H     H_    0.539069 0.983649 0.575564 0.141088
H39   H     H_    0.057992 0.477749 0.449911 0.149517
H40   H     H_    0.039078 0.483657 0.575567 0.141084
H41   H     H_    0.459911 0.354729 0.558142 0.167105
H42   H     H_    0.481709 0.350280 0.430363 0.144244
H43   H     H_    0.959900 0.854723 0.558139 0.167098
H44   H     H_    0.981699 0.850274 0.430360 0.144241
O1    O     O_R   0.787540 0.042690 0.170470 -0.515120
O2    O     O_R   0.212460 0.042690 0.829530 -0.508928
O3    O     O_R   0.287540 0.542690 0.170470 -0.515120
O4    O     O_R   0.712460 0.542690 0.829530 -0.508928
O5    O     O_R   0.556540 0.252920 0.323970 -0.506516
O6    O     O_R   0.443460 0.252920 0.676030 -0.493541
O7    O     O_R   0.056540 0.752920 0.323970 -0.506516
O8    O     O_R   0.943460 0.752920 0.676030 -0.493540
O9    O     O_R   0.545870 0.051100 0.330840 -0.518800
O10   O     O_R   0.454130 0.051100 0.669160 -0.524502
O11   O     O_R   0.045870 0.551100 0.330840 -0.518800
O12   O     O_R   0.954130 0.551100 0.669160 -0.524501
O13   O     O_R   0.681340 0.959300 0.325510 -0.523020
O14   O     O_R   0.318660 0.959300 0.674490 -0.523637
O15   O     O_R   0.181340 0.459300 0.325510 -0.523022
O16   O     O_R   0.818660 0.459300 0.674490 -0.523637
O17   O     O_3   0.667880 0.167870 0.250070 -0.267755
O18   O     O_3   0.332120 0.167870 0.749930 -0.266598
O19   O     O_3   0.167880 0.667870 0.250070 -0.267756
O20   O     O_3   0.832120 0.667870 0.749930 -0.266598
O21   O     O_R   0.765660 0.292160 0.175050 -0.501661
O22   O     O_R   0.234340 0.292160 0.824950 -0.500692
O23   O     O_R   0.265660 0.792160 0.175050 -0.501661
O24   O     O_R   0.734340 0.792160 0.824950 -0.500691
O25   O     O_R   0.670190 0.408980 0.168550 -0.509954
O26   O     O_R   0.329810 0.408980 0.831450 -0.510695
O27   O     O_R   0.170190 0.908980 0.168550 -0.509954
O28   O     O_R   0.829810 0.908980 0.831450 -0.510695
O29   O     O_R   0.556580 0.251450 0.175160 -0.506466
O30   O     O_R   0.443420 0.251450 0.824840 -0.505417
O31   O     O_R   0.056580 0.751450 0.175160 -0.506466
O32   O     O_R   0.943420 0.751450 0.824840 -0.505416
O33   O     O_R   0.545920 0.049510 0.170320 -0.503588
O34   O     O_R   0.454080 0.049510 0.829680 -0.504949
O35   O     O_R   0.045920 0.549510 0.170320 -0.503588
O36   O     O_R   0.954080 0.549510 0.829680 -0.504949
O37   O     O_R   0.681390 0.957840 0.176710 -0.497234
O38   O     O_R   0.318610 0.957840 0.823290 -0.497814
O39   O     O_R   0.181390 0.457840 0.176710 -0.497234
O40   O     O_R   0.818610 0.457840 0.823290 -0.497814
O41   O     O_R   0.787500 0.044280 0.330990 -0.436083
O42   O     O_R   0.212500 0.044280 0.669010 -0.444572
O43   O     O_R   0.287500 0.544280 0.330990 -0.436080
O44   O     O_R   0.712500 0.544280 0.669010 -0.444571
O45   O     O_R   0.765610 0.293630 0.323860 -0.466275
O46   O     O_R   0.234390 0.293630 0.676140 -0.501545
O47   O     O_R   0.265610 0.793630 0.323860 -0.466278
O48   O     O_R   0.734390 0.793630 0.676140 -0.501545
O49   O     O_R   0.670140 0.410570 0.329080 -0.528938
O50   O     O_R   0.329860 0.410570 0.670920 -0.521329
O51   O     O_R   0.170140 0.910570 0.329080 -0.528937
O52   O     O_R   0.829860 0.910570 0.670920 -0.521328
F1    F     F_    0.831786 0.114826 0.446438 -0.629870
F2    F     F_    0.123781 0.937104 0.583252 -0.628154
F3    F     F_    0.331792 0.614815 0.446436 -0.629866
F4    F     F_    0.623780 0.437111 0.583251 -0.628158
Br1   Br    Br    0.012865 0.152385 0.911092 -0.565352
Br2   Br    Br    0.986895 0.152239 0.089394 -0.568804
Br3   Br    Br    0.512865 0.652384 0.911092 -0.565352
Br4   Br    Br    0.486896 0.652239 0.089394 -0.568803

loop_
_geom_bond_atom_site_label_1
_geom_bond_atom_site_label_2
_ccdc_geom_bond_type
C52   H44   S    
C89   O41   A    
C62   C83   S    
C15   C19   A    
C58   C62   A    
C101  C102  A    
C56   C76   A    
C48   C95   S    
C55   C59   A    
C8    H20   S    
C77   O37   A    
C14   C18   A    
C81   O49   A    
C53   F1    S    
C86   O6    A    
C89   O13   A    
C72   C76   A    
C33   C77   S    
C97   C98   A    
C71   C75   A    
Cr6   O50   S    
C50   H42   S    
C5    H17   S    
C41   C86   S    
Cr4   O4    S    
Cr4   O20   S    
C7    C99   A    
C88   O12   A    
C43   C88   S    
Cr8   O52   S    
C47   O35   A    
C5    C11   A    
C67   H11   S    
C55   F3    S    
Cr12  O40   S    
C95   C99   A    
C30   H34   S    
Cr8   O32   S    
Cr6   O18   S    
Cr8   O8    S    
C29   C33   A    
C70   H14   S    
Cr12  O12   S    
C17   H25   S    
C2    O22   A    
C81   O45   A    
C15   C35   A    
C37   C42   A    
C26   H30   S    
C20   H28   S    
Cr10  O10   S    
C80   O4    A    
C83   O47   A    
C103  C104  A    
Cr1   O21   S    
C54   C74   A    
Cr9   O37   S    
C40   C43   A    
Cr2   O22   S    
C14   H22   S    
C94   C101  A    
Cr5   O29   S    
Cr10  O18   S    
C70   C74   A    
Cr11  O15   S    
Cr4   O48   S    
C46   O34   A    
C23   C27   A    
C44   C87   S    
C9    C10   A    
C68   H12   S    
C11   Br3   S    
Cr3   O47   S    
C92   O44   A    
C75   C91   S    
Cr8   O20   S    
C55   C75   A    
C44   C52   A    
Cr9   O17   S    
C18   C22   A    
C48   O36   A    
Cr7   O19   S    
Cr7   O27   S    
C49   H41   S    
Cr3   O43   S    
C16   H24   S    
C74   C90   S    
C46   O30   A    
Cr5   O49   S    
C45   C94   S    
C41   C49   A    
C59   H7    S    
C85   O9    A    
C72   H16   S    
C15   H23   S    
C83   O51   A    
C25   C29   A    
C63   C67   A    
C58   H6    S    
C79   O39   A    
C30   C34   A    
C63   C82   S    
C27   C31   A    
C51   C52   A    
C6    C98   A    
C20   C24   A    
Cr7   O31   S    
C18   H26   S    
C62   C66   A    
C38   C41   A    
Cr11  O11   S    
C21   C25   A    
C36   C80   S    
C47   C96   S    
Cr1   O17   S    
C39   C40   A    
C1    O21   A    
C82   O50   A    
Cr9   O9    S    
C88   O8    A    
Cr11  O39   S    
Cr6   O30   S    
Cr11  O19   S    
C56   C60   A    
C48   O32   A    
C39   H39   S    
C68   C72   A    
C45   O33   A    
C13   H21   S    
C19   C23   A    
C2    O26   A    
Cr2   O46   S    
C37   C38   A    
C37   H37   S    
Cr2   O42   S    
C31   H35   S    
C84   O48   A    
C93   C97   A    
Cr1   O41   S    
C99   C100  A    
C32   H36   S    
C28   C32   A    
C16   C20   A    
C87   O11   A    
C7    C9    A    
C84   O52   A    
C91   O15   A    
Cr4   O44   S    
C42   C85   S    
C4    O24   A    
C69   C73   A    
Cr5   O5    S    
C76   C92   S    
Cr12  O16   S    
C45   O29   A    
C42   C50   A    
C78   O2    A    
Cr12  O20   S    
Cr10  O38   S    
C49   C50   A    
Cr1   O1    S    
C35   C79   S    
C34   C78   S    
Cr7   O7    S    
C38   H38   S    
C64   C68   A    
C82   O46   A    
C95   C104  A    
C10   Br2   S    
Cr9   O13   S    
Cr8   O28   S    
C54   C58   A    
C9    Br1   S    
C54   F2    S    
Cr11  O35   S    
Cr6   O26   S    
C19   H27   S    
Cr10  O34   S    
C80   O40   A    
Cr3   O19   S    
C86   O10   A    
C28   H32   S    
Cr9   O33   S    
C92   O16   A    
C8    C10   A    
C103  H3    S    
C24   C28   A    
C79   O3    A    
C61   C84   S    
C53   C57   A    
C93   C102  A    
C14   C34   A    
C11   C12   A    
C32   C36   A    
C57   C61   A    
C39   C44   A    
Cr1   O45   S    
C1    O25   A    
C73   C89   S    
C87   O7    A    
Cr5   O25   S    
C90   O14   A    
C59   C63   A    
C13   C17   A    
C60   C64   A    
C85   O5    A    
C4    O28   A    
Cr4   O24   S    
C8    C100  A    
C66   H10   S    
C101  H1    S    
C6    H18   S    
C27   H31   S    
C1    C24   S    
C16   C36   A    
C6    C12   A    
C4    C21   S    
Cr6   O6    S    
C43   C51   A    
C66   C70   A    
C46   C93   S    
C3    O23   A    
C65   C69   A    
C53   C73   A    
C96   C100  A    
C31   C35   A    
C51   H43   S    
C77   O1    A    
Cr2   O18   S    
C5    C97   A    
C67   C71   A    
Cr2   O2    S    
C47   O31   A    
C102  H2    S    
Cr7   O51   S    
C64   C81   S    
C56   F4    S    
C29   H33   S    
C7    H19   S    
C57   H5    S    
Cr12  O36   S    
C61   C65   A    
Cr10  O14   S    
C71   H15   S    
C69   H13   S    
C13   C33   A    
C22   C26   A    
C96   C103  A    
Cr3   O23   S    
C2    C23   S    
C60   H8    S    
Cr5   O17   S    
C94   C98   A    
C40   H40   S    
C3    C22   S    
C25   H29   S    
Cr3   O3    S    
C78   O38   A    
C90   O42   A    
C3    O27   A    
C12   Br4   S    
C91   O43   A    
C65   H9    S    
C104  H4    S    
C26   C30   A    
C17   C21   A    
