data_mof_unit_4415.cif
_audit_creation_date              2012-12-10T19:44:28-0500
_audit_creation_method            fapswitch 2.2
_symmetry_space_group_name_H-M    P1
_symmetry_Int_Tables_number       1
_space_group_crystal_system       triclinic
_cell_length_a                    10.920886
_cell_length_b                    12.522511
_cell_length_c                    13.416718
_cell_angle_alpha                 117.752751
_cell_angle_beta                  74.610171
_cell_angle_gamma                 100.988592
_cell_volume                      1560.69678626

loop_
_atom_site_label
_atom_site_type_symbol
_atom_type_description
_atom_site_fract_x
_atom_site_fract_y
_atom_site_fract_z
_atom_type_partial_charge
C1    C     C_R   0.513104 0.854899 0.286984 0.794800
C2    C     C_R   0.676524 0.763146 0.757571 -0.200294
C3    C     C_R   0.036021 0.936870 0.548793 -0.251366
C4    C     C_R   0.126851 0.010518 0.509276 -0.133285
C5    C     C_R   0.085975 0.096267 0.485491 0.008087
C6    C     C_R   0.954051 0.111929 0.514286 0.108789
C7    C     C_R   0.865922 0.019605 0.528963 -0.157368
C8    C     C_R   0.906761 0.939046 0.557728 0.010943
C9    C     C_R   0.206167 0.261408 0.426568 -0.029884
C10   C     C_R   0.260450 0.297670 0.338543 -0.003481
C11   C     C_R   0.289839 0.211628 0.225119 -0.237933
C12   C     C_R   0.734464 0.007537 0.511487 0.826423
C13   C     C_R   0.259849 0.089293 0.196295 -0.140861
C14   C     C_R   0.196710 0.049350 0.280448 0.176815
C15   C     C_R   0.168589 0.136824 0.398237 0.045302
C16   C     C_R   0.278773 0.303785 0.006804 -0.205898
C17   C     C_R   0.441751 0.230881 0.833979 -0.031002
C18   C     C_R   0.638634 0.798121 0.090525 -0.181114
C19   C     C_R   0.688240 0.709783 0.983847 -0.167621
C20   C     C_R   0.632180 0.592218 0.945461 -0.196145
C21   C     C_R   0.521046 0.561311 0.012954 0.082328
C22   C     C_R   0.469107 0.653712 0.121726 0.072536
C23   C     C_R   0.477652 0.145231 0.712976 0.758639
C24   C     C_R   0.459486 0.442169 0.975907 0.085141
C25   C     C_R   0.342496 0.419868 0.043396 0.152745
C26   C     C_R   0.288580 0.514035 0.145371 -0.212055
C27   C     C_R   0.351541 0.628844 0.184941 -0.179560
C28   C     C_R   0.508632 0.344741 0.872384 -0.233310
C29   C     C_R   0.328079 0.209820 0.902632 -0.196095
C30   C     C_R   0.534696 0.770244 0.163531 -0.097387
C31   C     C_R   0.667882 0.317427 0.297534 -0.328012
C32   C     C_R   0.341231 0.768661 0.661813 0.352629
C33   C     C_R   0.351647 0.702639 0.718706 -0.186990
C34   C     C_R   0.262479 0.001609 0.501078 0.775215
C35   C     C_R   0.426554 0.606317 0.663099 -0.219760
C36   C     C_R   0.483944 0.566240 0.546413 -0.005253
C37   C     C_R   0.500285 0.653063 0.500969 0.244846
C38   C     C_R   0.534290 0.448595 0.477162 -0.066067
C39   C     C_R   0.606855 0.423940 0.365822 0.129657
C40   C     C_R   0.628576 0.508847 0.324311 -0.291405
C41   C     C_R   0.589044 0.624491 0.392224 -0.018789
C42   C     C_R   0.512892 0.350442 0.508417 0.062407
C43   C     C_R   0.654780 0.231764 0.337306 0.158890
C44   C     C_R   0.674700 0.888069 0.798237 0.192095
C45   C     C_R   0.745912 0.943589 0.728889 -0.124645
C46   C     C_R   0.818502 0.875223 0.620398 0.075021
C47   C     C_R   0.823795 0.751136 0.582908 -0.186594
C48   C     C_R   0.754471 0.695247 0.652271 0.187066
Cu1   Cu    Cu3+1 0.529370 0.098270 0.475420 0.962997
Cu2   Cu    Cu3+1 0.470630 0.901730 0.524580 0.943348
H1    H     H_    0.622746 0.719607 0.810630 0.139889
H2    H     H_    0.333345 0.239881 0.157983 0.159152
H3    H     H_    0.282302 0.026862 0.106429 0.153929
H4    H     H_    0.273980 0.122911 0.873285 0.148336
H5    H     H_    0.197172 0.498624 0.195314 0.153661
H6    H     H_    0.189008 0.286415 0.057612 0.137873
H7    H     H_    0.596772 0.354841 0.816800 0.121434
H8    H     H_    0.685954 0.887145 0.117608 0.181738
H9    H     H_    0.676857 0.529151 0.861530 0.132884
H10   H     H_    0.772154 0.732847 0.931222 0.150947
H11   H     H_    0.305284 0.698985 0.264149 0.161549
H12   H     H_    0.689589 0.487300 0.239576 0.150075
H13   H     H_    0.730592 0.303329 0.215337 0.138596
H14   H     H_    0.439827 0.566940 0.715065 0.153445
H15   H     H_    0.300018 0.722178 0.805318 0.164837
H16   H     H_    0.750415 0.040982 0.761313 0.113805
H17   H     H_    0.886778 0.699635 0.502815 0.137903
H18   H     H_    0.065145 0.876640 0.573435 0.164506
N1    N     N_R   0.573890 0.246290 0.438210 -0.230929
N2    N     N_R   0.426890 0.754320 0.561170 -0.229664
O1    O     O_R   0.536940 0.972510 0.318130 -0.572684
O2    O     O_R   0.487330 0.806530 0.359650 -0.575805
O3    O     O_R   0.705160 0.082990 0.479250 -0.560938
O4    O     O_R   0.655550 0.917010 0.520760 -0.576016
O5    O     O_R   0.512670 0.193470 0.640350 -0.582541
O6    O     O_R   0.463060 0.027490 0.681870 -0.607234
O7    O     O_R   0.344450 0.082990 0.479240 -0.568254
O8    O     O_R   0.294840 0.917010 0.520750 -0.612440
C49   C     C_3   0.155251 0.915076 0.246014 -0.388165
C50   C     C_3   0.177236 0.830835 0.116903 -0.854786
H19   H     H_    0.125843 0.859339 0.073107 0.259463
H20   H     H_    0.280706 0.829320 0.077982 0.246314
H21   H     H_    0.139971 0.737212 0.103645 0.256644
H22   H     H_    0.207555 0.880846 0.284338 0.184657
H23   H     H_    0.051654 0.905470 0.281402 0.227093
C51   C     C_3   0.609634 0.963228 0.920158 -0.435605
C52   C     C_3   0.512935 0.039105 0.925261 -0.813216
H24   H     H_    0.560375 0.101911 0.887338 0.250505
H25   H     H_    0.436600 0.980207 0.879402 0.262252
H26   H     H_    0.470881 0.094914 0.016177 0.237924
H27   H     H_    0.559839 0.905098 0.963347 0.209671
H28   H     H_    0.682828 0.024202 0.969373 0.203129
C53   C     C_1   0.738111 0.135221 0.276197 0.268110
N3    N     N_1   0.809161 0.060749 0.228061 -0.331868
C54   C     C_1   0.422386 0.352690 0.608950 0.313950
N4    N     N_1   0.350127 0.354640 0.690462 -0.276051
C55   C     C_3   0.229436 0.845445 0.704884 -0.356433
C56   C     C_3   0.144038 0.860971 0.820920 -0.970378
H29   H     H_    0.099869 0.772088 0.817465 0.271423
H30   H     H_    0.199543 0.906813 0.890353 0.250048
H31   H     H_    0.066063 0.918080 0.841798 0.261006
H32   H     H_    0.260925 0.936935 0.712399 0.239858
H33   H     H_    0.169016 0.799960 0.639748 0.206282
C57   C     C_1   0.673262 0.704023 0.349487 0.348321
N5    N     N_1   0.745627 0.760520 0.308607 -0.311414
C58   C     C_3   0.779748 0.569637 0.623930 -0.427153
C59   C     C_3   0.899268 0.574968 0.665427 -0.816180
H34   H     H_    0.986127 0.584817 0.603653 0.259778
H35   H     H_    0.901813 0.652281 0.751080 0.247701
H36   H     H_    0.899854 0.491649 0.674229 0.252916
H37   H     H_    0.697546 0.527612 0.666468 0.192774
H38   H     H_    0.792722 0.511953 0.529685 0.206591
C60   C     C_3   0.908143 0.236664 0.559668 -0.359741
C61   C     C_3   0.913486 0.275424 0.465859 -0.754173
H39   H     H_    0.944894 0.202866 0.378774 0.264147
H40   H     H_    0.818466 0.300460 0.474093 0.242314
H41   H     H_    0.979348 0.356898 0.475562 0.229514
H42   H     H_    0.810280 0.243923 0.613005 0.189203
H43   H     H_    0.961000 0.302533 0.625631 0.193606
C62   C     C_1   0.182137 0.355430 0.543484 0.224288
N6    N     N_1   0.162405 0.433177 0.635688 -0.294467
C63   C     C_1   0.274585 0.423683 0.361895 0.218566
N7    N     N_1   0.283260 0.524703 0.381455 -0.301019

loop_
_geom_bond_atom_site_label_1
_geom_bond_atom_site_label_2
_ccdc_geom_bond_type
C52   H24   S    
C53   N3    T    
C12   O4    A    
C17   C29   A    
C54   N4    T    
C23   O6    A    
C26   H5    S    
C61   H39   S    
C33   H15   S    
C7    C8    A    
C58   H38   S    
C45   C46   A    
C62   N6    T    
C26   C27   A    
C17   C23   S    
C31   C43   A    
C36   C37   A    
C3    H18   S    
C38   C42   A    
C51   H27   S    
Cu2   O4    S    
C34   O7    A    
C5    C6    A    
C58   C59   S    
C40   H12   S    
C32   C55   S    
C18   C19   A    
Cu2   O2    S    
C11   H2    S    
C27   H11   S    
C43   C53   S    
C60   H43   S    
C18   H8    S    
C48   C58   S    
C19   C20   A    
C2    C44   A    
C12   O3    A    
C59   H34   S    
Cu1   O5    S    
C35   H14   S    
C18   C30   A    
C9    C10   A    
C55   H32   S    
C43   N1    A    
Cu1   N1    S    
C21   C22   A    
C37   C41   A    
C59   H35   S    
C50   H21   S    
C44   C51   S    
Cu2   O8    S    
C47   H17   S    
C57   N5    T    
C55   C56   S    
C13   H3    S    
C58   H37   S    
C7    C12   S    
C4    C34   S    
C1    O2    A    
C42   C54   S    
C31   H13   S    
C24   C25   A    
C50   H20   S    
C3    C8    A    
C10   C11   A    
C39   C40   A    
C51   C52   S    
C50   H19   S    
C32   N2    A    
C2    C48   A    
C16   C29   A    
C28   H7    S    
C42   N1    A    
C60   H42   S    
C35   C36   A    
C16   H6    S    
C6    C60   S    
C49   H22   S    
Cu2   O6    S    
C47   C48   A    
C1    O1    A    
C14   C49   S    
C20   H9    S    
C55   H33   S    
C40   C41   A    
Cu1   Cu2   S    
C56   H30   S    
C22   C27   A    
C52   H25   S    
Cu1   O1    S    
C59   H36   S    
Cu1   O3    S    
C52   H26   S    
C3    C4    A    
C49   H23   S    
C44   C45   A    
C60   C61   S    
C16   C25   A    
C46   C47   A    
C22   C30   A    
C17   C28   A    
C24   C28   A    
C23   O5    A    
C4    C5    A    
C10   C63   S    
C61   H40   S    
C6    C7    A    
C19   H10   S    
C56   H31   S    
C41   C57   S    
C37   N2    A    
C32   C33   A    
C36   C38   A    
C25   C26   A    
C51   H28   S    
C34   O8    A    
C11   C13   A    
C38   C39   A    
C1    C30   S    
C33   C35   A    
Cu1   O7    S    
C9    C15   A    
C8    C46   S    
Cu2   N2    S    
C5    C15   S    
C61   H41   S    
C2    H1    S    
C49   C50   S    
C20   C21   A    
C56   H29   S    
C29   H4    S    
C21   C24   A    
C45   H16   S    
C31   C39   A    
C9    C62   S    
C14   C15   A    
C63   N7    T    
C13   C14   A    
