data_mof_unit_2069.cif
_audit_creation_date              2012-10-26T21:26:38-0400
_audit_creation_method            fapswitch 2.2
_symmetry_space_group_name_H-M    P1
_symmetry_Int_Tables_number       1
_space_group_crystal_system       triclinic
_cell_length_a                    15.884524
_cell_length_b                    18.053196
_cell_length_c                    29.153192
_cell_angle_alpha                 89.998174
_cell_angle_beta                  90.004903
_cell_angle_gamma                 90.717489
_cell_volume                      8359.50112981

loop_
_atom_site_label
_atom_site_type_symbol
_atom_type_description
_atom_site_fract_x
_atom_site_fract_y
_atom_site_fract_z
_atom_type_partial_charge
C1    C     C_R   0.499618 0.390245 0.059035 0.539017
C2    C     C_1   0.423624 0.996540 0.756818 -0.002436
C3    C     C_3   0.543818 0.232107 0.348905 -0.262772
C4    C     C_3   0.585314 0.308778 0.349340 -0.483140
C5    C     C_3   0.428714 0.812762 0.307297 -0.001220
C6    C     C_3   0.456434 0.768043 0.349126 -0.262760
C7    C     C_3   0.415016 0.691341 0.349630 -0.483138
C8    C     C_3   0.357321 0.186064 0.264682 0.030495
C9    C     C_3   0.277586 0.225570 0.249223 -0.280294
C10   C     C_3   0.274769 0.304317 0.268112 -0.486350
C11   C     C_3   0.642683 0.813928 0.264648 0.030420
C12   C     C_3   0.722419 0.774412 0.249209 -0.280257
C13   C     C_1   0.503216 0.878038 0.836537 0.065032
C14   C     C_3   0.725210 0.695663 0.268098 -0.486355
C15   C     C_1   0.496679 0.121951 0.836573 0.064990
C16   C     C_1   0.357619 0.992618 0.736496 -0.010259
C17   C     C_1   0.642191 0.007560 0.736496 -0.010229
C18   C     C_R   0.585231 0.058835 0.308454 0.224167
C19   C     C_R   0.414854 0.941203 0.308540 0.224164
C20   C     C_R   0.361591 0.058763 0.278831 0.278944
C21   C     C_R   0.638430 0.941227 0.278795 0.279000
C22   C     C_R   0.643870 0.055140 0.344449 -0.111437
C23   C     C_R   0.500387 0.609754 0.059034 0.539043
C24   C     C_R   0.356222 0.944914 0.344532 -0.111465
C25   C     C_R   0.298848 0.056214 0.313170 -0.116237
C26   C     C_R   0.701174 0.943779 0.313140 -0.116128
C27   C     C_R   0.580830 0.110260 0.203965 -0.132805
C28   C     C_R   0.419007 0.889597 0.204105 -0.132877
C29   C     C_R   0.446389 0.073111 0.172520 -0.071756
C30   C     C_R   0.553355 0.926691 0.172530 -0.071834
C31   C     C_R   0.597012 0.153860 0.164968 0.211964
C32   C     C_R   0.402690 0.845959 0.165142 0.211971
C33   C     C_R   0.459262 0.119911 0.134295 0.234590
C34   C     C_R   0.723547 0.013546 0.715082 -0.038881
C35   C     C_R   0.540350 0.879849 0.134337 0.234528
C36   C     C_R   0.500402 0.610970 0.942181 0.554178
C37   C     C_R   0.499593 0.389032 0.942183 0.554163
C38   C     C_3   0.499972 0.999964 0.242216 0.051281
C39   C     C_R   0.578092 0.999633 0.275745 0.078443
C40   C     C_R   0.421931 0.000357 0.275793 0.078421
C41   C     C_R   0.701786 0.998616 0.346575 -0.049919
C42   C     C_R   0.298261 0.001404 0.346623 -0.049948
C43   C     C_R   0.506337 0.067138 0.208318 0.000431
C44   C     C_R   0.493516 0.932724 0.208373 0.000318
C45   C     C_R   0.276258 0.986780 0.715065 -0.038867
C46   C     C_R   0.536403 0.157988 0.130171 0.054257
C47   C     C_R   0.463184 0.841787 0.130294 0.054242
C48   C     C_1   0.237105 0.001949 0.383105 -0.057090
C49   C     C_1   0.762925 0.998065 0.383072 -0.057088
C50   C     C_1   0.185878 0.001342 0.413635 -0.022325
C51   C     C_1   0.814136 0.998665 0.413616 -0.022330
C52   C     C_1   0.556441 0.196656 0.088136 0.068878
C53   C     C_1   0.442985 0.803099 0.088288 0.068841
C54   C     C_1   0.573818 0.227531 0.052659 0.002193
C55   C     C_1   0.425462 0.772209 0.052837 0.002287
C56   C     C_R   0.886277 0.031709 0.680000 0.222497
C57   C     C_R   0.123416 0.000375 0.449202 0.550660
C58   C     C_R   0.876584 0.999627 0.449198 0.550657
C59   C     C_R   0.564008 0.800670 0.897410 0.242739
C60   C     C_R   0.436112 0.199240 0.897543 0.242639
C61   C     C_R   0.441007 0.755759 0.854722 0.223405
C62   C     C_R   0.558759 0.244326 0.854640 0.223430
C63   C     C_R   0.892807 0.999688 0.569203 0.569348
C64   C     C_R   0.107199 0.000311 0.569202 0.569011
C65   C     C_R   0.562061 0.734348 0.923146 -0.138711
C66   C     C_R   0.438080 0.265562 0.923270 -0.138598
C67   C     C_R   0.113492 0.969038 0.679945 0.222696
C68   C     C_R   0.441268 0.689886 0.880020 -0.123305
C69   C     C_R   0.558529 0.310200 0.879936 -0.123385
C70   C     C_R   0.785798 0.962077 0.725771 -0.140955
C71   C     C_R   0.214344 0.038718 0.725453 -0.140919
C72   C     C_R   0.256810 0.926219 0.686813 -0.155132
C73   C     C_R   0.742641 0.073852 0.686554 -0.155119
C74   C     C_R   0.867736 0.970886 0.708028 0.213670
C75   C     C_R   0.132389 0.030119 0.707689 0.213841
C76   C     C_R   0.174771 0.916893 0.669267 0.191536
C77   C     C_R   0.824658 0.083389 0.669023 0.191324
C78   C     C_1   0.502410 0.933690 0.813736 0.008175
C79   C     C_3   0.499918 0.000017 0.784958 -0.008342
C80   C     C_R   0.502710 0.810836 0.863253 0.052486
C81   C     C_R   0.497222 0.189154 0.863284 0.052432
C82   C     C_R   0.501788 0.678753 0.914133 -0.062268
C83   C     C_R   0.498191 0.321243 0.914150 -0.062220
C84   C     C_3   0.701037 0.837731 0.918628 0.008379
C85   C     C_3   0.718158 0.853131 0.969482 -0.254312
C86   C     C_3   0.806627 0.829780 0.983193 -0.494515
C87   C     C_3   0.299191 0.162029 0.918797 0.008292
C88   C     C_3   0.281959 0.146655 0.969640 -0.254154
C89   C     C_1   0.497453 0.066311 0.813764 0.008150
C90   C     C_3   0.193386 0.169847 0.983252 -0.494544
C91   C     C_3   0.313035 0.801419 0.835507 0.004226
C92   C     C_3   0.254068 0.815735 0.795156 -0.246681
C93   C     C_3   0.180706 0.864796 0.808880 -0.471143
C94   C     C_3   0.686761 0.198976 0.835217 0.004207
C95   C     C_3   0.745553 0.184806 0.794776 -0.246693
C96   C     C_3   0.819260 0.136078 0.808418 -0.471018
C97   C     C_3   0.742667 0.147752 0.162006 0.006327
C98   C     C_3   0.800479 0.171139 0.201528 -0.256954
C99   C     C_3   0.876897 0.121001 0.204845 -0.488102
C100  C     C_1   0.576193 0.003550 0.756814 -0.002333
C101  C     C_3   0.257027 0.852092 0.162307 0.006317
C102  C     C_3   0.199348 0.828761 0.201895 -0.256955
C103  C     C_3   0.122967 0.878931 0.205269 -0.488086
C104  C     C_3   0.318066 0.123675 0.110941 0.004158
C105  C     C_3   0.274266 0.050776 0.097576 -0.261340
C106  C     C_3   0.185527 0.045584 0.117422 -0.499439
C107  C     C_3   0.681472 0.876048 0.110864 0.004201
C108  C     C_3   0.725227 0.948933 0.097432 -0.261308
C109  C     C_3   0.814018 0.954159 0.117213 -0.499452
C110  C     C_3   0.571469 0.187276 0.307111 -0.001238
Cu1   Cu    Cu3+1 0.415470 0.500000 0.000080 0.935388
Cu2   Cu    Cu3+1 0.584530 0.500000 0.000080 0.935374
Cu3   Cu    Cu3+1 1.000000 0.072960 0.508900 0.976523
Cu4   Cu    Cu3+1 0.000000 0.927040 0.508900 0.976236
H1    H     H_    0.605628 0.726458 0.951177 0.129781
H2    H     H_    0.355175 0.902635 0.370860 0.123372
H3    H     H_    0.724129 0.772175 0.211124 0.160699
H4    H     H_    0.778971 0.805626 0.261155 0.156540
H5    H     H_    0.725384 0.696587 0.306200 0.146168
H6    H     H_    0.783423 0.668312 0.256093 0.150026
H7    H     H_    0.669893 0.662969 0.255883 0.146950
H8    H     H_    0.250760 0.098133 0.314241 0.112960
H9    H     H_    0.749244 0.901845 0.314228 0.112940
H10   H     H_    0.630724 0.106787 0.228791 0.117380
H11   H     H_    0.369190 0.893102 0.228969 0.117394
H12   H     H_    0.391207 0.037508 0.173534 0.131417
H13   H     H_    0.608543 0.962291 0.173478 0.131512
H14   H     H_    0.908104 0.882248 0.738008 0.319562
H15   H     H_    0.092576 0.119367 0.737186 0.319628
H16   H     H_    0.202257 0.825788 0.637723 0.321984
H17   H     H_    0.394652 0.273379 0.951370 0.129790
H18   H     H_    0.796609 0.173937 0.637012 0.321962
H19   H     H_    0.745310 0.872374 0.898051 0.148970
H20   H     H_    0.715488 0.779278 0.909483 0.116481
H21   H     H_    0.711314 0.913372 0.976151 0.177924
H22   H     H_    0.671581 0.822975 0.991155 0.182877
H23   H     H_    0.814213 0.769316 0.977819 0.150237
H24   H     H_    0.817281 0.842361 0.020031 0.142345
H25   H     H_    0.854462 0.860436 0.962593 0.146110
H26   H     H_    0.255024 0.127323 0.898190 0.148981
H27   H     H_    0.284676 0.220466 0.909635 0.116467
H28   H     H_    0.394484 0.647298 0.872749 0.144765
H29   H     H_    0.288940 0.086439 0.976350 0.178112
H30   H     H_    0.328395 0.176937 0.991340 0.182975
H31   H     H_    0.185659 0.230287 0.977839 0.150229
H32   H     H_    0.182649 0.157291 0.020086 0.142340
H33   H     H_    0.145689 0.139070 0.962621 0.146112
H34   H     H_    0.331469 0.855734 0.850984 0.136535
H35   H     H_    0.278937 0.767360 0.861602 0.131704
H36   H     H_    0.290132 0.843373 0.767261 0.188802
H37   H     H_    0.229129 0.762078 0.781880 0.176213
H38   H     H_    0.143522 0.838245 0.836790 0.144593
H39   H     H_    0.605180 0.352861 0.872582 0.144642
H40   H     H_    0.138953 0.873203 0.778817 0.178470
H41   H     H_    0.204383 0.919784 0.820607 0.153646
H42   H     H_    0.668617 0.144620 0.850738 0.136525
H43   H     H_    0.720883 0.233155 0.861247 0.131703
H44   H     H_    0.709459 0.156966 0.766966 0.188831
H45   H     H_    0.770133 0.238531 0.781411 0.176319
H46   H     H_    0.856504 0.162864 0.836223 0.144690
H47   H     H_    0.860852 0.127740 0.778285 0.178473
H48   H     H_    0.795943 0.081039 0.820259 0.153608
H49   H     H_    0.777375 0.154886 0.129181 0.149076
H50   H     H_    0.770921 0.915997 0.748316 0.112888
H51   H     H_    0.727514 0.087432 0.165044 0.110538
H52   H     H_    0.822196 0.229250 0.196108 0.173325
H53   H     H_    0.765242 0.168536 0.234422 0.154655
H54   H     H_    0.856558 0.063027 0.211962 0.148185
H55   H     H_    0.918315 0.140176 0.233253 0.147053
H56   H     H_    0.913383 0.122679 0.172345 0.142575
H57   H     H_    0.222200 0.844928 0.129519 0.149055
H58   H     H_    0.272206 0.912413 0.165302 0.110533
H59   H     H_    0.177584 0.770653 0.196517 0.173309
H60   H     H_    0.234706 0.831380 0.234752 0.154672
H61   H     H_    0.229492 0.085009 0.747780 0.112886
H62   H     H_    0.143360 0.936903 0.212346 0.148183
H63   H     H_    0.081643 0.859795 0.233724 0.147077
H64   H     H_    0.086363 0.877238 0.172805 0.142576
H65   H     H_    0.287492 0.169302 0.091849 0.141301
H66   H     H_    0.308382 0.136560 0.147961 0.142550
H67   H     H_    0.270780 0.046783 0.059602 0.167164
H68   H     H_    0.311416 0.003156 0.109975 0.161805
H69   H     H_    0.187911 0.047387 0.155493 0.150132
H70   H     H_    0.155412 0.992462 0.106794 0.139817
H71   H     H_    0.146775 0.092051 0.104665 0.143617
H72   H     H_    0.304685 0.885696 0.679360 0.115737
H73   H     H_    0.711986 0.830403 0.091763 0.141333
H74   H     H_    0.691273 0.863198 0.147881 0.142517
H75   H     H_    0.728612 0.952877 0.059452 0.167193
H76   H     H_    0.688105 0.996567 0.109831 0.161816
H77   H     H_    0.811734 0.952411 0.155287 0.150159
H78   H     H_    0.844101 0.007267 0.106534 0.139826
H79   H     H_    0.852741 0.907676 0.104457 0.143602
H80   H     H_    0.552932 0.217667 0.275683 0.150260
H81   H     H_    0.641607 0.184396 0.305918 0.111019
H82   H     H_    0.474406 0.238538 0.348360 0.158303
H83   H     H_    0.694505 0.114029 0.678876 0.115795
H84   H     H_    0.560763 0.202437 0.380888 0.164683
H85   H     H_    0.654901 0.303883 0.350889 0.149702
H86   H     H_    0.563851 0.339958 0.379922 0.149732
H87   H     H_    0.567711 0.340151 0.318064 0.145509
H88   H     H_    0.447252 0.782314 0.275893 0.150203
H89   H     H_    0.358572 0.815595 0.306107 0.111030
H90   H     H_    0.525853 0.761666 0.348583 0.158348
H91   H     H_    0.439477 0.797767 0.381086 0.164676
H92   H     H_    0.345425 0.696183 0.351178 0.149708
H93   H     H_    0.436527 0.660244 0.380238 0.149747
H94   H     H_    0.644949 0.097454 0.370754 0.123381
H95   H     H_    0.432637 0.659914 0.318380 0.145495
H96   H     H_    0.412354 0.217030 0.250682 0.157899
H97   H     H_    0.362920 0.188088 0.302778 0.138532
H98   H     H_    0.275895 0.227812 0.211138 0.160710
H99   H     H_    0.221033 0.194346 0.261156 0.156525
H100  H     H_    0.274575 0.303388 0.306214 0.146175
H101  H     H_    0.216557 0.331660 0.256092 0.150033
H102  H     H_    0.330086 0.337020 0.255910 0.146953
H103  H     H_    0.587651 0.782973 0.250635 0.157824
H104  H     H_    0.637068 0.811904 0.302742 0.138586
O1    O     O_R   0.429360 0.416280 0.044700 -0.514757
O2    O     O_R   0.906590 0.940530 0.464300 -0.510629
O3    O     O_R   0.906590 0.059470 0.464300 -0.510662
O4    O     O_R   0.093410 0.940530 0.464300 -0.510682
O5    O     O_R   0.920740 0.061400 0.553530 -0.454765
O6    O     O_R   0.079260 0.938600 0.553530 -0.455073
O7    O     O_R   0.079260 0.061400 0.553530 -0.490041
O8    O     O_R   0.920740 0.938600 0.553530 -0.490154
O9    O     O_3   0.931006 0.921791 0.717772 -0.683200
O10   O     O_3   0.069443 0.079680 0.717133 -0.683023
O11   O     O_3   0.152298 0.857432 0.642075 -0.680816
O12   O     O_R   0.570640 0.583720 0.044700 -0.514744
O13   O     O_3   0.846784 0.142627 0.641564 -0.680825
O14   O     O_3   0.618320 0.859787 0.907358 -0.564011
O15   O     O_3   0.381976 0.140060 0.907612 -0.563953
O16   O     O_3   0.384172 0.763414 0.819197 -0.565751
O17   O     O_3   0.615380 0.236752 0.819012 -0.565721
O18   O     O_3   0.671497 0.194408 0.160807 -0.570947
O19   O     O_3   0.328182 0.805422 0.161061 -0.570937
O20   O     O_3   0.403629 0.121930 0.097338 -0.573278
O21   O     O_3   0.595865 0.877776 0.097334 -0.573225
O22   O     O_3   0.529282 0.117413 0.306816 -0.576021
O23   O     O_R   0.570640 0.416280 0.044700 -0.503142
O24   O     O_3   0.470843 0.882651 0.306933 -0.576067
O25   O     O_3   0.358415 0.113803 0.245776 -0.594357
O26   O     O_3   0.641612 0.886192 0.245741 -0.594442
O27   O     O_R   0.429360 0.583720 0.044700 -0.503169
O28   O     O_R   0.427420 0.583550 0.955440 -0.510268
O29   O     O_R   0.572580 0.416450 0.955440 -0.510236
O30   O     O_R   0.572580 0.583550 0.955440 -0.513693
O31   O     O_R   0.427420 0.416450 0.955440 -0.513664
O32   O     O_R   0.093410 0.059470 0.464300 -0.510639

loop_
_geom_bond_atom_site_label_1
_geom_bond_atom_site_label_2
_ccdc_geom_bond_type
C20   O25   S    
C38   C40   S    
C87   C88   S    
C88   H30   S    
C101  C102  S    
C11   O26   S    
C46   C52   S    
Cu2   O29   S    
C95   H44   S    
C36   O28   A    
C88   C90   S    
Cu1   Cu2   S    
C87   H26   S    
C72   C76   A    
C108  H76   S    
C37   O29   A    
C97   C98   S    
C4    H87   S    
C15   C81   S    
C99   H56   S    
C104  H66   S    
C85   C86   S    
C96   H47   S    
C102  H59   S    
C104  O20   S    
C91   O16   S    
C84   H20   S    
C74   O9    S    
C30   C35   A    
C95   H45   S    
C92   C93   S    
C75   O10   S    
C35   C47   A    
C66   H17   S    
C90   H31   S    
H14   O9    S    
C5    C6    S    
C20   C40   A    
C98   C99   S    
C110  O22   S    
C10   H101  S    
C104  H65   S    
C45   C71   A    
C32   O19   S    
C61   C80   A    
C97   H51   S    
C29   C33   A    
C3    H84   S    
Cu2   O12   S    
C108  C109  S    
C64   O6    A    
C101  H58   S    
C70   C74   A    
C104  C105  S    
C6    H91   S    
C2    C79   S    
C19   O24   S    
C66   C83   A    
C13   C78   T    
C58   O2    A    
C4    H85   S    
Cu3   O5    S    
C95   C96   S    
C36   C82   S    
C8    C9    S    
C97   H49   S    
C31   C46   A    
C73   H83   S    
C110  H80   S    
C107  C108  S    
C109  H79   S    
C33   O20   S    
C37   O31   A    
C5    O24   S    
C8    H97   S    
C2    C16   T    
C9    C10   S    
C34   C70   A    
C88   H29   S    
C98   H53   S    
C86   H23   S    
C47   C53   S    
C52   C54   T    
C48   C50   T    
C13   C80   S    
C60   C66   A    
C14   H7    S    
C29   H12   S    
C29   C43   A    
C45   C72   A    
C33   C46   A    
C65   H1    S    
C30   C44   A    
C99   H54   S    
Cu1   O1    S    
C7    H92   S    
C8    H96   S    
C59   O14   S    
C41   C49   S    
C64   O7    A    
C7    H95   S    
C58   O3    A    
C18   O22   S    
C38   C44   S    
C63   O8    A    
C57   O4    A    
C53   C55   T    
C84   H19   S    
C77   O13   S    
C56   C74   A    
C101  O19   S    
C63   O5    A    
C79   C100  S    
C93   H41   S    
C35   O21   S    
C84   C85   S    
C7    H93   S    
C5    H88   S    
C91   H35   S    
C86   H24   S    
C78   C79   S    
C10   H100  S    
C34   C73   A    
H16   O11   S    
C49   C51   T    
C97   O18   S    
C107  O21   S    
C107  H74   S    
C28   C44   A    
C69   H39   S    
C56   C77   A    
C62   C69   A    
C103  H63   S    
C109  H78   S    
C23   O27   A    
C18   C39   A    
C6    H90   S    
C90   H33   S    
C69   C83   A    
Cu4   O8    S    
C60   C81   A    
C59   C80   A    
Cu3   O7    S    
C21   C39   A    
C28   C32   A    
Cu1   O27   S    
C72   H72   S    
C92   H37   S    
C84   O14   S    
C22   H94   S    
C15   C89   T    
C1    O1    A    
C51   C58   S    
C42   C48   S    
C87   H27   S    
C68   H28   S    
C24   C42   A    
C11   H104  S    
Cu3   O3    S    
C26   H9    S    
C98   H52   S    
C1    O23   A    
C86   H25   S    
C85   H21   S    
C21   O26   S    
C12   H4    S    
Cu2   O23   S    
C96   H46   S    
C62   C81   A    
C12   C14   S    
C16   C45   S    
C94   H43   S    
C14   H6    S    
C27   C31   A    
C92   H36   S    
C105  H68   S    
C32   C47   A    
C108  H75   S    
C102  H60   S    
C17   C34   S    
C3    C4    S    
H18   O13   S    
C76   O11   S    
C27   H10   S    
C28   H11   S    
C105  H67   S    
Cu3   Cu4   S    
C25   H8    S    
Cu2   O30   S    
C11   H103  S    
C30   H13   S    
C93   H40   S    
C62   O17   S    
C18   C22   A    
C50   C57   S    
C3    C110  S    
C60   O15   S    
C106  H71   S    
Cu4   O2    S    
C93   H38   S    
C70   H50   S    
C25   C42   A    
C5    H89   S    
C91   H34   S    
C11   C12   S    
C24   H2    S    
C6    C7    S    
C99   H55   S    
Cu1   O31   S    
C105  C106  S    
C3    H82   S    
C8    O25   S    
C87   O15   S    
C103  H64   S    
C68   C82   A    
C19   C24   A    
C38   C43   S    
C90   H32   S    
C59   C65   A    
C71   C75   A    
C61   C68   A    
C10   H102  S    
C65   C82   A    
C38   C39   S    
C109  H77   S    
Cu1   O28   S    
C36   O30   A    
C21   C26   A    
H15   O10   S    
C103  H62   S    
C71   H61   S    
C101  H57   S    
C102  C103  S    
C94   O17   S    
C17   C100  T    
C106  H69   S    
C79   C89   S    
C23   O12   A    
C19   C40   A    
Cu3   O32   S    
C85   H22   S    
C12   H3    S    
C22   C41   A    
C27   C43   A    
C4    H86   S    
C67   C75   A    
C94   H42   S    
C14   H5    S    
C20   C25   A    
C31   O18   S    
C61   O16   S    
C110  H81   S    
C73   C77   A    
C37   C83   S    
C107  H73   S    
C67   C76   A    
C9    H98   S    
Cu4   O6    S    
C57   O32   A    
C106  H70   S    
C94   C95   S    
C91   C92   S    
C26   C41   A    
C96   H48   S    
C9    H99   S    
Cu4   O4    S    
