data_mof_unit_318.cif
_audit_creation_date              2012-12-11T19:41:50-0500
_audit_creation_method            fapswitch 2.2
_symmetry_space_group_name_H-M    P1
_symmetry_Int_Tables_number       1
_space_group_crystal_system       triclinic
_cell_length_a                    8.196587
_cell_length_b                    15.07817
_cell_length_c                    26.925108
_cell_angle_alpha                 98.356827
_cell_angle_beta                  92.932629
_cell_angle_gamma                 81.017302
_cell_volume                      3250.56994572

loop_
_atom_site_label
_atom_site_type_symbol
_atom_type_description
_atom_site_fract_x
_atom_site_fract_y
_atom_site_fract_z
_atom_type_partial_charge
Ba1   Ba    Ba6+2 0.860050 0.456430 0.522530 1.652700
Ba2   Ba    Ba6+2 0.329780 0.543490 0.477460 1.664346
C1    C     C_3   0.645439 0.144201 0.655434 -0.373376
C2    C     C_R   0.900069 0.589815 0.179331 0.610869
C3    C     C_2   0.752233 0.563375 0.273959 -0.100841
C4    C     C_3   0.179491 0.260254 0.656006 0.301313
C5    C     C_3   0.732445 0.591571 0.329457 -0.043950
C6    C     C_1   0.982412 0.484121 0.342403 0.020810
C7    C     C_2   0.021600 0.478517 0.294220 -0.064370
C8    C     C_2   0.898208 0.517854 0.256432 0.239079
C9    C     C_R   0.010831 0.505743 0.100808 -0.085813
C10   C     C_R   0.045837 0.427528 0.124747 -0.036012
C11   C     C_R   0.115793 0.346208 0.096526 -0.075533
C12   C     C_3   0.666165 0.230158 0.634608 0.333348
C13   C     C_R   0.934590 0.586839 0.128213 -0.043472
C14   C     C_2   0.843695 0.531593 0.360920 -0.292853
C15   C     C_2   0.358481 0.483198 0.641137 -0.270972
C16   C     C_3   0.151809 0.240554 0.708444 -0.355210
C17   C     C_R   0.195851 0.423044 0.973321 -0.026547
C18   C     C_R   0.039031 0.576899 0.973324 0.038192
C19   C     C_R   0.137543 0.499134 0.947914 -0.003978
C20   C     C_R   0.312209 0.351903 0.948510 0.403927
C21   C     C_R   0.354311 0.354336 0.898596 -0.112888
C22   C     C_R   0.286240 0.425233 0.872055 -0.083124
C23   C     C_3   0.470244 0.688097 0.632078 0.293859
C24   C     C_R   0.179864 0.498496 0.896896 -0.083473
C25   C     C_R   0.118042 0.572138 0.870971 -0.015517
C26   C     C_R   0.162493 0.571265 0.820781 0.585223
C27   C     C_R   0.327528 0.425539 0.821528 0.595240
C28   C     C_3   0.216887 0.264854 0.412907 0.315225
C29   C     C_2   0.466538 0.482744 0.729638 -0.070039
C30   C     C_3   0.507892 0.488941 0.675917 -0.045133
C31   C     C_1   0.212252 0.520596 0.657802 -0.012930
C32   C     C_2   0.173617 0.517987 0.704872 -0.128489
C33   C     C_2   0.306830 0.497916 0.743973 0.208788
C34   C     C_3   0.482360 0.710637 0.689063 -0.396931
C35   C     C_R   0.138781 0.422485 0.022953 0.036856
C36   C     C_R   0.052904 0.503184 0.049529 0.044074
C37   C     C_R   0.007640 0.581329 0.025296 0.024935
C38   C     C_R   0.158457 0.343436 0.046684 -0.053276
C39   C     C_R   0.898147 0.664592 0.104438 -0.073911
C40   C     C_3   0.236262 0.162439 0.398245 -0.389457
C41   C     C_R   0.974705 0.648154 0.945686 -0.100222
C42   C     C_R   0.013464 0.645725 0.895783 -0.065585
C43   C     C_R   0.933107 0.661975 0.054209 -0.102935
C44   C     C_R   0.845649 0.831283 0.465394 0.000820
C45   C     C_3   0.040723 0.734205 0.342342 0.383518
C46   C     C_R   0.776358 0.923987 0.468000 -0.043452
C47   C     C_R   0.642252 0.111512 0.479036 -0.032535
C48   C     C_R   0.782695 0.077005 0.450144 -0.045131
C49   C     C_R   0.850180 0.985464 0.445547 -0.109194
C50   C     C_R   0.578009 0.205304 0.487036 0.047875
C51   C     C_R   0.435692 0.235225 0.514835 -0.297426
C52   C     C_3   0.977798 0.729355 0.667960 0.301856
C53   C     C_R   0.619233 0.803690 0.512949 0.026805
C54   C     C_R   0.551689 0.896031 0.517854 -0.029887
C55   C     C_R   0.629151 0.956427 0.494821 0.002225
C56   C     C_3   0.077393 0.753245 0.289892 0.295473
C57   C     C_R   0.411282 0.929994 0.546380 -0.037884
C58   C     C_R   0.345588 0.020896 0.551420 -0.110695
C59   C     C_R   0.418534 0.082005 0.528764 -0.030902
C60   C     C_R   0.563478 0.050100 0.500877 0.009646
C61   C     C_R   0.351379 0.174412 0.533787 -0.008105
C62   C     C_R   0.763513 0.772422 0.486751 -0.267141
C63   C     C_3   0.025904 0.823980 0.682349 0.811862
C64   C     C_3   0.693260 0.344535 0.371922 0.299425
C65   C     C_3   0.695895 0.323128 0.314974 -0.364692
C66   C     C_3   0.078232 0.921081 0.755918 0.287371
C67   C     C_3   0.495123 0.788340 0.370054 0.350272
C68   C     C_3   0.997782 0.016161 0.747262 -0.336258
C69   C     C_3   0.035302 0.901743 0.613913 0.214895
C70   C     C_3   0.941048 0.976249 0.586782 -0.340433
C71   C     C_3   0.249117 0.692775 0.223454 0.302972
C72   C     C_3   0.336877 0.604997 0.195080 -0.303538
C73   C     C_3   0.408013 0.199947 0.951241 0.129296
C74   C     C_3   0.438873 0.881949 0.354960 -0.376562
C75   C     C_R   0.006688 0.431795 0.175965 0.588820
H1    H     H_    0.777491 0.216050 0.611157 0.090289
H2    H     H_    0.622275 0.090626 0.624202 0.078328
H3    H     H_    0.800066 0.268579 0.303605 0.133428
H4    H     H_    0.711091 0.384326 0.298386 0.065285
H5    H     H_    0.577775 0.300666 0.300219 0.132647
H6    H     H_    0.555060 0.249581 0.611098 -0.037977
H7    H     H_    0.539466 0.157383 0.680893 0.133503
H8    H     H_    0.338051 0.691943 0.620520 0.030885
H9    H     H_    0.536137 0.618534 0.620754 0.027018
H10   H     H_    0.451437 0.784879 0.700666 0.142745
H11   H     H_    0.394585 0.676382 0.706669 0.070966
H12   H     H_    0.323770 0.140967 0.367079 0.125157
H13   H     H_    0.609447 0.687464 0.702941 0.105721
H14   H     H_    0.758834 0.120206 0.676912 0.130617
H15   H     H_    0.194231 0.293766 0.736785 0.123740
H16   H     H_    0.118779 0.670002 0.349751 0.108547
H17   H     H_    0.908738 0.726746 0.343446 -0.122910
H18   H     H_    0.959745 0.778307 0.270604 0.051441
H19   H     H_    0.154901 0.808580 0.293989 0.032110
H20   H     H_    0.632099 0.774636 0.368237 -0.061597
H21   H     H_    0.458429 0.789649 0.409349 0.070393
H22   H     H_    0.503406 0.932605 0.379165 0.073620
H23   H     H_    0.284407 0.127492 0.430603 0.062191
H24   H     H_    0.303882 0.901891 0.359650 0.143751
H25   H     H_    0.114887 0.329279 0.652320 0.092764
H26   H     H_    0.468475 0.882027 0.315177 0.111618
H27   H     H_    0.144390 0.447508 0.282264 0.124734
H28   H     H_    0.136892 0.283636 0.112810 0.120602
H29   H     H_    0.566589 0.472360 0.757182 0.103338
H30   H     H_    0.446700 0.301683 0.880902 0.121680
H31   H     H_    0.199554 0.277113 0.026891 0.115096
H32   H     H_    0.658219 0.591819 0.248655 0.097582
H33   H     H_    0.842108 0.728570 0.124732 0.114008
H34   H     H_    0.114627 0.141768 0.385973 0.119474
H35   H     H_    0.890229 0.706424 0.961317 0.064985
H36   H     H_    0.313440 0.258388 0.651498 -0.024431
H37   H     H_    0.961125 0.702560 0.876661 0.120826
H38   H     H_    0.045412 0.530784 0.715463 0.125992
H39   H     H_    0.904636 0.725527 0.039491 0.065501
H40   H     H_    0.823259 0.542472 0.400985 0.083432
H41   H     H_    0.370940 0.447776 0.603078 0.071771
H42   H     H_    0.844333 0.119973 0.431113 0.102243
H43   H     H_    0.960987 0.963800 0.424245 0.105988
H44   H     H_    0.239360 0.042788 0.574473 0.101319
H45   H     H_    0.037727 0.687558 0.696433 -0.045215
H46   H     H_    0.350292 0.887222 0.565629 0.079916
H47   H     H_    0.384863 0.306494 0.519443 0.069436
H48   H     H_    0.018245 0.240127 0.713411 0.146939
H49   H     H_    0.816119 0.701614 0.484853 0.080528
H50   H     H_    0.221937 0.173509 0.714356 0.110732
H51   H     H_    0.339299 0.284877 0.422978 0.001156
H52   H     H_    0.135221 0.283920 0.445574 0.069158
H53   H     H_    0.209332 0.908332 0.744395 0.006595
H54   H     H_    0.082387 0.918693 0.796996 0.074415
H55   H     H_    0.864063 0.026392 0.755273 0.145342
H56   H     H_    0.841874 0.733533 0.669764 0.058788
H57   H     H_    0.057612 0.067435 0.772556 0.060085
H58   H     H_    0.013600 0.026752 0.708019 0.130735
H59   H     H_    0.066248 0.839922 0.586115 0.089254
H60   H     H_    0.151051 0.925423 0.630385 0.020626
H61   H     H_    0.810994 0.965201 0.580143 0.135957
H62   H     H_    0.944153 0.043223 0.609807 0.131996
H63   H     H_    0.997643 0.976091 0.550216 0.095801
H64   H     H_    0.345949 0.733707 0.239648 0.058639
H65   H     H_    0.168031 0.730379 0.196566 0.031470
H66   H     H_    0.247453 0.567862 0.171943 0.096566
H67   H     H_    0.162564 0.814963 0.678097 -0.159257
H68   H     H_    0.429341 0.620162 0.170018 0.066725
H69   H     H_    0.399969 0.560489 0.221788 0.141056
H70   H     H_    0.509019 0.181813 0.923972 0.053652
H71   H     H_    0.287073 0.188545 0.932515 0.011093
H72   H     H_    0.434396 0.153015 0.979764 0.072272
H73   H     H_    0.813912 0.362783 0.386212 0.010575
H74   H     H_    0.594382 0.402668 0.381991 0.078867
N1    N     N_R   0.936167 0.512804 0.203205 -0.414857
N2    N     N_R   0.265109 0.498004 0.796200 -0.423756
O1    O     O_2   0.906480 0.548660 0.619050 -0.468501
O2    O     O_2   0.186606 0.823909 0.470613 -0.485177
O3    O     O_3   0.075514 0.806666 0.378247 -0.650452
O4    O     O_3   0.138490 0.548590 0.558870 -0.448514
O5    O     O_3   0.572560 0.389960 0.472890 -0.489443
O6    O     O_2   0.345660 0.723580 0.528500 -0.462342
O7    O     O_3   0.541672 0.751034 0.610376 -0.633663
O8    O     O_2   0.403770 0.547830 0.323420 -0.480050
O9    O     O_3   0.420778 0.723021 0.337612 -0.586414
O10   O     O_2   0.033905 0.363062 0.195988 -0.600378
O11   O     O_2   0.417962 0.360725 0.800000 -0.601250
O12   O     O_3   0.664062 0.267651 0.391535 -0.640201
O13   O     O_2   0.840479 0.662088 0.202843 -0.615587
O14   O     O_2   0.111834 0.636683 0.799267 -0.604779
O15   O     O_3   0.686300 0.382310 0.585700 -0.484070
O16   O     O_2   0.849794 0.429477 0.670651 -0.500761
O17   O     O_3   0.027082 0.694410 0.618670 -0.662976
O18   O     O_3   0.683952 0.298798 0.674764 -0.587757
O19   O     O_2   0.844040 0.276390 0.471470 -0.468209
O20   O     O_3   0.101510 0.335500 0.560330 -0.486769
O21   O     O_2   0.010429 0.175905 0.527762 -0.485544
O22   O     O_3   0.983391 0.854414 0.732992 -0.652783
O23   O     O_3   0.117331 0.195002 0.620641 -0.615771
O24   O     O_3   0.935298 0.884111 0.651469 -0.646527
O25   O     O_3   0.155188 0.672386 0.261721 -0.625972
O26   O     O_3   0.405939 0.289628 0.975823 -0.644483
O27   O     O_2   0.283210 0.451310 0.380920 -0.465067
O28   O     O_3   0.051220 0.451340 0.441120 -0.496193
O29   O     O_3   0.503410 0.617620 0.414290 -0.481312
O30   O     O_3   0.149912 0.306062 0.371701 -0.626834
O31   O     O_3   0.617150 0.609960 0.527100 -0.465730
O32   O     O_3   0.088210 0.664420 0.439670 -0.481572
P1    P     P_3+3 0.071950 0.575820 0.612140 0.994340
P2    P     P_3+3 0.664370 0.290050 0.457240 0.975002
P3    P     P_3+3 0.146140 0.219006 0.560301 0.926105
P4    P     P_3+3 0.117760 0.424110 0.387850 0.988149
P5    P     P_3+3 0.048629 0.781909 0.438610 0.945041
P6    P     P_3+3 0.681830 0.401629 0.651462 0.974294
P7    P     P_3+3 0.532994 0.723086 0.544995 0.974109
P8    P     P_3+3 0.514500 0.615836 0.349946 0.953088

loop_
_geom_bond_atom_site_label_1
_geom_bond_atom_site_label_2
_ccdc_geom_bond_type
C75   O10   D    
C53   C54   A    
O20   P3    S    
C66   H54   S    
C71   C72   S    
C52   O17   S    
C72   H68   S    
Ba2   P4    S    
C72   H66   S    
C1    H2    S    
O5    P2    S    
C47   C48   A    
O28   P4    S    
C46   C55   A    
C69   H60   S    
C52   C63   S    
C71   H64   S    
Ba1   P1    S    
C34   H11   S    
C74   H22   S    
O1    P1    D    
Ba1   O20   S    
C24   C25   A    
O12   P2    S    
O15   P6    S    
Ba2   O27   S    
Ba1   O5    S    
C17   C19   A    
C22   C24   A    
C64   H73   S    
C35   C38   A    
O27   P4    D    
Ba2   O4    S    
C16   H48   S    
Ba2   O29   S    
C36   C37   A    
C32   C33   S    
C45   O3    S    
O19   P2    D    
C54   C55   A    
C67   C74   S    
C1    H14   S    
Ba1   Ba2   S    
C28   O30   S    
C59   C61   A    
C56   H19   S    
C22   C27   A    
C11   C38   A    
C17   C35   A    
C26   O14   D    
C8    N1    S    
C9    C13   A    
C25   C42   A    
C66   O22   S    
C70   H62   S    
C2    O13   D    
Ba2   O6    S    
C21   C22   A    
O31   P7    S    
C31   P1    S    
C50   P2    S    
C5    P8    S    
C73   O26   S    
C7    C8    S    
C59   C60   A    
C37   C43   A    
O21   P3    D    
C67   H21   S    
C74   H26   S    
C70   H61   S    
C64   C65   S    
C52   H45   S    
C42   H37   S    
C57   C58   A    
C6    C14   D    
C63   O22   S    
C4    H25   S    
C27   O11   D    
Ba1   O1    S    
C15   C31   D    
C12   H6    S    
C44   P5    S    
C4    C16   S    
O30   P4    S    
C75   N1    Am   
C23   H8    S    
Ba1   O31   S    
O23   P3    S    
C44   C46   A    
C71   H65   S    
Ba1   P2    S    
C34   H10   S    
C57   H46   S    
C2    N1    Am   
C28   H51   S    
C46   C49   A    
O8    P8    D    
C48   H42   S    
C55   C60   A    
C17   C20   A    
O4    P1    S    
O7    P7    S    
C11   H28   S    
C69   H59   S    
C3    C5    S    
C63   H67   S    
Ba1   O28   S    
C6    C7    D    
Ba1   O15   S    
C73   H70   S    
C32   H38   S    
C52   H56   S    
C56   O25   S    
C30   P6    S    
C44   C62   A    
C58   C59   A    
Ba2   O28   S    
C9    C36   A    
C56   H18   S    
C4    H36   S    
C35   C36   A    
O2    P5    D    
C40   H23   S    
C16   H50   S    
C29   C30   S    
C70   H63   S    
C6    P4    S    
Ba2   O5    S    
C47   C50   A    
C21   H30   S    
C10   C75   A    
O17   P1    S    
C23   O7    S    
C68   H55   S    
C49   H43   S    
C45   H16   S    
O18   P6    S    
C48   C49   A    
O29   P8    S    
Ba2   O31   S    
C67   O9    S    
C66   H53   S    
C13   C39   A    
C1    C12   S    
C15   H41   S    
C71   O25   S    
C5    C14   S    
C65   H4    S    
C62   H49   S    
C39   H33   S    
C41   C42   A    
C68   H58   S    
C29   H29   S    
C29   C33   D    
C41   H35   S    
O16   P6    D    
C1    H7    S    
C18   C41   A    
C50   C51   A    
C27   N2    Am   
C34   H13   S    
C74   H24   S    
C18   C37   A    
C47   C60   A    
C64   O12   S    
C18   C19   A    
O6    P7    D    
C72   H69   S    
C40   H34   S    
C65   H3    S    
C33   N2    S    
C12   O18   S    
C51   H47   S    
C9    C10   A    
C53   C62   A    
C73   H71   S    
C28   H52   S    
Ba1   O19   S    
C54   C57   A    
C38   H31   S    
C40   H12   S    
C16   H15   S    
C53   P7    S    
C69   O24   S    
C2    C13   A    
Ba1   O4    S    
Ba2   O32   S    
C64   H74   S    
C14   H40   S    
C45   C56   S    
C51   C61   A    
C43   H39   S    
C26   N2    Am   
C63   O24   S    
C73   H72   S    
C7    H27   S    
C19   C24   A    
O9    P8    S    
C23   H9    S    
C4    O23   S    
C45   H17   S    
C31   C32   D    
C12   H1    S    
C58   H44   S    
C23   C34   S    
O32   P5    S    
C3    C8    D    
C69   C70   S    
C10   C11   A    
C65   H5    S    
C66   C68   S    
C61   P3    S    
C25   C26   A    
C68   H57   S    
C15   C30   S    
C39   C43   A    
C20   C21   A    
C28   C40   S    
C3    H32   S    
C20   O26   S    
O3    P5    S    
C67   H20   S    
