data_mof_unit_76.cif
_audit_creation_date              2013-03-05T16:04:52-0500
_audit_creation_method            fapswitch 2.2
_symmetry_space_group_name_H-M    P1
_symmetry_Int_Tables_number       1
_space_group_crystal_system       triclinic
_cell_length_a                    16.029273
_cell_length_b                    14.987842
_cell_length_c                    9.557135
_cell_angle_alpha                 89.997498
_cell_angle_beta                  89.999359
_cell_angle_gamma                 89.999801
_cell_volume                      2296.04635609

loop_
_atom_site_label
_atom_site_type_symbol
_atom_site_description
_atom_site_fract_x
_atom_site_fract_y
_atom_site_fract_z
_atom_type_partial_charge
O1    O     O_R   0.090170 0.409820 0.618740 -0.511461
O2    O     O_R   0.909830 0.590180 0.381260 -0.559253
O3    O     O_R   0.909830 0.590180 0.618740 -0.511501
O4    O     O_R   0.090170 0.409820 0.381260 -0.559218
O5    O     O_R   0.909830 0.409820 0.381260 -0.511499
O6    O     O_R   0.090170 0.590180 0.618740 -0.559184
O7    O     O_R   0.090170 0.590180 0.381260 -0.511476
O8    O     O_R   0.909830 0.409820 0.618740 -0.559260
O9    O     O_R   0.590170 0.909820 0.618740 -0.511481
O10   O     O_R   0.409830 0.090180 0.381260 -0.559273
O11   O     O_R   0.409830 0.090180 0.618740 -0.511501
O12   O     O_R   0.590170 0.909820 0.381260 -0.559279
O13   O     O_R   0.409830 0.909820 0.381260 -0.511494
O14   O     O_R   0.590170 0.090180 0.618740 -0.559275
O15   O     O_R   0.590170 0.090180 0.381260 -0.511481
O16   O     O_R   0.409830 0.909820 0.618740 -0.559290
C1    C     C_R   0.121672 0.384122 0.500752 0.878682
C2    C     C_R   0.878330 0.615880 0.500751 0.878666
C3    C     C_R   0.878327 0.384123 0.499250 0.878652
C4    C     C_R   0.121678 0.615869 0.499247 0.878695
C5    C     C_R   0.621674 0.884125 0.500753 0.878636
C6    C     C_R   0.378327 0.115877 0.500750 0.878626
C7    C     C_R   0.378331 0.884116 0.499251 0.878621
C8    C     C_R   0.621671 0.115880 0.499247 0.878651
N1    N     N_R   0.000000 0.500000 0.852070 -0.250632
N2    N     N_R   0.000000 0.500000 0.147930 -0.250640
N3    N     N_R   0.500000 0.000000 0.852070 -0.250655
N4    N     N_R   0.500000 0.000000 0.147930 -0.250655
Cu1   Cu    Cu3+1 0.000000 0.500000 0.640660 1.130881
Cu2   Cu    Cu3+1 0.000000 0.500000 0.359340 1.130867
Cu3   Cu    Cu3+1 0.500000 0.000000 0.640660 1.130806
Cu4   Cu    Cu3+1 0.500000 0.000000 0.359340 1.130815
C9    C     C_R   0.000364 0.421335 0.075182 0.417181
C10   C     C_R   0.000377 0.578665 0.924818 0.417190
C11   C     C_R   0.999646 0.578664 0.075172 0.417147
C12   C     C_R   0.999634 0.421336 0.924828 0.417147
C13   C     C_R   0.500368 0.921335 0.075182 0.417200
C14   C     C_R   0.500354 0.078665 0.924818 0.417196
C15   C     C_R   0.499643 0.078664 0.075172 0.417155
C16   C     C_R   0.499660 0.921336 0.924829 0.417149
C17   C     C_R   0.781500 0.282022 0.367735 0.251006
C18   C     C_R   0.230457 0.707865 0.620967 0.167364
C19   C     C_R   0.218500 0.717984 0.367740 0.250997
C20   C     C_R   0.769597 0.292065 0.620974 0.167330
C21   C     C_R   0.218471 0.281982 0.632262 0.250990
C22   C     C_R   0.769609 0.707950 0.379026 0.167337
C23   C     C_R   0.781518 0.717998 0.632264 0.250996
C24   C     C_R   0.230427 0.292094 0.379031 0.167356
C25   C     C_R   0.281507 0.782011 0.367738 0.250923
C26   C     C_R   0.730393 0.207939 0.620972 0.167329
C27   C     C_R   0.718491 0.217999 0.367733 0.250956
C28   C     C_R   0.269651 0.791996 0.620989 0.167336
C29   C     C_R   0.718509 0.782023 0.632268 0.250961
C30   C     C_R   0.269625 0.207966 0.379016 0.167318
C31   C     C_R   0.281481 0.217959 0.632265 0.250940
C32   C     C_R   0.730406 0.792076 0.379028 0.167318
C33   C     C_R   0.192011 0.679620 0.495586 -0.316787
C34   C     C_R   0.808012 0.320350 0.495588 -0.316717
C35   C     C_R   0.808022 0.679663 0.504412 -0.316722
C36   C     C_R   0.191989 0.320350 0.504415 -0.316774
C37   C     C_R   0.691981 0.179660 0.495584 -0.316730
C38   C     C_R   0.308033 0.820320 0.495595 -0.316731
C39   C     C_R   0.308016 0.179656 0.504409 -0.316728
C40   C     C_R   0.691992 0.820354 0.504416 -0.316722
O17   O     O_3   0.995305 0.342657 0.150095 -0.564173
C41   C     C_3   0.068437 0.291518 0.133601 0.005181
H1    H     H_    0.084644 0.262459 0.236527 0.164131
H2    H     H_    0.122896 0.330013 0.094048 0.211681
H3    H     H_    0.056826 0.234141 0.063720 0.207021
O18   O     O_3   0.995334 0.657344 0.849904 -0.564169
C42   C     C_3   0.068474 0.708467 0.866400 0.005176
H4    H     H_    0.084672 0.737549 0.763488 0.164127
H5    H     H_    0.122933 0.669953 0.905903 0.211637
H6    H     H_    0.056882 0.765826 0.936318 0.207038
O19   O     O_3   0.004719 0.657340 0.150078 -0.564144
C43   C     C_3   0.931599 0.708496 0.133579 0.005206
H7    H     H_    0.915395 0.737556 0.236501 0.164147
H8    H     H_    0.877137 0.670011 0.094032 0.211688
H9    H     H_    0.943221 0.765868 0.063690 0.207004
O20   O     O_3   0.004702 0.342660 0.849923 -0.564145
C44   C     C_3   0.931576 0.291513 0.866417 0.005235
H10   H     H_    0.915373 0.262454 0.763494 0.164139
H11   H     H_    0.877116 0.330005 0.905960 0.211685
H12   H     H_    0.943188 0.234138 0.936306 0.207002
O21   O     O_3   0.495290 0.842656 0.150092 -0.564183
C45   C     C_3   0.568424 0.791516 0.133648 0.005114
H13   H     H_    0.584615 0.762466 0.236586 0.164092
H14   H     H_    0.622885 0.830009 0.094109 0.211709
H15   H     H_    0.556831 0.734133 0.063775 0.206967
O22   O     O_3   0.495271 0.157343 0.849908 -0.564184
C46   C     C_3   0.568401 0.208490 0.866357 0.005075
H16   H     H_    0.584592 0.237541 0.763420 0.164103
H17   H     H_    0.622863 0.170002 0.905897 0.211707
H18   H     H_    0.556800 0.265871 0.936231 0.206971
O23   O     O_3   0.504737 0.157340 0.150073 -0.564168
C47   C     C_3   0.431614 0.208496 0.133626 0.005163
H19   H     H_    0.415436 0.237559 0.236557 0.164126
H20   H     H_    0.377145 0.170010 0.094118 0.211709
H21   H     H_    0.443213 0.265865 0.063724 0.206967
O24   O     O_3   0.504777 0.842661 0.849930 -0.564180
C48   C     C_3   0.431661 0.791491 0.866359 0.005182
H22   H     H_    0.415486 0.762449 0.763414 0.164138
H23   H     H_    0.377189 0.829959 0.905898 0.211727
H24   H     H_    0.443271 0.734109 0.936229 0.206955
N5    N     N_R   0.816084 0.307708 0.235462 0.189065
O25   O     O_R   0.795229 0.383872 0.180292 -0.238842
O26   O     O_R   0.848628 0.246522 0.155960 -0.295396
N6    N     N_R   0.245349 0.645115 0.733370 0.132790
O27   O     O_R   0.243430 0.559879 0.707558 -0.283149
O28   O     O_R   0.281094 0.670549 0.848777 -0.295152
N7    N     N_R   0.183879 0.692352 0.235474 0.189067
O29   O     O_R   0.204729 0.616216 0.180213 -0.238870
O30   O     O_R   0.151308 0.753570 0.156058 -0.295414
N8    N     N_R   0.754675 0.354811 0.733357 0.132715
O31   O     O_R   0.719156 0.329331 0.848925 -0.295086
O32   O     O_R   0.756352 0.440031 0.707436 -0.283117
N9    N     N_R   0.183843 0.307610 0.764528 0.189066
O33   O     O_R   0.204701 0.383740 0.819805 -0.238848
O34   O     O_R   0.151267 0.246388 0.843937 -0.295414
N10   N     N_R   0.754688 0.645205 0.266643 0.132713
O35   O     O_R   0.719185 0.670689 0.151065 -0.295091
O36   O     O_R   0.756348 0.559985 0.292571 -0.283106
N11   N     N_R   0.816109 0.692319 0.764534 0.189062
O37   O     O_R   0.795248 0.616163 0.819725 -0.238851
O38   O     O_R   0.848666 0.753507 0.844015 -0.295395
N12   N     N_R   0.245331 0.354845 0.266638 0.132754
O39   O     O_R   0.243528 0.440075 0.292500 -0.283148
O40   O     O_R   0.280949 0.329391 0.151139 -0.295120
N13   N     N_R   0.316052 0.807741 0.235453 0.189089
O41   O     O_R   0.295181 0.883926 0.180367 -0.238725
O42   O     O_R   0.348568 0.746582 0.155864 -0.295309
N14   N     N_R   0.745319 0.145184 0.733347 0.132735
O43   O     O_R   0.780826 0.170657 0.848925 -0.295071
O44   O     O_R   0.743660 0.059966 0.707410 -0.283065
N15   N     N_R   0.683915 0.192313 0.235457 0.189086
O45   O     O_R   0.704774 0.116149 0.180303 -0.238780
O46   O     O_R   0.651384 0.253500 0.155935 -0.295337
N16   N     N_R   0.254732 0.854715 0.733406 0.132667
O47   O     O_R   0.219289 0.829190 0.849018 -0.295117
O48   O     O_R   0.256335 0.939939 0.707503 -0.283022
N17   N     N_R   0.683941 0.807716 0.764548 0.189094
O49   O     O_R   0.704794 0.883889 0.819677 -0.238769
O50   O     O_R   0.651427 0.746531 0.844096 -0.295332
N18   N     N_R   0.254699 0.145231 0.266622 0.132695
O51   O     O_R   0.219214 0.170731 0.151035 -0.295098
O52   O     O_R   0.256341 0.060010 0.292537 -0.283043
N19   N     N_R   0.316022 0.192228 0.764551 0.189085
O53   O     O_R   0.295162 0.116036 0.819626 -0.238741
O54   O     O_R   0.348526 0.253388 0.844149 -0.295324
N20   N     N_R   0.745332 0.854832 0.266653 0.132737
O55   O     O_R   0.780853 0.829362 0.151084 -0.295068
O56   O     O_R   0.743655 0.940050 0.292583 -0.283076

loop_
_geom_bond_atom_site_label_1
_geom_bond_atom_site_label_2
_geom_bond_distance
_ccdc_geom_bond_type
C30   N18   1.447499 S    
C21   C36   1.415538 A    
C8    C37   1.478241 S    
C22   C35   1.412389 A    
O2    C2    1.306709 A    
O13   Cu4   1.989917 S    
C41   H2    1.112559 S    
O23   C47   1.409398 S    
C27   C37   1.415515 A    
C43   H9    1.104636 S    
O14   Cu3   1.989915 S    
C44   H10   1.106679 S    
C9    O17   1.381899 S    
N11   O37   1.301086 A    
O21   C45   1.409421 S    
O10   C6    1.306707 A    
O16   Cu3   1.989933 S    
C24   C30   1.408777 A    
N5    O26   1.300176 A    
C11   O19   1.381892 S    
C48   H22   1.106667 S    
C17   N5    1.433019 S    
O8    Cu1   1.989933 S    
C13   O21   1.381909 S    
N19   O54   1.300194 A    
C43   H8    1.112513 S    
C17   C34   1.415524 A    
N13   O41   1.301096 A    
C13   C16   1.436994 A    
N17   O50   1.300181 A    
C14   C15   1.436999 A    
O20   C44   1.409412 S    
C29   C40   1.415519 A    
C45   H14   1.112510 S    
N11   O38   1.300177 A    
C41   H3    1.104647 S    
C30   C39   1.412388 A    
N3    C14   1.368786 A    
C20   C26   1.408778 A    
C47   H21   1.104603 S    
C9    C12   1.437003 A    
N6    O27   1.301481 A    
O13   C7    1.294179 A    
O3    C2    1.294168 A    
C10   C11   1.437003 A    
O14   C8    1.306703 A    
O3    Cu1   1.989913 S    
C5    C40   1.478240 S    
N19   O53   1.301096 A    
C6    C39   1.478236 S    
C27   N15   1.433029 S    
C7    C38   1.478252 S    
N7    O29   1.301082 A    
C20   C34   1.412384 A    
N14   O43   1.299944 A    
C47   H20   1.112479 S    
C28   N16   1.447490 S    
C32   C40   1.412391 A    
O18   C42   1.409428 S    
C10   O18   1.381900 S    
N1    C10   1.368786 A    
C23   C29   1.393154 A    
N15   O45   1.301083 A    
C41   H1    1.106693 S    
O11   Cu3   1.989913 S    
C48   H23   1.112475 S    
O7    Cu2   1.989931 S    
O12   Cu4   1.989912 S    
C19   N7    1.433012 S    
C18   C33   1.412422 A    
C44   H11   1.112514 S    
N10   O36   1.301339 A    
C24   C36   1.412420 A    
C3    C34   1.478240 S    
N1    Cu1   2.020474 S    
O8    C3    1.306716 A    
N3    Cu3   2.020474 S    
N4    Cu4   2.020475 S    
C43   H7    1.106680 S    
N18   O52   1.301338 A    
C12   O20   1.381891 S    
C46   H16   1.106679 S    
C42   H5    1.112537 S    
O9    Cu3   1.989922 S    
C45   H13   1.106678 S    
C19   C25   1.393154 A    
N1    C12   1.368773 A    
N4    C15   1.368775 A    
C23   C35   1.415518 A    
O12   C5    1.306710 A    
C31   C39   1.415512 A    
O19   C43   1.409413 S    
Cu1   Cu2   2.688613 S    
C46   H17   1.112512 S    
N2    C11   1.368772 A    
N2    C9    1.368785 A    
C31   N19   1.433048 S    
Cu3   Cu4   2.688613 S    
N3    C16   1.368774 A    
C47   H19   1.106670 S    
O1    Cu1   1.989922 S    
C22   N10   1.447510 S    
N7    O30   1.300175 A    
C15   O23   1.381893 S    
C26   N14   1.447507 S    
O5    C3    1.294165 A    
O4    C1    1.306705 A    
O15   C8    1.294179 A    
N2    Cu2   2.020475 S    
O16   C7    1.306709 A    
N20   O56   1.301338 A    
C32   N20   1.447509 S    
C44   H12   1.104634 S    
N10   O35   1.299943 A    
O5    Cu2   1.989917 S    
C21   N9    1.433028 S    
N15   O46   1.300180 A    
N12   O40   1.299992 A    
C25   C38   1.415517 A    
N18   O51   1.299951 A    
C45   H15   1.104625 S    
O15   Cu4   1.989931 S    
C16   O24   1.381886 S    
C42   H6    1.104609 S    
N8    O32   1.301340 A    
N8    O31   1.299942 A    
C23   N11   1.433023 S    
N16   O48   1.301340 A    
C48   H24   1.104605 S    
O6    C4    1.306698 A    
N5    O25   1.301085 A    
C14   O22   1.381908 S    
O11   C6    1.294174 A    
O1    C1    1.294173 A    
O2    Cu2   1.989922 S    
N9    O34   1.300202 A    
C42   H4    1.106675 S    
C28   C38   1.412399 A    
N9    O33   1.301102 A    
C46   H18   1.104628 S    
O9    C5    1.294173 A    
O22   C46   1.409423 S    
C25   N13   1.433053 S    
N4    C13   1.368783 A    
N12   O39   1.301435 A    
O24   C48   1.409391 S    
N6    O28   1.300067 A    
C29   N17   1.433028 S    
O17   C41   1.409431 S    
C20   N8    1.447513 S    
N16   O47   1.299963 A    
C19   C33   1.415531 A    
C1    C36   1.478237 S    
C24   N12   1.447534 S    
O10   Cu4   1.989922 S    
C2    C35   1.478232 S    
O6    Cu1   1.989915 S    
C21   C31   1.393152 A    
N14   O44   1.301337 A    
O7    C4    1.294179 A    
C22   C32   1.408777 A    
C26   C37   1.412397 A    
N20   O55   1.299945 A    
C4    C33   1.478236 S    
N17   O49   1.301081 A    
C18   N6    1.447556 S    
C17   C27   1.393157 A    
O4    Cu2   1.989912 S    
C18   C28   1.408781 A    
N13   O42   1.300194 A    
