data_mof_unit_3493.cif
_audit_creation_date              2012-12-11T15:06:56-0500
_audit_creation_method            fapswitch 2.2
_symmetry_space_group_name_H-M    P1
_symmetry_Int_Tables_number       1
_space_group_crystal_system       triclinic
_cell_length_a                    19.756423
_cell_length_b                    11.339515
_cell_length_c                    18.737747
_cell_angle_alpha                 90.000541
_cell_angle_beta                  91.160353
_cell_angle_gamma                 89.999888
_cell_volume                      4196.92394602

loop_
_atom_site_label
_atom_site_type_symbol
_atom_type_description
_atom_site_fract_x
_atom_site_fract_y
_atom_site_fract_z
_atom_type_partial_charge
C1    C     C_R   0.761702 0.522084 0.638612 0.535279
C2    C     C_3   0.254853 0.053990 0.562032 0.065125
C3    C     C_R   0.738769 0.031674 0.150432 0.536084
C4    C     C_R   0.774912 0.131517 0.858361 0.588961
C5    C     C_R   0.225086 0.131524 0.141637 0.588970
C6    C     C_R   0.274912 0.631516 0.858360 0.588973
C7    C     C_R   0.725088 0.631517 0.141639 0.588972
C8    C     C_R   0.969367 0.353255 0.853580 0.550978
C9    C     C_R   0.030632 0.353255 0.146420 0.550972
C10   C     C_R   0.469369 0.853255 0.853579 0.550963
C11   C     C_R   0.530629 0.853254 0.146422 0.550958
C12   C     C_3   0.684754 0.128206 0.465160 -0.230869
C13   C     C_3   0.245147 0.553992 0.437968 0.065124
C14   C     C_3   0.315246 0.128205 0.534841 -0.230868
C15   C     C_3   0.184754 0.628205 0.465160 -0.230869
C16   C     C_3   0.815246 0.628205 0.534841 -0.230868
C17   C     C_3   0.689425 0.142194 0.546636 -0.230693
C18   C     C_3   0.310575 0.142193 0.453365 -0.230693
C19   C     C_3   0.189425 0.642193 0.546636 -0.230693
C20   C     C_3   0.810575 0.642192 0.453365 -0.230693
C21   C     C_3   0.755023 0.936696 0.481546 -0.219132
C22   C     C_3   0.244977 0.936694 0.518452 -0.219135
C23   C     C_3   0.255024 0.436696 0.481546 -0.219134
C24   C     C_3   0.754853 0.553990 0.562032 0.065124
C25   C     C_3   0.744977 0.436695 0.518452 -0.219135
C26   C     C_3   0.982406 0.103298 0.413848 -0.413516
C27   C     C_3   0.017593 0.103298 0.586149 -0.413518
C28   C     C_3   0.482406 0.603298 0.413848 -0.413516
C29   C     C_3   0.517594 0.603298 0.586149 -0.413518
C30   C     C_3   0.859723 0.930553 0.929867 -0.408167
C31   C     C_3   0.140269 0.930590 0.070123 -0.408193
C32   C     C_3   0.359747 0.430578 0.929876 -0.408161
C33   C     C_3   0.640272 0.430562 0.070128 -0.408167
C34   C     C_3   0.756295 0.086857 0.575964 0.067522
C35   C     C_3   0.243706 0.086857 0.424035 0.067520
C36   C     C_3   0.256295 0.586857 0.575964 0.067521
C37   C     C_3   0.743705 0.586857 0.424036 0.067521
C38   C     C_3   0.750208 0.954604 0.562795 -0.262617
C39   C     C_3   0.249792 0.954603 0.437203 -0.262614
C40   C     C_3   0.250209 0.454603 0.562795 -0.262616
C41   C     C_R   0.238299 0.522086 0.361388 0.535286
C42   C     C_3   0.749792 0.454603 0.437203 -0.262615
C43   C     C_3   0.817985 0.131115 0.533763 -0.215298
C44   C     C_3   0.182015 0.131114 0.466237 -0.215299
C45   C     C_3   0.317985 0.631116 0.533763 -0.215300
C46   C     C_3   0.682015 0.631115 0.466237 -0.215298
C47   C     C_3   0.013345 0.201329 0.461634 -0.105321
C48   C     C_3   0.986654 0.201329 0.538364 -0.105325
C49   C     C_3   0.513345 0.701329 0.461633 -0.105322
C50   C     C_3   0.486654 0.701329 0.538364 -0.105324
C51   C     C_3   0.063993 0.404551 0.476369 -0.241289
C52   C     C_R   0.261702 0.022084 0.638612 0.535281
C53   C     C_3   0.936007 0.404552 0.523631 -0.241290
C54   C     C_3   0.563992 0.904550 0.476369 -0.241287
C55   C     C_3   0.436007 0.904551 0.523631 -0.241290
C56   C     C_3   0.941760 0.381617 0.443139 -0.266876
C57   C     C_3   0.058240 0.381616 0.556862 -0.266873
C58   C     C_3   0.441759 0.881616 0.443139 -0.266876
C59   C     C_3   0.558240 0.881616 0.556861 -0.266875
C60   C     C_3   0.012054 0.329658 0.431124 0.062911
C61   C     C_3   0.987946 0.329657 0.568876 0.062909
C62   C     C_3   0.512053 0.829658 0.431123 0.062912
C63   C     C_R   0.738299 0.022086 0.361388 0.535280
C64   C     C_3   0.487946 0.829657 0.568876 0.062910
C65   C     C_3   0.813951 0.006918 0.046866 -0.225441
C66   C     C_3   0.186047 0.006945 0.953128 -0.225458
C67   C     C_3   0.313972 0.506958 0.046874 -0.225372
C68   C     C_3   0.686049 0.506923 0.953132 -0.225450
C69   C     C_R   0.772492 0.118376 0.650938 0.538512
C70   C     C_R   0.227508 0.118376 0.349062 0.538515
C71   C     C_R   0.272492 0.618376 0.650938 0.538520
C72   C     C_R   0.727508 0.618376 0.349062 0.538512
C73   C     C_3   0.826365 0.035188 0.969554 -0.159052
C74   C     C_3   0.807142 0.129014 0.452749 -0.267754
C75   C     C_3   0.173630 0.035220 0.030439 -0.159069
C76   C     C_3   0.326374 0.535209 0.969556 -0.159039
C77   C     C_3   0.673633 0.535195 0.030444 -0.159058
C78   C     C_3   0.685548 0.023594 0.027362 -0.189007
C79   C     C_3   0.314444 0.023595 0.972637 -0.189000
C80   C     C_3   0.185558 0.523519 0.027343 -0.189038
C81   C     C_3   0.814450 0.523599 0.972637 -0.189016
C82   C     C_3   0.756116 0.195780 0.059914 -0.293492
C83   C     C_3   0.243890 0.195803 0.940088 -0.293503
C84   C     C_3   0.256056 0.695761 0.059913 -0.293446
C85   C     C_3   0.192858 0.129011 0.547252 -0.267752
C86   C     C_3   0.743880 0.695782 0.940088 -0.293503
C87   C     C_3   0.747845 0.064838 0.073521 0.004908
C88   C     C_3   0.252152 0.064857 0.926477 0.004901
C89   C     C_3   0.247839 0.564809 0.073513 0.004910
C90   C     C_3   0.752153 0.564843 0.926478 0.004902
C91   C     C_3   0.762959 0.098723 0.934919 0.097847
C92   C     C_3   0.237038 0.098742 0.065078 0.097851
C93   C     C_3   0.262960 0.598712 0.934916 0.097829
C94   C     C_3   0.737040 0.598724 0.065081 0.097852
C95   C     C_3   0.701711 0.018828 0.946479 0.201164
C96   C     C_3   0.307142 0.629014 0.452749 -0.267754
C97   C     C_3   0.298281 0.018835 0.053518 0.201170
C98   C     C_3   0.201729 0.518776 0.946464 0.201151
C99   C     C_3   0.798286 0.518828 0.053519 0.201155
C100  C     C_3   0.749709 0.214695 0.977941 -0.249049
C101  C     C_3   0.250294 0.214718 0.022061 -0.249066
C102  C     C_3   0.249685 0.714677 0.977935 -0.249036
C103  C     C_3   0.750290 0.714695 0.022062 -0.249044
C104  C     C_3   0.006007 0.479617 0.039972 -0.226644
C105  C     C_3   0.993985 0.479619 0.960032 -0.226648
C106  C     C_3   0.506010 0.979617 0.039971 -0.226639
C107  C     C_3   0.692858 0.629012 0.547252 -0.267752
C108  C     C_3   0.493986 0.979619 0.960032 -0.226643
C109  C     C_3   0.062733 0.277294 0.029008 -0.225557
C110  C     C_3   0.937263 0.277299 0.970990 -0.225569
C111  C     C_3   0.562731 0.777298 0.029012 -0.225564
C112  C     C_3   0.437264 0.777303 0.970987 -0.225559
C113  C     C_3   0.940837 0.295713 0.052890 -0.270014
C114  C     C_3   0.059159 0.295717 0.947110 -0.270009
C115  C     C_3   0.440833 0.795714 0.052887 -0.269991
C116  C     C_3   0.559160 0.795717 0.947113 -0.270012
C117  C     C_R   0.967589 0.341761 0.644458 0.545053
C118  C     C_3   0.745147 0.053992 0.437968 0.065125
C119  C     C_R   0.032411 0.341761 0.355542 0.545050
C120  C     C_R   0.467589 0.841761 0.644458 0.545048
C121  C     C_R   0.532411 0.841761 0.355541 0.545050
C122  C     C_3   0.009791 0.352038 0.069579 0.060835
C123  C     C_3   0.990206 0.352041 0.930422 0.060827
C124  C     C_3   0.509787 0.852038 0.069580 0.060825
C125  C     C_3   0.490208 0.852042 0.930421 0.060820
C126  C     C_R   0.761229 0.531678 0.849567 0.536082
C127  C     C_R   0.238762 0.531649 0.150423 0.536096
C128  C     C_R   0.261229 0.031682 0.849566 0.536084
Cr1   Cr    Cr6+3 0.885690 0.492860 0.745310 1.004952
Cr2   Cr    Cr6+3 0.111880 0.178590 0.246990 0.980319
Cr3   Cr    Cr6+3 0.388120 0.678590 0.753010 0.980327
Cr4   Cr    Cr6+3 0.611880 0.678590 0.246990 0.980327
Cr5   Cr    Cr6+3 0.114310 0.492860 0.254690 1.004952
Cr6   Cr    Cr6+3 0.385690 0.992860 0.745310 1.004955
Cr7   Cr    Cr6+3 0.614310 0.992860 0.254690 1.004952
Cr8   Cr    Cr6+3 0.729880 0.332270 0.748190 1.023751
Cr9   Cr    Cr6+3 0.270120 0.332270 0.251810 1.023748
Cr10  Cr    Cr6+3 0.229880 0.832270 0.748190 1.023738
Cr11  Cr    Cr6+3 0.770120 0.832270 0.251810 1.023750
Cr12  Cr    Cr6+3 0.888120 0.178590 0.753010 0.980326
F1    F     F_    0.647225 0.058061 0.905530 -0.688753
F2    F     F_    0.352769 0.058055 0.094467 -0.688758
F3    F     F_    0.147238 0.557973 0.905510 -0.688771
F4    F     F_    0.852769 0.558052 0.094472 -0.688762
H1    H     H_    0.636419 0.090673 0.448650 0.134313
H2    H     H_    0.192592 0.906616 0.527733 0.122607
H3    H     H_    0.899315 0.353339 0.070523 0.170646
H4    H     H_    0.935669 0.209719 0.080794 0.102891
H5    H     H_    0.064329 0.209725 0.919201 0.102890
H6    H     H_    0.435661 0.709719 0.080790 0.102887
H7    H     H_    0.564330 0.709724 0.919205 0.102893
H8    H     H_    0.952425 0.184774 0.960461 0.126002
H9    H     H_    0.047562 0.184771 0.039530 0.125995
H10   H     H_    0.452427 0.684779 0.960458 0.126008
H11   H     H_    0.547570 0.684772 0.039537 0.126004
H12   H     H_    0.645329 0.099598 0.571452 0.108857
H13   H     H_    0.307409 0.406617 0.472264 0.122609
H14   H     H_    0.354672 0.099597 0.428548 0.108857
H15   H     H_    0.145328 0.599597 0.571452 0.108858
H16   H     H_    0.854671 0.599595 0.428548 0.108857
H17   H     H_    0.721491 0.867492 0.462763 0.108535
H18   H     H_    0.278508 0.867489 0.537234 0.108534
H19   H     H_    0.221492 0.367490 0.462763 0.108535
H20   H     H_    0.778508 0.367490 0.537234 0.108534
H21   H     H_    0.701576 0.920675 0.582878 0.107763
H22   H     H_    0.298424 0.920675 0.417120 0.107764
H23   H     H_    0.201576 0.420675 0.582877 0.107766
H24   H     H_    0.692592 0.406616 0.527733 0.122607
H25   H     H_    0.798423 0.420675 0.417120 0.107764
H26   H     H_    0.851046 0.088767 0.427227 0.126527
H27   H     H_    0.148954 0.088763 0.572773 0.126528
H28   H     H_    0.351046 0.588768 0.427227 0.126527
H29   H     H_    0.648954 0.588764 0.572773 0.126527
H30   H     H_    0.800783 0.219068 0.430874 0.105577
H31   H     H_    0.199216 0.219065 0.569128 0.105577
H32   H     H_    0.300783 0.719068 0.430874 0.105577
H33   H     H_    0.699216 0.719066 0.569128 0.105576
H34   H     H_    0.834323 0.218221 0.552491 0.104742
H35   H     H_    0.791535 0.906100 0.591218 0.119429
H36   H     H_    0.165678 0.218220 0.447511 0.104741
H37   H     H_    0.334323 0.718221 0.552492 0.104742
H38   H     H_    0.665678 0.718221 0.447511 0.104741
H39   H     H_    0.944507 0.139844 0.375449 0.145251
H40   H     H_    0.022534 0.060022 0.382468 0.163148
H41   H     H_    0.959650 0.032084 0.446194 0.111416
H42   H     H_    0.055492 0.139843 0.624549 0.145252
H43   H     H_    0.977465 0.060022 0.617528 0.163148
H44   H     H_    0.040349 0.032083 0.553802 0.111416
H45   H     H_    0.444507 0.639843 0.375448 0.145251
H46   H     H_    0.208466 0.906099 0.408779 0.119431
H47   H     H_    0.522533 0.560021 0.382468 0.163148
H48   H     H_    0.459650 0.532083 0.446194 0.111416
H49   H     H_    0.555492 0.639844 0.624549 0.145251
H50   H     H_    0.477466 0.560022 0.617528 0.163148
H51   H     H_    0.540349 0.532084 0.553802 0.111417
H52   H     H_    0.871786 0.854241 0.964770 0.114278
H53   H     H_    0.828180 0.901709 0.883739 0.157590
H54   H     H_    0.909197 0.958699 0.908256 0.154921
H55   H     H_    0.128165 0.854307 0.035206 0.114279
H56   H     H_    0.171838 0.901715 0.116227 0.157573
H57   H     H_    0.291535 0.406099 0.591218 0.119430
H58   H     H_    0.090815 0.958760 0.091776 0.154975
H59   H     H_    0.371816 0.354270 0.964780 0.114272
H60   H     H_    0.328211 0.401716 0.883747 0.157590
H61   H     H_    0.409219 0.458739 0.908267 0.154917
H62   H     H_    0.628211 0.354251 0.035225 0.114284
H63   H     H_    0.671813 0.401717 0.116257 0.157595
H64   H     H_    0.590797 0.458708 0.091737 0.154921
H65   H     H_    0.708465 0.406100 0.408779 0.119431
H66   H     H_    0.064947 0.180245 0.468502 0.151389
H67   H     H_    0.935052 0.180246 0.531495 0.151389
H68   H     H_    0.564947 0.680245 0.468502 0.151389
H69   H     H_    0.363581 0.090676 0.551352 0.134313
H70   H     H_    0.435052 0.680246 0.531496 0.151388
H71   H     H_    0.615941 0.890343 0.459211 0.110095
H72   H     H_    0.384059 0.890344 0.540788 0.110098
H73   H     H_    0.115942 0.390342 0.459213 0.110094
H74   H     H_    0.884059 0.390343 0.540787 0.110097
H75   H     H_    0.597945 0.819553 0.575755 0.110538
H76   H     H_    0.402055 0.819551 0.424245 0.110538
H77   H     H_    0.097945 0.319553 0.575756 0.110538
H78   H     H_    0.902055 0.319554 0.424244 0.110538
H79   H     H_    0.935028 0.465335 0.413189 0.127846
H80   H     H_    0.136419 0.590672 0.448649 0.134313
H81   H     H_    0.064972 0.465334 0.586812 0.127849
H82   H     H_    0.435026 0.965333 0.413189 0.127845
H83   H     H_    0.564972 0.965333 0.586811 0.127847
H84   H     H_    0.949539 0.498322 0.532379 0.134270
H85   H     H_    0.050462 0.498322 0.467623 0.134267
H86   H     H_    0.449539 0.998322 0.532378 0.134270
H87   H     H_    0.550461 0.998322 0.467623 0.134268
H88   H     H_    0.811089 0.912633 0.055322 0.151145
H89   H     H_    0.188915 0.912664 0.944681 0.151149
H90   H     H_    0.311166 0.412652 0.055350 0.151161
H91   H     H_    0.863581 0.590676 0.551352 0.134313
H92   H     H_    0.688914 0.412642 0.944677 0.151152
H93   H     H_    0.684561 0.216590 0.439851 0.107385
H94   H     H_    0.315436 0.216589 0.560149 0.107387
H95   H     H_    0.184562 0.716589 0.439852 0.107386
H96   H     H_    0.815436 0.716589 0.560149 0.107386
H97   H     H_    0.858515 0.036805 0.079700 0.132836
H98   H     H_    0.141485 0.036825 0.920292 0.132843
H99   H     H_    0.358524 0.536938 0.079709 0.132784
H100  H     H_    0.641485 0.536805 0.920299 0.132842
H101  H     H_    0.864539 0.101568 0.972006 0.147715
H102  H     H_    0.858875 0.066209 0.546135 0.130616
H103  H     H_    0.135457 0.101599 0.027984 0.147713
H104  H     H_    0.364535 0.601606 0.971998 0.147711
H105  H     H_    0.635461 0.601580 0.027992 0.147716
H106  H     H_    0.664187 0.942630 0.047150 0.082580
H107  H     H_    0.335794 0.942621 0.952853 0.082570
H108  H     H_    0.164205 0.442549 0.047119 0.082556
H109  H     H_    0.835813 0.442639 0.952848 0.082594
H110  H     H_    0.713447 0.927776 0.930061 0.120031
H111  H     H_    0.286538 0.927786 0.069936 0.120020
H112  H     H_    0.213486 0.427735 0.930042 0.120059
H113  H     H_    0.141125 0.066208 0.453865 0.130617
H114  H     H_    0.786547 0.427776 0.069932 0.120039
H115  H     H_    0.716162 0.242061 0.088142 0.117745
H116  H     H_    0.283848 0.242075 0.911865 0.117739
H117  H     H_    0.216022 0.741926 0.088102 0.117783
H118  H     H_    0.783828 0.742067 0.911858 0.117745
H119  H     H_    0.805580 0.227588 0.081206 0.118309
H120  H     H_    0.194430 0.227619 0.918794 0.118323
H121  H     H_    0.305487 0.727678 0.081259 0.118275
H122  H     H_    0.694415 0.727583 0.918800 0.118310
H123  H     H_    0.781180 0.287276 0.960857 0.086590
H124  H     H_    0.358875 0.566209 0.546135 0.130616
H125  H     H_    0.218854 0.287314 0.039162 0.086619
H126  H     H_    0.281178 0.787258 0.960874 0.086588
H127  H     H_    0.718825 0.787281 0.039152 0.086596
H128  H     H_    0.696615 0.238715 0.965839 0.174143
H129  H     H_    0.303388 0.238718 0.034154 0.174136
H130  H     H_    0.196589 0.738688 0.965800 0.174146
H131  H     H_    0.803387 0.738710 0.034160 0.174134
H132  H     H_    0.646150 0.091623 0.034020 0.151732
H133  H     H_    0.353848 0.091609 0.965979 0.151736
H134  H     H_    0.146148 0.591524 0.033990 0.151731
H135  H     H_    0.641125 0.566209 0.453865 0.130616
H136  H     H_    0.853846 0.591630 0.965983 0.151727
H137  H     H_    0.685108 0.234982 0.561405 0.137760
H138  H     H_    0.314893 0.234981 0.438596 0.137756
H139  H     H_    0.185108 0.734982 0.561405 0.137760
H140  H     H_    0.814894 0.734980 0.438596 0.137757
H141  H     H_    0.051929 0.528906 0.052883 0.132180
H142  H     H_    0.948059 0.528899 0.947124 0.132193
H143  H     H_    0.551940 0.028889 0.052875 0.132197
H144  H     H_    0.448057 0.028893 0.947127 0.132197
H145  H     H_    0.965381 0.529749 0.066025 0.217321
H146  H     H_    0.807408 0.906616 0.472264 0.122609
H147  H     H_    0.034610 0.529756 0.933981 0.217293
H148  H     H_    0.465390 0.029759 0.066026 0.217317
H149  H     H_    0.534606 0.029761 0.933978 0.217313
H150  H     H_    0.613622 0.786851 0.051383 0.107465
H151  H     H_    0.386375 0.786862 0.948614 0.107455
H152  H     H_    0.113629 0.286813 0.051376 0.107457
H153  H     H_    0.886373 0.286849 0.948619 0.107463
H154  H     H_    0.600683 0.853347 0.929483 0.170645
H155  H     H_    0.399307 0.853337 0.070518 0.170649
H156  H     H_    0.100681 0.353347 0.929479 0.170721
O1    O     O_R   0.957210 0.449410 0.665480 -0.528566
O2    O     O_R   0.167480 0.095300 0.164000 -0.550794
O3    O     O_R   0.332520 0.595300 0.836000 -0.550790
O4    O     O_R   0.667480 0.595300 0.164000 -0.550788
O5    O     O_R   0.946380 0.253940 0.826940 -0.516476
O6    O     O_R   0.053620 0.253940 0.173060 -0.516478
O7    O     O_R   0.446380 0.753940 0.826940 -0.516477
O8    O     O_R   0.553620 0.753940 0.173060 -0.516472
O9    O     O_3   0.834560 0.334570 0.748840 -0.286957
O10   O     O_3   0.165440 0.334570 0.251160 -0.286964
O11   O     O_3   0.334560 0.834570 0.748840 -0.286953
O12   O     O_R   0.042790 0.449410 0.334520 -0.528566
O13   O     O_3   0.665440 0.834570 0.251160 -0.286956
O14   O     O_R   0.820730 0.541240 0.668250 -0.516619
O15   O     O_R   0.179270 0.541240 0.331750 -0.516614
O16   O     O_R   0.320730 0.041240 0.668250 -0.516618
O17   O     O_R   0.679270 0.041240 0.331750 -0.516618
O18   O     O_R   0.714240 0.455060 0.663710 -0.532647
O19   O     O_R   0.285760 0.455060 0.336290 -0.532644
O20   O     O_R   0.214240 0.955060 0.663710 -0.532647
O21   O     O_R   0.785760 0.955060 0.336290 -0.532647
O22   O     O_R   0.736780 0.204870 0.675910 -0.510661
O23   O     O_R   0.457210 0.949410 0.665480 -0.528567
O24   O     O_R   0.263220 0.204870 0.324090 -0.510660
O25   O     O_R   0.236780 0.704870 0.675910 -0.510658
O26   O     O_R   0.763220 0.704870 0.324090 -0.510660
O27   O     O_R   0.833070 0.087590 0.673490 -0.537246
O28   O     O_R   0.166930 0.087590 0.326510 -0.537244
O29   O     O_R   0.333070 0.587590 0.673490 -0.537244
O30   O     O_R   0.666930 0.587590 0.326510 -0.537247
O31   O     O_R   0.946890 0.246800 0.676300 -0.514183
O32   O     O_R   0.053110 0.246800 0.323700 -0.514183
O33   O     O_R   0.446890 0.746800 0.676300 -0.514184
O34   O     O_R   0.542790 0.949410 0.334520 -0.528567
O35   O     O_R   0.553110 0.746800 0.323700 -0.514185
O36   O     O_R   0.956650 0.457120 0.827980 -0.515235
O37   O     O_R   0.043350 0.457120 0.172020 -0.515243
O38   O     O_R   0.456650 0.957120 0.827980 -0.515237
O39   O     O_R   0.543350 0.957120 0.172020 -0.515243
O40   O     O_R   0.820220 0.548390 0.818890 -0.509521
O41   O     O_R   0.179780 0.548390 0.181110 -0.509528
O42   O     O_R   0.320220 0.048390 0.818890 -0.509517
O43   O     O_R   0.679780 0.048390 0.181110 -0.509521
O44   O     O_R   0.713680 0.462770 0.826210 -0.530527
O45   O     O_R   0.736260 0.212010 0.826560 -0.460417
O46   O     O_R   0.286320 0.462770 0.173790 -0.530531
O47   O     O_R   0.213680 0.962770 0.826210 -0.530534
O48   O     O_R   0.786320 0.962770 0.173790 -0.530528
O49   O     O_R   0.263740 0.212010 0.173440 -0.460426
O50   O     O_R   0.236260 0.712010 0.826560 -0.460443
O51   O     O_R   0.763740 0.712010 0.173440 -0.460417
O52   O     O_R   0.832520 0.095300 0.836000 -0.550789

loop_
_geom_bond_atom_site_label_1
_geom_bond_atom_site_label_2
_ccdc_geom_bond_type
C27   C48   S    
C33   H64   S    
Cr9   O24   S    
C57   H77   S    
Cr1   O14   S    
C110  H8    S    
C26   H41   S    
C73   H101  S    
C25   H20   S    
C82   C87   S    
Cr10  O25   S    
C15   H95   S    
C105  C123  S    
C115  H155  S    
Cr12  O31   S    
C37   C42   S    
C96   H32   S    
C113  C122  S    
C2    C22   S    
C68   C90   S    
C51   C57   S    
C91   C100  S    
C10   C125  S    
C52   O16   A    
C58   H82   S    
C36   C71   S    
C83   C88   S    
Cr11  O26   S    
C111  H150  S    
C4    O52   A    
C128  O47   A    
C76   H104  S    
C13   C41   S    
C31   H56   S    
C65   C87   S    
C106  H143  S    
C86   C90   S    
C63   C118  S    
Cr10  O50   S    
Cr2   O6    S    
C99   H114  S    
Cr3   O11   S    
C8    O5    A    
C14   H69   S    
C25   C42   S    
C110  C123  S    
Cr12  O9    S    
C16   C20   S    
Cr5   O41   S    
C46   H135  S    
C90   C126  S    
C83   H116  S    
C24   C107  S    
C27   H43   S    
C102  H130  S    
C34   C69   S    
C112  C125  S    
C42   H65   S    
C2    C52   S    
C26   C47   S    
C81   C90   S    
C119  O12   A    
C78   H106  S    
C17   C34   S    
C86   H122  S    
Cr5   O10   S    
C89   C127  S    
C68   C77   S    
C69   O27   A    
C49   C62   S    
C65   H88   S    
C111  C124  S    
C112  H151  S    
C79   C97   S    
C108  H149  S    
C8    C123  S    
C57   C61   S    
C19   H139  S    
C64   C120  S    
C32   H59   S    
Cr10  O11   S    
C101  H125  S    
C29   H49   S    
C38   H35   S    
C2    C14   S    
C97   F2    S    
C3    O43   A    
C72   O30   A    
C20   H16   S    
C106  C124  S    
C21   H146  S    
C43   H102  S    
C81   H109  S    
C111  H11   S    
C86   H118  S    
Cr10  O20   S    
Cr9   O46   S    
C38   H21   S    
C43   H34   S    
C84   C102  S    
C104  C105  S    
C11   C124  S    
C78   H132  S    
C28   H45   S    
C126  O40   A    
C85   H27   S    
C113  H4    S    
Cr3   O3    S    
C74   H30   S    
C66   C88   S    
Cr3   O29   S    
C104  C122  S    
C120  O33   A    
C77   C94   S    
C13   C23   S    
C60   C119  S    
C15   H80   S    
Cr9   O10   S    
C58   H76   S    
Cr7   O13   S    
Cr12  O52   S    
C9    O6    A    
C22   H2    S    
Cr8   O18   S    
C31   H58   S    
Cr7   O39   S    
C18   C35   S    
Cr5   O12   S    
C4    C91   S    
C57   H81   S    
Cr11  O13   S    
C1    O14   A    
C46   C107  S    
Cr1   O40   S    
C55   H86   S    
C92   C97   S    
C54   C59   S    
C25   H24   S    
C74   C118  S    
C13   C96   S    
C8    O36   A    
Cr1   O9    S    
C70   O28   A    
C16   H91   S    
C29   H51   S    
C65   H97   S    
C119  O32   A    
C9    O37   A    
C103  H127  S    
C12   H1    S    
C105  H147  S    
C108  H144  S    
C106  H148  S    
C28   C49   S    
C109  C114  S    
Cr2   O28   S    
C114  C123  S    
C75   C92   S    
C30   H54   S    
C66   H98   S    
C116  C125  S    
C55   C58   S    
C117  O1    A    
C44   C85   S    
C28   H47   S    
C7    O51   A    
Cr2   O10   S    
C53   C56   S    
C104  H145  S    
Cr3   O7    S    
C33   H63   S    
C83   C101  S    
C34   C43   S    
C127  O46   A    
C128  O42   A    
Cr8   O44   S    
C32   C76   S    
C56   H79   S    
Cr5   O37   S    
C46   H38   S    
C37   C46   S    
C103  H131  S    
C20   C37   S    
C33   C77   S    
C106  C108  S    
C22   C39   S    
C23   H13   S    
C49   H68   S    
Cr6   O23   S    
C121  O35   A    
C91   C95   S    
Cr2   O32   S    
C16   H96   S    
C1    C24   S    
C49   C50   S    
C80   H108  S    
C51   C60   S    
Cr9   O19   S    
C10   O38   A    
C116  H7    S    
C3    O48   A    
Cr8   O9    S    
C58   C62   S    
C114  H156  S    
C67   H90   S    
C51   H85   S    
Cr6   O42   S    
C44   H36   S    
C31   H55   S    
C45   H37   S    
C51   H73   S    
C15   C19   S    
Cr1   O1    S    
C22   H18   S    
C72   O26   A    
C23   C40   S    
C2    C85   S    
C80   C89   S    
C127  O41   A    
C40   H23   S    
Cr8   O45   S    
C117  O31   A    
C30   H52   S    
C12   C17   S    
C5    O49   A    
C111  C116  S    
C59   H83   S    
Cr6   O11   S    
C97   H111  S    
C17   H137  S    
C26   H39   S    
Cr2   O2    S    
C80   H134  S    
C10   O7    A    
Cr4   O8    S    
C79   C88   S    
C54   H71   S    
C66   H89   S    
C61   C117  S    
C99   F4    S    
C14   H94   S    
C67   H99   S    
Cr7   O17   S    
C54   C62   S    
Cr11  O48   S    
Cr7   O43   S    
C56   C60   S    
Cr4   O13   S    
C32   H60   S    
C35   C39   S    
C63   O21   A    
C21   C118  S    
C18   H14   S    
C42   H25   S    
C76   C93   S    
C31   C75   S    
C48   H67   S    
C78   C95   S    
C6    C93   S    
C1    O18   A    
C9    C122  S    
C95   H110  S    
C92   C101  S    
C12   C118  S    
C12   H93   S    
C109  H152  S    
C94   C103  S    
C71   O25   A    
C84   H117  S    
C77   H105  S    
Cr5   O15   S    
C30   C73   S    
C75   H103  S    
Cr4   O35   S    
C70   O24   A    
C100  H128  S    
C7    C94   S    
C115  C124  S    
C102  H126  S    
C80   C98   S    
C82   H115  S    
C63   O17   A    
C79   H107  S    
C6    O50   A    
C93   C102  S    
C81   C99   S    
C19   H15   S    
C113  H3    S    
C39   H22   S    
C56   H78   S    
C66   C75   S    
C27   H44   S    
C40   H57   S    
Cr4   O4    S    
C37   C72   S    
Cr11  O51   S    
C71   O29   A    
C41   O19   A    
C20   H140  S    
C114  H5    S    
C32   H61   S    
C17   H12   S    
C98   F3    S    
C81   H136  S    
C50   C64   S    
C14   C18   S    
C98   H112  S    
C59   C64   S    
C19   C36   S    
C53   H84   S    
C109  C122  S    
C120  O23   A    
C50   H70   S    
C29   H50   S    
C110  H153  S    
C67   C89   S    
C65   C73   S    
C4    O45   A    
Cr1   O36   S    
C68   H92   S    
C44   H113  S    
Cr4   O30   S    
C45   H124  S    
Cr11  O21   S    
C35   C70   S    
C84   H121  S    
Cr8   O22   S    
Cr6   O38   S    
C108  C125  S    
C5    O2    A    
C104  H141  S    
C7    O4    A    
C43   C74   S    
Cr12  O5    S    
C47   C60   S    
C116  H154  S    
C16   C24   S    
C101  H129  S    
C83   H120  S    
C53   C61   S    
C86   C103  S    
C28   H48   S    
C23   H19   S    
C29   C50   S    
C33   H62   S    
C21   H17   S    
C21   C38   S    
C3    C87   S    
C36   C40   S    
C24   C25   S    
C73   C91   S    
C55   H72   S    
C39   H46   S    
C109  H9    S    
C107  H29   S    
C27   H42   S    
C47   C48   S    
C18   H138  S    
C79   H133  S    
C55   C64   S    
C36   C45   S    
C35   C44   S    
C110  C113  S    
C41   O15   A    
C121  O34   A    
C69   O22   A    
C13   C15   S    
C52   O20   A    
C84   C89   S    
C78   C87   S    
Cr6   O16   S    
C54   H87   S    
C53   H74   S    
C11   O8    A    
C34   C38   S    
C82   C100  S    
C95   F1    S    
C100  H123  S    
C105  H142  S    
C88   C128  S    
C59   H75   S    
C48   C61   S    
C126  O44   A    
C94   C99   S    
C68   H100  S    
Cr7   O34   S    
C115  H6    S    
C85   H31   S    
Cr12  O27   S    
Cr10  O47   S    
C62   C121  S    
C74   H26   S    
C5    C92   S    
C6    O3    A    
Cr3   O33   S    
Cr9   O49   S    
C30   H53   S    
C96   H28   S    
C47   H66   S    
C82   H119  S    
C112  H10   S    
C67   C76   S    
C11   O39   A    
C45   C96   S    
C93   C98   S    
C112  C115  S    
C107  H33   S    
C26   H40   S    
