data_mof_unit_2797.cif
_audit_creation_date              2012-12-10T21:42:36-0500
_audit_creation_method            fapswitch 2.2
_symmetry_space_group_name_H-M    P1
_symmetry_Int_Tables_number       1
_space_group_crystal_system       triclinic
_cell_length_a                    10.684333
_cell_length_b                    16.077352
_cell_length_c                    16.818999
_cell_angle_alpha                 88.402516
_cell_angle_beta                  89.778056
_cell_angle_gamma                 92.471316
_cell_volume                      2885.25056618

loop_
_atom_site_label
_atom_site_type_symbol
_atom_type_description
_atom_site_fract_x
_atom_site_fract_y
_atom_site_fract_z
_atom_type_partial_charge
C1    C     C_R   0.503242 0.489330 0.652973 0.894742
C2    C     C_R   0.573792 0.452121 0.222981 -0.243664
C3    C     C_R   0.579673 0.552190 0.858753 -0.242916
C4    C     C_R   0.593358 0.457951 0.141821 -0.225770
C5    C     C_R   0.582668 0.474248 0.899109 0.248660
C6    C     C_R   0.556300 0.528847 0.098474 0.208096
C7    C     C_R   0.568899 0.400367 0.856925 0.487053
C8    C     C_R   0.504775 0.595204 0.137993 0.487704
C9    C     C_R   0.537739 0.405726 0.776044 -0.363268
C10   C     C_R   0.483895 0.588414 0.219597 -0.318428
C11   C     C_R   0.454255 0.763195 0.454345 -0.025963
C12   C     C_R   0.502193 0.510680 0.347113 0.896034
C13   C     C_R   0.553814 0.237413 0.541792 -0.025687
C14   C     C_R   0.455500 0.850305 0.458184 -0.366157
C15   C     C_R   0.549202 0.150265 0.539856 -0.377852
C16   C     C_R   0.740065 0.500187 0.497426 0.872679
C17   C     C_R   0.259989 0.499779 0.502984 0.881026
C18   C     C_R   0.521017 0.891016 0.519809 0.227627
C19   C     C_R   0.471133 0.108802 0.484654 0.257924
C20   C     C_R   0.586033 0.841887 0.575068 0.376874
C21   C     C_R   0.397344 0.156880 0.433240 0.396998
C22   C     C_R   0.579856 0.754323 0.569493 -0.119551
C23   C     C_R   0.127564 0.499776 0.505296 -0.083490
C24   C     C_R   0.408176 0.245204 0.436523 -0.146250
C25   C     C_R   0.771056 0.685500 0.300595 -0.187156
C26   C     C_R   0.237933 0.306628 0.690503 -0.154901
C27   C     C_R   0.816134 0.620136 0.346964 -0.102769
C28   C     C_R   0.183747 0.373869 0.651550 -0.113390
C29   C     C_R   0.889417 0.636822 0.414122 0.113745
C30   C     C_R   0.112007 0.361181 0.582915 0.088739
C31   C     C_R   0.917389 0.719936 0.433930 -0.251200
C32   C     C_R   0.093763 0.280318 0.554419 -0.181592
C33   C     C_R   0.871951 0.786303 0.387779 0.286602
C34   C     C_R   0.872516 0.500265 0.495784 -0.083558
C35   C     C_R   0.147251 0.212194 0.593758 0.272906
C36   C     C_R   0.798496 0.768004 0.320581 -0.134273
C37   C     C_R   0.221042 0.226382 0.661414 -0.191603
C38   C     C_R   0.071949 0.566673 0.467039 -0.247792
C39   C     C_R   0.928154 0.433399 0.534301 -0.251512
C40   C     C_3   0.776865 0.872279 0.629907 0.061781
C41   C     C_3   0.843105 0.920582 0.695668 -0.308032
C42   C     C_3   0.984377 0.910013 0.693490 -0.974714
C43   C     C_3   0.212820 0.156090 0.358492 0.067861
C44   C     C_3   0.115404 0.092819 0.327370 -0.284538
C45   C     C_R   0.056382 0.432424 0.539993 0.010271
C46   C     C_3   0.994284 0.134248 0.304550 -0.978026
C47   C     C_3   0.818978 0.934179 0.391142 -0.820102
C48   C     C_3   0.004223 0.099465 0.552280 -0.825008
C49   C     C_3   0.647510 0.267344 0.859183 0.076274
C50   C     C_3   0.565865 0.193509 0.830404 -0.333813
C51   C     C_3   0.642177 0.134651 0.781847 -0.970637
C52   C     C_3   0.564770 0.722631 0.082907 0.081529
C53   C     C_3   0.552583 0.795203 0.139047 -0.353296
C54   C     C_3   0.655759 0.862421 0.123782 -0.967881
C55   C     C_R   0.943796 0.567545 0.460892 0.014321
C56   C     C_R   0.527291 0.483532 0.737700 -0.089591
C57   C     C_R   0.518097 0.516870 0.261860 -0.101620
C58   C     C_R   0.551215 0.556580 0.779069 -0.225748
H1    H     H_    0.763854 0.817001 0.282572 0.148593
H2    H     H_    0.356470 0.284262 0.396256 0.132577
H3    H     H_    0.716616 0.672187 0.248094 0.143760
H4    H     H_    0.293067 0.316683 0.743435 0.145257
H5    H     H_    0.795741 0.556560 0.329799 0.112523
H6    H     H_    0.198196 0.435810 0.674508 0.114485
H7    H     H_    0.975468 0.732942 0.485171 0.125719
H8    H     H_    0.040388 0.271196 0.500559 0.126479
H9    H     H_    0.128859 0.616694 0.438630 0.160769
H10   H     H_    0.871447 0.382920 0.562121 0.157184
H11   H     H_    0.603009 0.397151 0.255416 0.176789
H12   H     H_    0.264629 0.175143 0.692071 0.128203
H13   H     H_    0.547574 0.617468 0.750111 0.176627
H14   H     H_    0.635324 0.406433 0.113141 0.184151
H15   H     H_    0.595500 0.610083 0.889351 0.171288
H16   H     H_    0.810163 0.899059 0.571372 0.146702
H17   H     H_    0.802094 0.805893 0.635458 0.135551
H18   H     H_    0.823829 0.987758 0.688480 0.222728
H19   H     H_    0.805979 0.897849 0.754548 0.231241
H20   H     H_    0.005477 0.843809 0.705553 0.268664
H21   H     H_    0.030165 0.948651 0.739696 0.270593
H22   H     H_    0.023710 0.929988 0.634503 0.265923
H23   H     H_    0.521446 0.349563 0.743115 0.167708
H24   H     H_    0.234431 0.204056 0.310905 0.143257
H25   H     H_    0.171708 0.185862 0.410965 0.154911
H26   H     H_    0.153650 0.062662 0.274348 0.228774
H27   H     H_    0.094472 0.043818 0.374063 0.239803
H28   H     H_    0.952403 0.162774 0.357254 0.261886
H29   H     H_    0.926115 0.086922 0.281388 0.271590
H30   H     H_    0.012852 0.183139 0.257510 0.268066
H31   H     H_    0.955352 0.876777 0.459956 0.207338
H32   H     H_    0.852585 0.993256 0.418124 0.245983
H33   H     H_    0.725950 0.915544 0.416911 0.251895
H34   H     H_    0.440622 0.638618 0.249672 0.167192
H35   H     H_    0.810851 0.946260 0.326156 0.248523
H36   H     H_    0.187301 0.086758 0.590729 0.232510
H37   H     H_    0.952460 0.097371 0.609753 0.248640
H38   H     H_    0.004389 0.035678 0.528709 0.239035
H39   H     H_    0.955241 0.139013 0.508380 0.241301
H40   H     H_    0.715160 0.243314 0.903295 0.163577
H41   H     H_    0.705637 0.295640 0.809274 0.122264
H42   H     H_    0.523996 0.158656 0.882696 0.231146
H43   H     H_    0.488024 0.215982 0.793147 0.213480
H44   H     H_    0.682102 0.167777 0.728059 0.255857
H45   H     H_    0.613491 0.268821 0.584392 0.140089
H46   H     H_    0.580727 0.081583 0.762535 0.279716
H47   H     H_    0.719475 0.109870 0.818228 0.265358
H48   H     H_    0.558762 0.746932 0.020605 0.171410
H49   H     H_    0.659545 0.696276 0.089126 0.111434
H50   H     H_    0.459937 0.822930 0.130339 0.240215
H51   H     H_    0.558133 0.772087 0.201707 0.208208
H52   H     H_    0.749413 0.836064 0.131923 0.262371
H53   H     H_    0.645801 0.913273 0.166404 0.267612
H54   H     H_    0.648795 0.888881 0.062321 0.270499
H55   H     H_    0.403238 0.732351 0.407326 0.142439
H56   H     H_    0.606775 0.115999 0.580992 0.188487
H57   H     H_    0.405501 0.885053 0.413350 0.194083
H58   H     H_    0.625483 0.715997 0.613551 0.139471
N1    N     N_2   0.589816 0.468456 0.982775 -0.157125
N2    N     N_2   0.561292 0.533926 0.014882 -0.174405
N3    N     N_R   0.515300 0.716920 0.509720 -0.100436
N4    N     N_R   0.484700 0.283080 0.490280 -0.095373
N5    N     N_2   0.527376 0.979972 0.527346 -0.152002
N6    N     N_2   0.463847 0.019720 0.478096 -0.139498
N7    N     N_2   0.907327 0.870067 0.407263 -0.319850
N8    N     N_2   0.132030 0.130295 0.563740 -0.313813
O1    O     O_R   0.494530 0.422540 0.612660 -0.620222
O2    O     O_3   0.322907 0.114535 0.378269 -0.637974
O3    O     O_3   0.572080 0.324340 0.898264 -0.641537
O4    O     O_3   0.463826 0.663726 0.095712 -0.637390
O5    O     O_R   0.505470 0.577460 0.387340 -0.622423
O6    O     O_R   0.504350 0.561840 0.618900 -0.626197
O7    O     O_R   0.495650 0.438160 0.381100 -0.621649
O8    O     O_R   0.678330 0.430350 0.496870 -0.628442
O9    O     O_R   0.321670 0.569650 0.503130 -0.622894
O10   O     O_R   0.688150 0.569660 0.503110 -0.608439
O11   O     O_R   0.311850 0.430340 0.496890 -0.608236
O12   O     O_3   0.646261 0.879627 0.638119 -0.638001
Zn1   Zn    Zn3+2 0.493440 0.406980 0.495830 0.947023
Zn2   Zn    Zn3+2 0.506560 0.593020 0.504170 0.949254

loop_
_geom_bond_atom_site_label_1
_geom_bond_atom_site_label_2
_ccdc_geom_bond_type
C19   N6    S    
C42   H22   S    
C23   C45   A    
C48   H37   S    
C27   C29   A    
C43   H25   S    
C39   H10   S    
C14   C18   A    
C30   C45   S    
C36   H1    S    
C16   O10   A    
C52   O4    S    
C2    C57   A    
C53   C54   S    
C51   H44   S    
C15   C19   A    
C48   H39   S    
C40   O12   S    
C17   C23   S    
C35   N8    S    
C19   C21   A    
C1    C56   S    
C1    O1    A    
C41   H19   S    
C11   C14   A    
C58   H13   S    
C14   H57   S    
C33   C36   A    
C54   H52   S    
O11   Zn1   S    
C41   C42   S    
C16   C34   S    
C49   H40   S    
C8    O4    S    
O5    Zn2   S    
C52   H49   S    
C56   C58   A    
C17   O11   A    
C31   C33   A    
C13   H45   S    
C2    H11   S    
C24   H2    S    
C39   C45   A    
C22   H58   S    
C10   H34   S    
O9    Zn2   S    
C37   H12   S    
C11   H55   S    
C43   O2    S    
C44   C46   S    
C46   H30   S    
C22   N3    A    
C49   O3    S    
C24   N4    A    
C12   O5    A    
C38   C55   A    
C34   C39   A    
C32   C35   A    
C10   C57   A    
C4    C6    A    
C1    O6    A    
C12   O7    A    
C5    C7    A    
C6    C8    A    
H31   N7    S    
O1    Zn1   S    
C51   H46   S    
C5    N1    S    
C16   O8    A    
C2    C4    A    
C43   C44   S    
O10   Zn2   S    
O7    Zn1   S    
C49   H41   S    
C47   N7    S    
C51   H47   S    
C50   C51   S    
C47   H35   S    
C15   H56   S    
C54   H54   S    
C9    C56   A    
C25   H3    S    
C20   O12   S    
N5    N6    D    
C27   H5    S    
C12   C57   S    
C28   H6    S    
C40   C41   S    
C20   C22   A    
C42   H20   S    
C13   C15   A    
C17   O9    A    
C47   H32   S    
C44   H27   S    
O6    Zn2   S    
C4    H14   S    
C13   N4    A    
C52   C53   S    
C32   H8    S    
C46   H29   S    
C53   H51   S    
C31   H7    S    
C48   H38   S    
C11   N3    A    
C35   C37   A    
N3    Zn2   S    
C47   H33   S    
C3    C5    A    
C48   N8    S    
C26   C37   A    
C25   C27   A    
C23   C38   A    
C29   C55   S    
C18   N5    S    
C26   C28   A    
C40   H17   S    
C44   H26   S    
C28   C30   A    
C26   H4    S    
C29   C31   A    
N1    N2    D    
C41   H18   S    
C30   C32   A    
C53   H50   S    
C40   H16   S    
C54   H53   S    
C18   C20   A    
C3    H15   S    
C50   H42   S    
C25   C36   A    
C52   H48   S    
C3    C58   A    
C7    C9    A    
C42   H21   S    
C38   H9    S    
C50   H43   S    
C8    C10   A    
C49   C50   S    
C21   C24   A    
C33   N7    S    
C43   H24   S    
C34   C55   A    
N4    Zn1   S    
O8    Zn1   S    
C7    O3    S    
C21   O2    S    
C6    N2    S    
C9    H23   S    
C46   H28   S    
H36   N8    S    
