data_mof_unit_2885.cif
_audit_creation_date              2012-12-11T15:44:56-0500
_audit_creation_method            fapswitch 2.2
_symmetry_space_group_name_H-M    P1
_symmetry_Int_Tables_number       1
_space_group_crystal_system       triclinic
_cell_length_a                    6.931841
_cell_length_b                    16.829791
_cell_length_c                    17.069444
_cell_angle_alpha                 100.43555
_cell_angle_beta                  88.279612
_cell_angle_gamma                 91.591147
_cell_volume                      1957.01967918

loop_
_atom_site_label
_atom_site_type_symbol
_atom_type_description
_atom_site_fract_x
_atom_site_fract_y
_atom_site_fract_z
_atom_type_partial_charge
O1    O     O_R   0.494370 0.415690 0.413450 -0.541044
O2    O     O_R   0.819420 0.429360 0.578420 -0.539818
O3    O     O_R   0.994280 0.584310 0.586550 -0.540787
C1    C     C_R   0.647060 0.414133 0.605177 0.724711
O4    O     O_R   0.823790 0.406230 0.413570 -0.544270
O5    O     O_R   0.998670 0.561000 0.420530 -0.537105
C2    C     C_R   0.655089 0.383166 0.384817 0.682118
O6    O     O_R   0.489970 0.439000 0.579470 -0.537966
O7    O     O_3   0.662300 0.550810 0.502470 -0.370465
V1    V     V_3+5 0.935380 0.490570 0.499540 1.402144
O8    O     O_R   0.328650 0.570640 0.421580 -0.543355
C3    C     C_R   0.164312 0.586873 0.394978 0.700272
O9    O     O_R   0.324290 0.593770 0.586430 -0.544106
C4    C     C_R   0.154934 0.616943 0.615104 0.686281
V2    V     V_3+5 0.435930 0.509430 0.500460 1.399600
O10   O     O_3   0.159140 0.449190 0.497530 -0.367097
C5    C     C_R   0.312348 0.723535 0.717811 -0.157183
H1    H     H_    0.453424 0.704149 0.694138 0.116392
C6    C     C_R   0.301278 0.787339 0.782928 -0.151147
H2    H     H_    0.434342 0.815261 0.807261 0.118468
C7    C     C_R   0.121280 0.814724 0.816011 -0.047129
C8    C     C_R   0.952670 0.776528 0.782095 -0.156302
H3    H     H_    0.811591 0.795905 0.805772 0.116841
C9    C     C_R   0.963740 0.712727 0.716979 -0.151224
H4    H     H_    0.830670 0.684803 0.692654 0.118146
C10   C     C_R   0.143734 0.685346 0.683890 -0.047660
C11   C     C_R   0.174276 0.640736 0.334191 -0.070116
C12   C     C_R   0.090536 0.858943 0.165535 -0.070146
C13   C     C_R   0.893905 0.797836 0.261671 -0.201015
C14   C     C_R   0.916529 0.852747 0.209422 -0.162828
C15   C     C_R   0.243605 0.809110 0.176342 -0.237732
C16   C     C_R   0.220659 0.752773 0.228397 0.159936
C17   C     C_R   0.044085 0.746814 0.271233 0.160174
C18   C     C_R   0.021174 0.690524 0.323331 -0.238554
C19   C     C_R   0.348225 0.646862 0.290247 -0.163462
C20   C     C_R   0.370817 0.701730 0.237949 -0.198800
H5    H     H_    0.886882 0.687197 0.356929 0.123181
H6    H     H_    0.469035 0.609308 0.296748 0.128747
H7    H     H_    0.757996 0.794941 0.294200 0.122252
H8    H     H_    0.506704 0.704600 0.205399 0.123353
H9    H     H_    0.795709 0.890300 0.202936 0.129274
H10   H     H_    0.377914 0.812463 0.142763 0.123643
C21   C     C_R   0.623899 0.365067 0.668831 -0.099961
C22   C     C_R   0.638907 0.144312 0.838614 -0.128362
C23   C     C_R   0.815374 0.180080 0.724320 -0.153039
C24   C     C_R   0.782486 0.128579 0.778715 -0.193775
C25   C     C_R   0.525684 0.214400 0.844052 -0.073998
C26   C     C_R   0.554733 0.266600 0.786699 0.081561
C27   C     C_R   0.703391 0.248480 0.727135 0.090498
C28   C     C_R   0.738801 0.298386 0.670110 -0.231566
C29   C     C_R   0.476937 0.383271 0.726768 -0.253922
C30   C     C_R   0.441950 0.336126 0.786236 0.342602
H11   H     H_    0.851738 0.283679 0.624846 0.127133
H12   H     H_    0.388583 0.435229 0.725872 0.118160
H13   H     H_    0.928787 0.165887 0.679234 0.118679
H14   H     H_    0.871316 0.075884 0.774186 0.124454
C31   C     C_R   0.812144 0.278108 0.279963 -0.160123
H15   H     H_    0.953088 0.298623 0.302056 0.115631
C32   C     C_R   0.800789 0.214333 0.214843 -0.166128
H16   H     H_    0.933612 0.187557 0.188973 0.119607
C33   C     C_R   0.620948 0.185532 0.183677 -0.042200
C34   C     C_R   0.452762 0.222267 0.219555 -0.163621
H17   H     H_    0.311844 0.201785 0.197392 0.120113
C35   C     C_R   0.464093 0.286135 0.284583 -0.160815
H18   H     H_    0.331247 0.312942 0.310375 0.119356
C36   C     C_R   0.643935 0.314862 0.315859 -0.041928
O11   O     O_R   0.774880 0.061150 0.920630 -0.542851
O12   O     O_R   0.440980 0.093710 0.086500 -0.539394
O13   O     O_R   0.266190 0.938890 0.079390 -0.536978
C37   C     C_R   0.609748 0.117028 0.114991 0.683428
O14   O     O_R   0.445420 0.070740 0.921670 -0.537982
O15   O     O_R   0.270660 0.915760 0.913380 -0.540599
C38   C     C_R   0.617830 0.088569 0.897044 0.697518
O16   O     O_R   0.770400 0.084270 0.086640 -0.543239
O17   O     O_3   0.602590 0.949210 0.997500 -0.368349
V3    V     V_3+5 0.329470 0.009420 0.000470 1.409360
O18   O     O_R   0.940650 0.906250 0.913470 -0.543273
C39   C     C_R   0.110035 0.883119 0.884802 0.685300
O19   O     O_R   0.936210 0.929220 0.078300 -0.542747
C40   C     C_R   0.100546 0.912934 0.104862 0.702456
V4    V     V_3+5 0.828930 0.990510 0.999490 1.393949
O20   O     O_3   0.105680 0.050790 0.002500 -0.367010
O21   O     O_3   0.296356 0.357034 0.842679 -0.648248
H19   H     H_    0.232540 0.406295 0.833123 0.288134
C41   C     C_R   0.391005 0.235245 0.913396 0.150589
C42   C     C_R   0.195165 0.211913 0.907430 -0.006840
C43   C     C_R   0.068736 0.232898 0.972893 -0.064379
C44   C     C_R   0.137336 0.276468 0.044628 -0.123188
C45   C     C_R   0.332427 0.299357 0.051003 -0.117573
C46   C     C_R   0.459256 0.278728 0.985684 -0.118916
H20   H     H_    0.141276 0.178096 0.852099 0.092480
H21   H     H_    0.917695 0.215457 0.968135 0.094795
H22   H     H_    0.039277 0.292713 0.095175 0.104922
H23   H     H_    0.385282 0.333333 0.106484 0.119440
H24   H     H_    0.609969 0.297012 0.991182 0.094615

loop_
_geom_bond_atom_site_label_1
_geom_bond_atom_site_label_2
_ccdc_geom_bond_type
C33   C37   S    
O18   C39   A    
C43   C44   A    
C15   H10   S    
C18   H5    S    
C19   C20   A    
C31   C36   A    
O15   V3    S    
V4    O20   S    
C46   H24   S    
C15   C16   A    
C23   C24   A    
C34   H17   S    
C5    C10   A    
C25   C41   S    
C7    C8    A    
C6    C7    A    
C9    C10   A    
C42   H20   S    
O5    C3    A    
O14   V3    S    
C31   C32   A    
V2    O10   S    
C13   C17   A    
O14   C38   A    
O13   V3    S    
C45   H23   S    
O15   C39   A    
O8    V2    S    
C6    H2    S    
C7    C39   S    
C37   O16   A    
C34   C35   A    
C14   H9    S    
O11   C38   A    
O18   V4    S    
O7    V1    S    
C22   C25   A    
C1    O6    A    
C32   H16   S    
O9    C4    A    
C22   C38   S    
C22   C24   A    
C5    H1    S    
C11   C18   A    
C32   C33   A    
C28   H11   S    
C3    C11   S    
C29   C30   A    
C25   C26   A    
C20   H8    S    
C19   H6    S    
C9    H4    S    
V3    O20   S    
O4    C2    A    
C42   C43   A    
O17   V4    S    
C11   C19   A    
C41   C42   A    
C35   C36   A    
C30   O21   S    
O2    C1    A    
O17   V3    S    
C13   C14   A    
O21   H19   S    
C23   C27   A    
O8    C3    A    
C13   H7    S    
C17   C18   A    
C4    C10   S    
O3    C4    A    
O1    V2    S    
C26   C27   A    
O11   V4    S    
O6    V2    S    
O9    V2    S    
C8    C9    A    
O16   V4    S    
O2    V1    S    
C16   C20   A    
O19   V4    S    
C44   H22   S    
O1    C2    A    
C12   C15   A    
O5    V1    S    
C41   C46   A    
C21   C28   A    
C1    C21   S    
O12   V3    S    
C29   H12   S    
C16   C17   A    
C12   C14   A    
O7    V2    S    
O4    V1    S    
O3    V1    S    
V1    O10   S    
C35   H18   S    
C2    C36   S    
C21   C29   A    
C31   H15   S    
C5    C6    A    
C33   C34   A    
C12   C40   S    
O19   C40   A    
C26   C30   A    
C44   C45   A    
C23   H13   S    
O12   C37   A    
C27   C28   A    
C24   H14   S    
C8    H3    S    
O13   C40   A    
C45   C46   A    
C43   H21   S    
