data_mof_unit_4307.cif
_audit_creation_date              2012-12-11T15:48:07-0500
_audit_creation_method            fapswitch 2.2
_symmetry_space_group_name_H-M    P1
_symmetry_Int_Tables_number       1
_space_group_crystal_system       triclinic
_cell_length_a                    6.923261
_cell_length_b                    17.58809
_cell_length_c                    19.458471
_cell_angle_alpha                 108.439012
_cell_angle_beta                  89.347683
_cell_angle_gamma                 90.511602
_cell_volume                      2247.57444033

loop_
_atom_site_label
_atom_site_type_symbol
_atom_type_description
_atom_site_fract_x
_atom_site_fract_y
_atom_site_fract_z
_atom_type_partial_charge
O1    O     O_R   0.494330 0.415710 0.413720 -0.547719
O2    O     O_R   0.819360 0.430070 0.560210 -0.533304
O3    O     O_R   0.994320 0.584290 0.586280 -0.560407
C1    C     C_R   0.650122 0.415750 0.582459 0.736365
O4    O     O_R   0.823740 0.406290 0.412670 -0.517941
O5    O     O_R   0.998730 0.560340 0.437690 -0.543619
C2    C     C_R   0.655109 0.381053 0.386107 0.724572
O6    O     O_R   0.489920 0.439660 0.562310 -0.536284
O7    O     O_3   0.662330 0.550570 0.508380 -0.387892
V1    V     V_3+5 0.935370 0.490620 0.498440 1.457312
O8    O     O_R   0.328720 0.569930 0.439790 -0.548283
C3    C     C_R   0.160758 0.583522 0.416934 0.708229
O9    O     O_R   0.324340 0.593710 0.587330 -0.540219
C4    C     C_R   0.153773 0.615615 0.616348 0.678375
V2    V     V_3+5 0.435940 0.509380 0.501560 1.414260
O10   O     O_3   0.159110 0.449430 0.491620 -0.350209
C5    C     C_R   0.297095 0.734727 0.709467 -0.121422
H1    H     H_    0.428192 0.726275 0.677099 0.112145
C6    C     C_R   0.289683 0.798885 0.774066 -0.132383
H2    H     H_    0.414759 0.837779 0.789481 0.116392
C7    C     C_R   0.122023 0.813647 0.817402 -0.087764
C8    C     C_R   0.964059 0.761661 0.795861 -0.136502
H3    H     H_    0.834835 0.772010 0.829499 0.153773
C9    C     C_R   0.968641 0.696477 0.731507 0.000464
C10   C     C_R   0.137722 0.682950 0.686213 -0.118420
C11   C     C_R   0.017070 0.608071 0.305996 0.087420
C12   C     C_R   0.151879 0.628580 0.363978 -0.069316
C13   C     C_R   0.282954 0.691613 0.370519 -0.279024
C14   C     C_R   0.278936 0.736123 0.322368 0.126959
C15   C     C_R   0.128343 0.723661 0.271563 0.063811
C16   C     C_R   0.985655 0.663697 0.267049 -0.031015
C17   C     C_R   0.423095 0.793549 0.324748 -0.181853
C18   C     C_R   0.421182 0.837579 0.276296 -0.185307
C19   C     C_R   0.270972 0.827248 0.226426 0.106695
C20   C     C_R   0.121924 0.771309 0.224999 0.076888
C21   C     C_R   0.966758 0.763283 0.177123 0.046493
C22   C     C_R   0.815969 0.710168 0.177794 -0.151023
C23   C     C_R   0.819444 0.662286 0.223648 -0.030180
C24   C     C_R   0.266296 0.872571 0.178530 -0.213917
C25   C     C_R   0.110904 0.865060 0.130799 -0.081429
C26   C     C_R   0.960623 0.810812 0.131103 -0.201504
H4    H     H_    0.392039 0.704750 0.412287 0.123952
H5    H     H_    0.539942 0.803236 0.363216 0.119076
H6    H     H_    0.536350 0.880352 0.278346 0.127660
H7    H     H_    0.381540 0.915072 0.179577 0.122507
H8    H     H_    0.839627 0.804888 0.094844 0.132760
H9    H     H_    0.690836 0.708476 0.144292 0.170970
C27   C     C_R   0.781187 0.186317 0.871180 -0.210424
C28   C     C_R   0.624421 0.134517 0.869024 -0.085173
C29   C     C_R   0.474108 0.130611 0.820496 -0.226932
C30   C     C_R   0.480030 0.176996 0.773860 0.104911
C31   C     C_R   0.637278 0.229923 0.776406 0.020189
C32   C     C_R   0.789891 0.235698 0.825897 0.049038
C33   C     C_R   0.329186 0.171456 0.725014 -0.198715
C34   C     C_R   0.332836 0.217320 0.678289 -0.152251
C35   C     C_R   0.486760 0.270051 0.679856 0.161528
C36   C     C_R   0.639530 0.277103 0.729568 0.058731
C37   C     C_R   0.791413 0.332163 0.732941 -0.007555
C38   C     C_R   0.939382 0.341849 0.784955 -0.043137
C39   C     C_R   0.943346 0.291816 0.830136 0.097408
C40   C     C_R   0.488234 0.316539 0.633017 -0.164857
C41   C     C_R   0.642268 0.368837 0.633691 -0.067798
C42   C     C_R   0.792079 0.376411 0.683550 -0.162859
H10   H     H_    0.891594 0.188779 0.910494 0.135385
H11   H     H_    0.352679 0.090590 0.818506 0.119550
H12   H     H_    0.207533 0.131641 0.723090 0.125965
H13   H     H_    0.214070 0.212017 0.641221 0.127145
H14   H     H_    0.371380 0.310873 0.595040 0.125083
H15   H     H_    0.909356 0.417471 0.683339 0.123021
C43   C     C_R   0.798460 0.253893 0.295390 -0.002191
C44   C     C_R   0.786667 0.193663 0.227839 -0.227793
H16   H     H_    0.904623 0.151553 0.210352 0.113341
C45   C     C_R   0.621037 0.183860 0.184760 -0.039477
C46   C     C_R   0.466755 0.236842 0.209651 -0.162047
H17   H     H_    0.336571 0.230724 0.177953 0.120105
C47   C     C_R   0.479845 0.299424 0.275173 -0.180997
H18   H     H_    0.359327 0.339979 0.291509 0.122703
C48   C     C_R   0.645435 0.310150 0.318809 -0.057530
O11   O     O_R   0.774940 0.060470 0.937800 -0.541026
O12   O     O_R   0.440880 0.093730 0.087350 -0.545340
O13   O     O_R   0.266130 0.939630 0.062280 -0.537515
C49   C     C_R   0.609525 0.116816 0.115377 0.690856
O14   O     O_R   0.445480 0.069960 0.939820 -0.543213
O15   O     O_R   0.270770 0.915690 0.913690 -0.538181
C50   C     C_R   0.614938 0.085112 0.918223 0.705765
O16   O     O_R   0.770300 0.084410 0.086380 -0.540878
O17   O     O_3   0.602600 0.949510 0.991670 -0.365777
V3    V     V_3+5 0.329470 0.009370 0.001550 1.408308
O18   O     O_R   0.940760 0.906160 0.912560 -0.545578
C51   C     C_R   0.110490 0.882925 0.884956 0.697501
O19   O     O_R   0.936150 0.929930 0.060100 -0.543237
C52   C     C_R   0.103988 0.914760 0.081742 0.714372
V4    V     V_3+5 0.828930 0.990450 0.998310 1.409312
O20   O     O_3   0.105670 0.050490 0.008320 -0.371179
C53   C     C_2   0.636882 0.621143 0.232541 0.357634
H19   H     H_    0.610619 0.605082 0.281252 0.044574
O21   O     O_2   0.512423 0.605661 0.186065 -0.522921
C54   C     C_2   0.076957 0.410033 0.796188 0.361530
H20   H     H_    0.021236 0.470473 0.809179 0.083803
O22   O     O_2   0.250328 0.399227 0.786941 -0.529733
C55   C     C_3   0.104202 0.301626 0.885419 -0.334827
C56   C     C_3   0.040957 0.355591 0.960237 -0.727438
H21   H     H_    0.007024 0.416424 0.958145 0.239245
H22   H     H_    0.911377 0.330674 0.979760 0.223746
H23   H     H_    0.159618 0.360709 0.999395 0.223019
H24   H     H_    0.152394 0.242720 0.888060 0.166672
H25   H     H_    0.237949 0.326902 0.869831 0.235950
C57   C     C_2   0.968102 0.251143 0.340301 0.362771
H26   H     H_    0.106300 0.231093 0.314305 0.039660
O23   O     O_2   0.952723 0.265210 0.405702 -0.521200
C58   C     C_2   0.793654 0.644532 0.715657 0.319648
H27   H     H_    0.731616 0.623867 0.662164 0.084139
O24   O     O_2   0.710754 0.626660 0.764176 -0.523089
C59   C     C_3   0.936103 0.522461 0.278329 -0.361469
C60   C     C_3   0.094370 0.458700 0.259887 -0.729264
H28   H     H_    0.207868 0.473516 0.225261 0.246868
H29   H     H_    0.160923 0.452910 0.309369 0.205285
H30   H     H_    0.030630 0.399420 0.229925 0.204189
H31   H     H_    0.832465 0.511417 0.318093 0.174551
H32   H     H_    0.858973 0.511418 0.226637 0.187962

loop_
_geom_bond_atom_site_label_1
_geom_bond_atom_site_label_2
_ccdc_geom_bond_type
C55   H25   S    
O17   V3    S    
V4    O20   S    
C43   C48   A    
C45   C46   A    
C53   H19   S    
C1    O6    A    
C59   C60   S    
C57   H26   S    
C13   C14   A    
C11   C12   A    
C14   C15   A    
C46   C47   A    
C15   C20   A    
C21   C22   A    
C6    C7    A    
C22   C23   A    
C47   C48   A    
O11   V4    S    
C14   C17   A    
O5    C3    A    
C15   C16   A    
C27   H10   S    
C60   H28   S    
C1    C41   S    
C37   C42   A    
C35   C36   A    
C56   H23   S    
C19   C20   A    
O13   C52   A    
O8    V2    S    
C42   H15   S    
C60   H29   S    
C23   C53   S    
C26   H8    S    
C43   C44   A    
O1    V2    S    
C22   H9    S    
O7    V1    S    
C59   H31   S    
C24   H7    S    
O14   V3    S    
C38   C39   A    
O9    C4    A    
C21   C26   A    
C56   H21   S    
C9    C58   S    
O15   C51   A    
O4    V1    S    
C32   C39   A    
C18   C19   A    
C7    C51   S    
C8    H3    S    
C27   C32   A    
V3    O20   S    
C46   H17   S    
C3    C12   S    
C30   C31   A    
C55   C56   S    
C28   C50   S    
C9    C10   A    
O12   C49   A    
O19   C52   A    
C44   C45   A    
C29   C30   A    
C37   C38   A    
C49   O16   A    
C25   C52   S    
C19   C24   A    
C20   C21   A    
O2    C1    A    
C11   C59   S    
C41   C42   A    
O16   V4    S    
O19   V4    S    
C60   H30   S    
C34   C35   A    
C5    H1    S    
C58   O24   D    
C47   H18   S    
C56   H22   S    
O3    C4    A    
C2    C48   S    
C27   C28   A    
O14   C50   A    
C28   C29   A    
O6    V2    S    
C54   O22   D    
O9    V2    S    
C8    C9    A    
C39   C55   S    
O2    V1    S    
C45   C49   S    
O11   C50   A    
C31   C32   A    
O4    C2    A    
C55   H24   S    
C33   C34   A    
C25   C26   A    
C58   H27   S    
O1    C2    A    
C18   H6    S    
O15   V3    S    
O5    V1    S    
C34   H13   S    
O8    C3    A    
C53   O21   D    
C33   H12   S    
C16   C23   A    
C30   C33   A    
C5    C10   A    
C17   C18   A    
C6    H2    S    
O7    V2    S    
C44   H16   S    
O12   V3    S    
O3    V1    S    
V1    O10   S    
C40   H14   S    
C36   C37   A    
O17   V4    S    
C13   H4    S    
C5    C6    A    
C17   H5    S    
C57   O23   D    
C4    C10   S    
O18   V4    S    
C40   C41   A    
C29   H11   S    
O13   V3    S    
C31   C36   A    
C24   C25   A    
C11   C16   A    
C54   H20   S    
C12   C13   A    
C38   C54   S    
C35   C40   A    
C43   C57   S    
O18   C51   A    
C7    C8    A    
C59   H32   S    
V2    O10   S    
