data_mof_unit_3447.cif
_audit_creation_date              2012-12-10T20:39:59-0500
_audit_creation_method            fapswitch 2.2
_symmetry_space_group_name_H-M    P1
_symmetry_Int_Tables_number       1
_space_group_crystal_system       triclinic
_cell_length_a                    23.421978
_cell_length_b                    10.692366
_cell_length_c                    9.846297
_cell_angle_alpha                 90.054332
_cell_angle_beta                  89.739777
_cell_angle_gamma                 90.039323
_cell_volume                      2465.84367771

loop_
_atom_site_label
_atom_site_type_symbol
_atom_type_description
_atom_site_fract_x
_atom_site_fract_y
_atom_site_fract_z
_atom_type_partial_charge
C1    C     C_R   0.499130 0.259937 0.500145 0.882301
C2    C     C_R   0.969434 0.284557 0.552268 -0.159925
C3    C     C_R   0.028845 0.283874 0.553083 -0.157976
C4    C     C_R   0.059431 0.394469 0.527745 -0.014938
C5    C     C_R   0.029933 0.506675 0.501305 -0.022046
C6    C     C_R   0.060268 0.618128 0.475497 -0.015518
C7    C     C_R   0.030475 0.729442 0.449465 -0.158145
C8    C     C_R   0.971032 0.730168 0.448889 -0.160291
C9    C     C_R   0.119030 0.396058 0.527677 0.503047
C10   C     C_R   0.119874 0.614952 0.476558 0.503852
C11   C     C_R   0.237719 0.497401 0.624798 -0.099892
C12   C     C_R   0.389281 0.499916 0.500306 0.867329
C13   C     C_R   0.296972 0.495861 0.624511 -0.215938
C14   C     C_R   0.327033 0.500652 0.500881 -0.037355
C15   C     C_R   0.297127 0.506792 0.377756 -0.217734
C16   C     C_R   0.237888 0.508615 0.378486 -0.101162
C17   C     C_R   0.208320 0.503976 0.501891 0.322851
C18   C     C_R   0.761903 0.496588 0.622261 -0.109250
C19   C     C_R   0.702713 0.492994 0.622350 -0.237043
C20   C     C_R   0.672905 0.501826 0.499357 -0.054715
C21   C     C_R   0.702990 0.514992 0.376535 -0.229491
C22   C     C_R   0.762209 0.518730 0.376870 -0.129582
C23   C     C_R   0.498913 0.739891 0.500058 0.909602
C24   C     C_R   0.791548 0.509043 0.499606 0.332823
C25   C     C_R   0.498384 0.063679 0.623460 0.049874
C26   C     C_R   0.492379 0.128301 0.501697 -0.078662
C27   C     C_R   0.476981 0.064279 0.382989 -0.215926
C28   C     C_R   0.476819 0.935007 0.382692 -0.242033
C29   C     C_R   0.492004 0.871218 0.501327 -0.097423
C30   C     C_R   0.498347 0.936064 0.622760 0.040293
C31   C     C_3   0.543313 0.929067 0.730400 0.331151
C32   C     C_3   0.543533 0.072349 0.730790 -0.600825
C33   C     C_R   0.453841 0.456343 0.071508 0.122314
C34   C     C_R   0.610697 0.499888 0.499712 0.869748
C35   C     C_R   0.541836 0.560157 0.071982 0.503105
C36   C     C_R   0.542393 0.557048 0.927070 -0.250263
C37   C     C_R   0.453565 0.457556 0.929078 0.195576
C38   C     C_3   0.427954 0.330256 0.922060 -0.478381
C39   C     C_3   0.429240 0.327930 0.076335 -0.489374
C40   C     C_R   0.880793 0.617899 0.474425 0.500777
C41   C     C_R   0.880096 0.398852 0.524835 0.503189
C42   C     C_R   0.939661 0.395867 0.526208 -0.014518
C43   C     C_R   0.969959 0.507388 0.500602 -0.022847
C44   C     C_R   0.940427 0.619580 0.474262 -0.011629
H1    H     H_    0.946979 0.197781 0.572122 0.192810
H2    H     H_    0.680416 0.483345 0.718390 0.165609
H3    H     H_    0.680914 0.522813 0.280566 0.199493
H4    H     H_    0.785391 0.528209 0.282025 0.141644
H5    H     H_    0.468111 0.113033 0.289406 0.160445
H6    H     H_    0.467996 0.885956 0.288752 0.164379
H7    H     H_    0.525286 0.889831 0.825922 0.097417
H8    H     H_    0.526468 0.111194 0.827299 0.179085
H9    H     H_    0.582674 0.120646 0.694809 0.195436
H10   H     H_    0.050661 0.196593 0.573505 0.193984
H11   H     H_    0.577279 0.599453 0.871420 0.181520
H12   H     H_    0.383979 0.332184 0.880145 0.200230
H13   H     H_    0.456840 0.260828 0.874064 0.214476
H14   H     H_    0.386051 0.326423 0.123559 0.206616
H15   H     H_    0.459868 0.258445 0.117009 0.204059
H16   H     H_    0.052941 0.816179 0.429488 0.194262
H17   H     H_    0.949205 0.817446 0.428517 0.192765
H18   H     H_    0.214556 0.493738 0.720172 0.138622
H19   H     H_    0.319112 0.490931 0.720709 0.157371
H20   H     H_    0.319382 0.510492 0.281149 0.159505
H21   H     H_    0.214856 0.513304 0.283488 0.138638
H22   H     H_    0.784857 0.489237 0.717145 0.139793
N1    N     N_R   0.852241 0.508694 0.499499 -0.358674
N2    N     N_R   0.147641 0.505105 0.502285 -0.361043
N3    N     N_R   0.499610 0.499140 0.142800 -0.143856
N4    N     N_R   0.499610 0.499180 0.857150 -0.127082
O1    O     O_R   0.500010 0.316790 0.614690 -0.610935
O2    O     O_2   0.850074 0.293019 0.547828 -0.558070
O3    O     O_2   0.148327 0.289701 0.551868 -0.548598
O4    O     O_2   0.149994 0.720481 0.452748 -0.547583
O5    O     O_R   0.500000 0.316760 0.385350 -0.628046
O6    O     O_R   0.416160 0.499980 0.614700 -0.622466
O7    O     O_R   0.416150 0.499940 0.385360 -0.623231
O8    O     O_R   0.500000 0.683240 0.614650 -0.597933
O9    O     O_R   0.499990 0.683210 0.385310 -0.630904
O10   O     O_R   0.583850 0.500060 0.614640 -0.619059
O11   O     O_R   0.583840 0.500020 0.385300 -0.569256
O12   O     O_2   0.851436 0.724256 0.450695 -0.569467
Zn1   Zn    Zn3+2 0.500000 0.500020 0.653130 0.959865
Zn2   Zn    Zn3+2 0.500000 0.499980 0.346870 0.973954
O13   O     O_3   0.593672 0.862849 0.690896 -0.625628
C45   C     C_3   0.628373 0.923647 0.593088 0.087355
H23   H     H_    0.657135 0.990595 0.645702 0.162511
H24   H     H_    0.603078 0.973679 0.514755 0.142192
C46   C     C_3   0.664849 0.825633 0.520705 -0.348452
H25   H     H_    0.687600 0.768033 0.597171 0.249702
H26   H     H_    0.636592 0.763666 0.460193 0.213973
C47   C     C_3   0.708732 0.885811 0.426330 -0.871625
H27   H     H_    0.687193 0.946104 0.350629 0.249168
H28   H     H_    0.732864 0.811739 0.371721 0.288961
H29   H     H_    0.739312 0.943192 0.485702 0.286052
O14   O     O_3   0.585926 0.616202 0.142281 -0.628973
C48   C     C_3   0.586455 0.747140 0.119896 0.068774
H30   H     H_    0.579964 0.794096 0.219501 0.173681
H31   H     H_    0.552066 0.782065 0.051339 0.104029
C49   C     C_3   0.644716 0.786067 0.063388 -0.346571
H32   H     H_    0.678594 0.757916 0.135915 0.227991
H33   H     H_    0.652672 0.737597 0.965240 0.231533
C50   C     C_3   0.647901 0.927123 0.040748 -0.915384
H34   H     H_    0.616185 0.956530 0.963831 0.276030
H35   H     H_    0.691190 0.952699 0.003642 0.273327
H36   H     H_    0.639272 0.978086 0.136939 0.250632

loop_
_geom_bond_atom_site_label_1
_geom_bond_atom_site_label_2
_ccdc_geom_bond_type
C22   H4    S    
C31   O13   S    
C10   O4    S    
C41   C42   A    
C7    H16   S    
C19   C20   A    
C11   H18   S    
C48   C49   S    
C48   H30   S    
C19   H2    S    
C7    C8    A    
C41   N1    A    
C35   O14   S    
C26   C27   A    
C29   C30   A    
C18   C24   A    
C23   C29   S    
C28   C29   A    
C30   C31   S    
C3    H10   S    
C45   H24   S    
O5    Zn2   S    
C15   C16   A    
C18   C19   A    
C32   H8    S    
C24   N1    S    
C34   O10   A    
C28   H6    S    
O8    Zn1   S    
C33   C39   S    
C35   C36   A    
C16   C17   A    
C40   N1    A    
C15   H20   S    
C34   O11   A    
C46   H26   S    
C33   N3    A    
C8    H17   S    
C20   C34   S    
C25   C32   S    
C5    C43   A    
C21   C22   A    
O14   C48   S    
O9    Zn2   S    
C9    O3    S    
O10   Zn1   S    
O6    Zn1   S    
C49   H33   S    
C48   H31   S    
C36   N4    A    
O1    Zn1   S    
C2    H1    S    
C38   C39   S    
C1    O5    A    
C40   O12   S    
C45   H23   S    
O7    Zn2   S    
C25   C26   A    
O13   C45   S    
C39   H14   S    
C49   C50   S    
C33   C37   A    
C43   C44   A    
C37   C38   S    
C38   H13   S    
C31   C32   S    
C13   H19   S    
C39   H15   S    
C12   O7    A    
C47   H28   S    
C50   H35   S    
C1    O1    A    
C46   C47   S    
N4    Zn1   S    
C41   O2    S    
C12   C14   S    
C12   O6    A    
C1    C26   S    
C22   C24   A    
C42   C43   A    
C3    C4    A    
C32   H9    S    
C50   H34   S    
O11   Zn2   S    
C25   C30   A    
C11   C17   A    
C17   N2    S    
C8    C44   A    
C31   H7    S    
C4    C5    A    
C45   C46   S    
C6    C10   A    
C6    C7    A    
C10   N2    A    
C18   H22   S    
C37   N4    A    
C2    C3    A    
C4    C9    A    
C9    N2    A    
C36   H11   S    
C11   C13   A    
C5    C6    A    
C2    C42   A    
C47   H27   S    
C50   H36   S    
C47   H29   S    
C23   O8    A    
C40   C44   A    
C38   H12   S    
C20   C21   A    
C35   N3    A    
C27   C28   A    
N3    Zn2   S    
C14   C15   A    
C49   H32   S    
C16   H21   S    
C23   O9    A    
C46   H25   S    
C13   C14   A    
C27   H5    S    
C21   H3    S    
