data_mof_unit_3736.cif
_audit_creation_date              2013-03-05T16:31:33-0500
_audit_creation_method            fapswitch 2.2
_symmetry_space_group_name_H-M    P1
_symmetry_Int_Tables_number       1
_space_group_crystal_system       triclinic
_cell_length_a                    14.955253
_cell_length_b                    14.328215
_cell_length_c                    14.842735
_cell_angle_alpha                 90.004454
_cell_angle_beta                  92.563426
_cell_angle_gamma                 90.064438
_cell_volume                      3177.34741359

loop_
_atom_site_label
_atom_site_type_symbol
_atom_site_description
_atom_site_fract_x
_atom_site_fract_y
_atom_site_fract_z
_atom_type_partial_charge
O1    O     O_R   0.369060 0.579480 0.500010 -0.619534
O2    O     O_R   0.630940 0.420520 0.499990 -0.635025
O3    O     O_R   0.630940 0.579480 0.499990 -0.627603
O4    O     O_R   0.369060 0.420520 0.500010 -0.645005
C1    C     C_R   0.328021 0.499912 0.501297 0.863719
C2    C     C_R   0.672114 0.499989 0.500877 0.879189
O5    O     O_R   0.499980 0.579490 0.367850 -0.624587
O6    O     O_R   0.500020 0.420510 0.632150 -0.639230
O7    O     O_R   0.500020 0.579490 0.632150 -0.613161
O8    O     O_R   0.499980 0.420510 0.367850 -0.634256
C3    C     C_R   0.501386 0.500023 0.327198 0.955478
C4    C     C_R   0.499661 0.500050 0.672763 0.952590
Zn1   Zn    Zn3+2 0.500000 0.606140 0.500000 0.949521
Zn2   Zn    Zn3+2 0.500000 0.393860 0.500000 0.920604
C5    C     C_R   0.581145 0.491729 0.815565 -0.348888
C6    C     C_R   0.428283 0.534910 0.184351 -0.340173
C7    C     C_R   0.499927 0.501534 0.768384 -0.164166
C8    C     C_R   0.503429 0.501591 0.231514 -0.156837
C9    C     C_R   0.421171 0.522295 0.810461 0.444373
C10   C     C_R   0.582263 0.479845 0.189542 0.431410
C11   C     C_R   0.425826 0.543420 0.903119 -0.051507
C12   C     C_R   0.587889 0.501038 0.097156 -0.052359
C13   C     C_R   0.506752 0.523461 0.953172 -0.069206
C14   C     C_R   0.507611 0.523562 0.047044 -0.066225
C15   C     C_R   0.585989 0.500136 0.909078 0.103657
C16   C     C_R   0.427509 0.543268 0.091039 0.101733
C17   C     C_R   0.352179 0.581799 0.947143 0.160399
C18   C     C_R   0.670150 0.499143 0.053275 0.159226
C19   C     C_R   0.349701 0.573824 0.041621 0.194512
C20   C     C_R   0.668543 0.489631 0.958667 0.195710
H1    H     H_    0.639868 0.477904 0.777611 0.165456
H2    H     H_    0.370519 0.552988 0.222184 0.163378
C21   C     C_R   0.098786 0.575918 0.553908 -0.198616
C22   C     C_R   0.905748 0.423688 0.554136 -0.182210
C23   C     C_R   0.907918 0.577611 0.484979 -0.177780
C24   C     C_R   0.091749 0.419730 0.489500 -0.174055
H3    H     H_    0.066239 0.636197 0.581866 0.133366
H4    H     H_    0.940385 0.364131 0.584057 0.130080
H5    H     H_    0.944268 0.636585 0.459165 0.132943
H6    H     H_    0.053671 0.359645 0.465407 0.133103
C25   C     C_R   0.190476 0.576632 0.546252 -0.166030
C26   C     C_R   0.813461 0.423062 0.545706 -0.204231
C27   C     C_R   0.815561 0.577231 0.477013 -0.188967
C28   C     C_R   0.183403 0.420250 0.482201 -0.214352
H7    H     H_    0.228311 0.637107 0.569685 0.160003
H8    H     H_    0.777625 0.363115 0.569996 0.144659
H9    H     H_    0.781289 0.636346 0.445916 0.149657
H10   H     H_    0.215462 0.359868 0.453886 0.154623
C29   C     C_R   0.232570 0.499337 0.509112 -0.020676
C30   C     C_R   0.768346 0.499829 0.507118 -0.010219
C31   C     C_R   0.049377 0.498017 0.524281 0.112726
C32   C     C_R   0.952938 0.500660 0.523197 0.115665
C33   C     C_R   0.454941 0.104513 0.431604 -0.284544
C34   C     C_R   0.570278 0.895283 0.542410 -0.272092
C35   C     C_R   0.548715 0.104520 0.565768 -0.267597
C36   C     C_R   0.432669 0.895658 0.454840 -0.270750
H11   H     H_    0.418895 0.069065 0.376825 0.150512
H12   H     H_    0.626972 0.930948 0.574483 0.143097
H13   H     H_    0.583247 0.068551 0.621087 0.143843
H14   H     H_    0.376493 0.931622 0.422352 0.142777
C37   C     C_R   0.450826 0.202759 0.435080 0.320417
C38   C     C_R   0.567695 0.796774 0.545137 0.303747
C39   C     C_R   0.548324 0.203189 0.565621 0.304507
C40   C     C_R   0.433178 0.797047 0.454095 0.306750
N1    N     N_R   0.500000 0.252470 0.500000 -0.101375
N2    N     N_R   0.500000 0.747530 0.500000 -0.095570
C41   C     C_R   0.502731 0.053025 0.497937 0.074980
C42   C     C_R   0.502039 0.946963 0.498130 0.079098
O9    O     O_3   0.341196 0.521832 0.759066 -0.660121
C43   C     C_3   0.289015 0.442881 0.780709 0.049740
H15   H     H_    0.218429 0.458848 0.759744 0.179349
H16   H     H_    0.289726 0.428056 0.854438 0.137634
C44   C     C_3   0.318070 0.355932 0.729472 -0.337667
H17   H     H_    0.318210 0.371659 0.656421 0.259269
H18   H     H_    0.386772 0.335376 0.753108 0.216035
C45   C     C_3   0.254924 0.274126 0.743711 -0.963976
H19   H     H_    0.253930 0.256255 0.816482 0.262922
H20   H     H_    0.278208 0.212288 0.706259 0.270588
H21   H     H_    0.186050 0.291826 0.718185 0.265787
O10   O     O_3   0.653543 0.443206 0.241469 -0.656267
C46   C     C_3   0.670895 0.349613 0.216341 0.068275
H22   H     H_    0.743556 0.336819 0.229499 0.169777
H23   H     H_    0.656496 0.334860 0.143379 0.130734
C47   C     C_3   0.618828 0.281395 0.273432 -0.315022
H24   H     H_    0.632254 0.296861 0.346158 0.263118
H25   H     H_    0.546375 0.289948 0.256621 0.224680
C48   C     C_3   0.644742 0.180423 0.255270 -0.987399
H26   H     H_    0.630772 0.162810 0.183123 0.265584
H27   H     H_    0.605063 0.133059 0.297247 0.277077
H28   H     H_    0.716940 0.169338 0.272763 0.266756
C49   C     C_3   0.281752 0.639380 0.895700 -0.836882
H29   H     H_    0.306162 0.666395 0.831236 0.270453
H30   H     H_    0.219898 0.597716 0.882756 0.231763
H31   H     H_    0.265738 0.702935 0.934631 0.228649
C50   C     C_3   0.758230 0.518130 0.104745 -0.840847
H32   H     H_    0.748622 0.553080 0.170241 0.271018
H33   H     H_    0.796357 0.452408 0.115611 0.228229
H34   H     H_    0.799042 0.567974 0.066576 0.230114
C51   C     C_3   0.264593 0.596145 0.089666 -0.940756
H35   H     H_    0.206133 0.611127 0.043597 0.250541
H36   H     H_    0.244768 0.535010 0.130224 0.235907
H37   H     H_    0.275970 0.657471 0.134488 0.244144
C52   C     C_3   0.753736 0.467857 0.910597 -0.941875
H38   H     H_    0.812491 0.454175 0.956674 0.250055
H39   H     H_    0.744139 0.403377 0.869779 0.236358
H40   H     H_    0.770491 0.526973 0.865991 0.244396
C53   C     C_3   0.386601 0.247720 0.367494 -0.893536
H41   H     H_    0.378269 0.322700 0.376752 0.286831
H42   H     H_    0.408243 0.234591 0.298140 0.217259
H43   H     H_    0.319178 0.216331 0.373535 0.210162
C54   C     C_3   0.642880 0.748904 0.597170 -0.837581
H44   H     H_    0.619165 0.687962 0.634521 0.270191
H45   H     H_    0.695501 0.728841 0.550740 0.235681
H46   H     H_    0.674490 0.796260 0.648652 0.198290
C55   C     C_3   0.597240 0.251137 0.643189 -0.857613
H47   H     H_    0.634233 0.312706 0.620830 0.261291
H48   H     H_    0.549095 0.270753 0.694612 0.244692
H49   H     H_    0.647701 0.204290 0.676653 0.196964
C56   C     C_3   0.356993 0.749257 0.403320 -0.843417
H50   H     H_    0.380322 0.689020 0.364628 0.267099
H51   H     H_    0.305690 0.728041 0.450849 0.237506
H52   H     H_    0.323700 0.796929 0.353246 0.197364

loop_
_geom_bond_atom_site_label_1
_geom_bond_atom_site_label_2
_geom_bond_distance
_ccdc_geom_bond_type
C28   C29   1.398599 A    
C48   H26   1.110804 S    
C39   N1    1.381249 A    
C3    C8    1.422082 S    
C35   H13   1.081310 S    
C17   C19   1.409108 A    
C44   H18   1.110835 S    
C44   H17   1.107552 S    
C54   H44   1.101168 S    
C22   C26   1.380261 A    
C47   C48   1.525286 S    
O3    C2    1.295161 A    
C46   H22   1.110877 S    
C50   H34   1.110660 S    
O5    C3    1.289208 A    
C40   C56   1.502120 S    
C18   C50   1.517219 S    
O1    C1    1.294714 A    
C9    C11   1.406848 A    
C45   H20   1.110508 S    
C5    C15   1.391847 A    
C34   C42   1.401272 A    
C55   H47   1.099916 S    
C26   H8    1.082254 S    
O7    Zn1   1.998306 S    
C48   H28   1.110765 S    
C33   C37   1.410142 A    
C38   C54   1.501789 S    
C50   H32   1.108635 S    
C55   H48   1.108861 S    
C35   C39   1.413766 A    
C4    C7    1.419267 S    
O6    Zn2   1.998247 S    
C53   H41   1.091055 S    
C36   C40   1.412989 A    
C17   C49   1.517618 S    
C43   H15   1.111168 S    
C54   H46   1.111152 S    
C23   C27   1.381007 A    
O3    Zn1   1.995578 S    
C39   C55   1.502028 S    
C11   C17   1.417098 A    
C12   C18   1.417811 A    
C53   H42   1.108922 S    
C1    C29   1.437373 S    
O2    C2    1.293655 A    
O2    Zn2   1.994735 S    
C25   C29   1.399742 A    
C46   H23   1.114832 S    
Zn1   N2    2.025866 S    
C56   H51   1.107568 S    
C6    C16   1.389729 A    
C10   O10   1.390613 S    
C31   C32   1.442181 S    
C24   H6    1.083495 S    
C38   N2    1.381764 A    
C47   H24   1.111356 S    
C54   H45   1.107186 S    
O8    Zn2   1.998306 S    
C49   H29   1.108858 S    
C19   C51   1.520843 S    
O4    C1    1.293698 A    
C34   C38   1.412573 A    
C36   C42   1.402901 A    
C21   H3    1.083535 S    
C21   C31   1.397940 A    
C41   C42   1.519704 S    
C40   N2    1.380968 A    
C20   C52   1.520481 S    
C23   H5    1.083508 S    
C49   H30   1.109879 S    
C51   H35   1.106795 S    
O6    C4    1.289351 A    
C55   H49   1.111049 S    
C51   H37   1.110458 S    
C43   C44   1.532914 S    
C52   H39   1.110440 S    
C2    C30   1.438011 S    
C24   C31   1.398954 A    
C26   C30   1.400116 A    
C51   H36   1.110428 S    
C10   C12   1.410666 A    
C11   C13   1.420865 A    
C53   H43   1.110912 S    
C12   C14   1.421198 A    
C9    O9    1.389562 S    
O1    Zn1   1.994736 S    
C52   H38   1.106752 S    
C46   C47   1.528798 S    
C34   H12   1.081447 S    
C56   H52   1.111127 S    
C15   C20   1.416979 A    
C5    C7    1.381954 A    
C33   H11   1.081568 S    
C22   H4    1.083625 S    
C14   C16   1.418416 A    
O10   C46   1.419214 S    
C35   C41   1.402775 A    
C56   H50   1.102259 S    
C50   H33   1.109451 S    
C27   C30   1.398135 A    
C5    H1    1.082809 S    
C6    H2    1.082852 S    
C22   C32   1.397345 A    
C21   C25   1.381034 A    
C48   H27   1.110465 S    
C49   H31   1.110542 S    
C45   H19   1.110816 S    
C18   C20   1.409973 A    
C7    C9    1.390084 A    
Zn2   N1    2.025866 S    
C52   H40   1.110422 S    
C8    C10   1.393451 A    
C13   C15   1.419324 A    
O4    Zn2   1.995580 S    
O9    C43   1.418575 S    
C33   C41   1.400984 A    
O7    C4    1.288168 A    
C24   C28   1.379824 A    
O8    C3    1.289830 A    
C13   C14   1.392807 A    
C37   N1    1.382749 A    
O5    Zn1   1.998247 S    
C45   H21   1.111092 S    
C36   H14   1.081035 S    
C44   C45   1.525053 S    
C16   C19   1.417240 A    
C6    C8    1.382690 A    
C37   C53   1.503065 S    
C23   C32   1.399413 A    
C25   H7    1.083139 S    
C47   H25   1.107922 S    
C43   H16   1.114375 S    
C27   H9    1.083064 S    
C28   H10   1.083469 S    
