data_mof_unit_1692.cif
_audit_creation_date              2012-12-10T18:11:05-0500
_audit_creation_method            fapswitch 2.2
_symmetry_space_group_name_H-M    P1
_symmetry_Int_Tables_number       1
_space_group_crystal_system       triclinic
_cell_length_a                    10.727619
_cell_length_b                    9.456109
_cell_length_c                    10.627163
_cell_angle_alpha                 90.105207
_cell_angle_beta                  90.790499
_cell_angle_gamma                 90.003435
_cell_volume                      1077.93130027

loop_
_atom_site_label
_atom_site_type_symbol
_atom_type_description
_atom_site_fract_x
_atom_site_fract_y
_atom_site_fract_z
_atom_type_partial_charge
C1    C     C_R   0.259817 0.499775 0.499808 0.757029
C2    C     C_3   0.498856 0.499291 0.122779 -0.003113
C3    C     C_3   0.073707 0.574318 0.619279 -0.386785
C4    C     C_3   0.071365 0.344942 0.498408 -0.373938
C5    C     C_3   0.929844 0.575365 0.618765 -0.362070
C6    C     C_3   0.928715 0.345009 0.499120 -0.376340
C7    C     C_3   0.070272 0.576625 0.381605 -0.380481
C8    C     C_3   0.121858 0.498977 0.499741 0.166384
C9    C     C_3   0.878116 0.499040 0.499807 0.155712
C10   C     C_3   0.926331 0.575984 0.381296 -0.384850
C11   C     C_3   0.624451 0.084153 0.541346 -0.052477
C12   C     C_3   0.624252 0.915620 0.542068 -0.049832
C13   C     C_3   0.405297 0.083631 0.589130 -0.194532
C14   C     C_3   0.404842 0.916701 0.588639 -0.206420
C15   C     C_3   0.470989 0.083249 0.376145 -0.223569
C16   C     C_3   0.471543 0.916291 0.376021 -0.218429
C17   C     C_R   0.499411 0.499798 0.259509 0.793913
C18   C     C_R   0.740015 0.499791 0.499994 0.765614
C19   C     C_R   0.499910 0.500314 0.740599 0.815251
C20   C     C_3   0.391010 0.556112 0.041018 -0.228257
C21   C     C_3   0.510343 0.365826 0.041042 -0.169159
C22   C     C_3   0.404148 0.424079 0.957453 0.029573
C23   C     C_3   0.499364 0.501310 0.877493 -0.018924
C24   C     C_3   0.487783 0.634490 0.959694 -0.133550
C25   C     C_3   0.606812 0.444915 0.959938 -0.161328
C26   C     C_3   0.595351 0.577904 0.044045 -0.151745
Cu1   Cu    Cu3+1 0.499860 0.642410 0.500060 0.905912
Cu2   Cu    Cu3+1 0.499860 0.357590 0.500060 0.912458
H1    H     H_    0.891603 0.686894 0.378968 0.159668
H2    H     H_    0.890611 0.522223 0.294772 0.149998
H3    H     H_    0.421731 0.122188 0.686760 0.164714
H4    H     H_    0.420117 0.877655 0.686157 0.149140
H5    H     H_    0.378530 0.122318 0.342552 0.149794
H6    H     H_    0.379553 0.876435 0.341699 0.149648
H7    H     H_    0.540347 0.120818 0.306946 0.144854
H8    H     H_    0.541633 0.879118 0.307261 0.148272
H9    H     H_    0.302616 0.600586 0.077156 0.125369
H10   H     H_    0.518787 0.255738 0.076323 0.132705
H11   H     H_    0.478772 0.744381 0.924107 0.146562
H12   H     H_    0.696138 0.401824 0.925240 0.157996
H13   H     H_    0.674103 0.641198 0.083000 0.128292
H14   H     H_    0.108747 0.685071 0.623335 0.161576
H15   H     H_    0.103990 0.288028 0.413129 0.160271
H16   H     H_    0.895379 0.522499 0.705099 0.165376
H17   H     H_    0.896584 0.287371 0.583875 0.180310
H18   H     H_    0.896732 0.686764 0.620630 0.177010
H19   H     H_    0.892943 0.287107 0.414723 0.158020
N1    N     N_3   0.500250 0.143650 0.502780 -0.140304
N2    N     N_3   0.500250 0.856350 0.502780 -0.138144
O1    O     O_R   0.317570 0.620260 0.500070 -0.600014
O2    O     O_R   0.317570 0.379740 0.500070 -0.596159
O3    O     O_R   0.499850 0.620240 0.316900 -0.594949
O4    O     O_R   0.499850 0.379760 0.316900 -0.598429
O5    O     O_R   0.682190 0.620260 0.500030 -0.596219
O6    O     O_R   0.682190 0.379740 0.500030 -0.596041
O7    O     O_R   0.499910 0.620280 0.683200 -0.582105
O8    O     O_R   0.499910 0.379720 0.683200 -0.573646
C27   C     C_1   0.299537 0.340216 0.907337 0.179395
N3    N     N_1   0.217163 0.274145 0.867540 -0.329641
C28   C     C_1   0.669242 0.145684 0.662007 0.278772
N4    N     N_1   0.705424 0.192145 0.756442 -0.332296
C29   C     C_1   0.667369 0.854952 0.663730 0.274403
N5    N     N_1   0.701734 0.808841 0.758902 -0.325981
H20   H     H_    0.694434 0.117312 0.470895 0.091845
H21   H     H_    0.694812 0.881264 0.472547 0.092298
H22   H     H_    0.310870 0.121823 0.561502 0.147666
H23   H     H_    0.310427 0.879215 0.559904 0.144126
H24   H     H_    0.109124 0.519204 0.705055 0.169786
H25   H     H_    0.106929 0.286253 0.582287 0.179749
H26   H     H_    0.104197 0.687863 0.380338 0.161997
H27   H     H_    0.104305 0.524077 0.294772 0.148267

loop_
_geom_bond_atom_site_label_1
_geom_bond_atom_site_label_2
_ccdc_geom_bond_type
C19   O7    A    
C7    C10   S    
C3    H14   S    
C6    H17   S    
C1    C8    S    
C3    H24   S    
C4    C8    S    
C7    H26   S    
C12   N2    S    
Cu1   O5    S    
C7    C8    S    
Cu2   O8    S    
C19   O8    A    
C24   C26   S    
C25   H12   S    
C7    H27   S    
Cu2   O2    S    
C14   N2    S    
C15   C16   S    
C24   H11   S    
C16   H6    S    
C21   H10   S    
C20   C24   S    
C14   H23   S    
C1    O1    A    
Cu1   O1    S    
C21   C22   S    
C2    C17   S    
C11   N1    S    
C15   N1    S    
C6    C9    S    
C17   O3    A    
C15   H7    S    
C4    H25   S    
Cu2   O6    S    
C13   H22   S    
C6    H19   S    
C2    C20   S    
C11   C12   S    
C16   N2    S    
C4    C6    S    
C3    C8    S    
Cu1   O7    S    
C27   N3    T    
C28   N4    T    
C19   C23   S    
C5    C9    S    
C29   N5    T    
C12   C29   S    
C10   H2    S    
C23   C24   S    
C2    C21   S    
C2    C26   S    
C1    O2    A    
C5    H18   S    
C18   O6    A    
C5    H16   S    
C20   C22   S    
C11   H20   S    
C11   C28   S    
C17   O4    A    
Cu1   O3    S    
C9    C10   S    
C21   C25   S    
Cu2   N1    S    
C13   H3    S    
C14   H4    S    
C3    C5    S    
C22   C27   S    
C13   N1    S    
Cu2   O4    S    
C4    H15   S    
C12   H21   S    
C25   C26   S    
C16   H8    S    
C20   H9    S    
C10   H1    S    
C23   C25   S    
C18   O5    A    
C9    C18   S    
Cu1   Cu2   S    
C22   C23   S    
C13   C14   S    
C15   H5    S    
Cu1   N2    S    
C26   H13   S    
