data_mof_unit_2170.cif
_audit_creation_date              2013-03-05T16:14:30-0500
_audit_creation_method            fapswitch 2.2
_symmetry_space_group_name_H-M    P1
_symmetry_Int_Tables_number       1
_space_group_crystal_system       triclinic
_cell_length_a                    10.681896
_cell_length_b                    10.65241
_cell_length_c                    9.501065
_cell_angle_alpha                 90.137551
_cell_angle_beta                  89.681051
_cell_angle_gamma                 89.143667
_cell_volume                      1080.96574414

loop_
_atom_site_label
_atom_site_type_symbol
_atom_site_description
_atom_site_fract_x
_atom_site_fract_y
_atom_site_fract_z
_atom_type_partial_charge
O1    O     O_R   0.500060 0.316850 0.620870 -0.508432
O2    O     O_R   0.499940 0.683150 0.379130 -0.508425
O3    O     O_R   0.500000 0.316860 0.379090 -0.561732
O4    O     O_R   0.500000 0.683140 0.620910 -0.561747
C1    C     C_R   0.500897 0.259929 0.499807 0.880961
C2    C     C_R   0.499090 0.740071 0.500193 0.880861
O5    O     O_R   0.316880 0.499960 0.620870 -0.529981
O6    O     O_R   0.683120 0.500040 0.379130 -0.529972
O7    O     O_R   0.316830 0.499970 0.379090 -0.561550
O8    O     O_R   0.683170 0.500030 0.620910 -0.561514
C3    C     C_R   0.260184 0.498102 0.500339 0.901874
C4    C     C_R   0.739817 0.501905 0.499660 0.901915
Cu1   Cu    Cu3+1 0.500030 0.499990 0.643150 1.109888
Cu2   Cu    Cu3+1 0.499970 0.500010 0.356850 1.109880
C5    C     C_3   0.039429 0.476800 0.629141 0.382301
C6    C     C_3   0.960573 0.523216 0.370847 0.382297
C7    C     C_3   0.956360 0.386881 0.543776 -0.340276
C8    C     C_3   0.043644 0.613135 0.456211 -0.340346
H1    H     H_    0.923142 0.294031 0.579042 0.250391
H2    H     H_    0.076880 0.705978 0.420942 0.250353
C9    C     C_3   0.875924 0.502551 0.499449 -0.207765
C10   C     C_3   0.124078 0.497464 0.500543 -0.207761
C11   C     C_3   0.959154 0.589950 0.585703 0.243156
C12   C     C_3   0.040850 0.410067 0.414287 0.243158
C13   C     C_3   0.597412 0.037918 0.571181 0.360599
C14   C     C_3   0.402558 0.962079 0.428820 0.360622
C15   C     C_3   0.606397 0.954704 0.438997 -0.225946
C16   C     C_3   0.393574 0.045295 0.561004 -0.225921
H3    H     H_    0.694121 0.916328 0.391367 0.214606
H4    H     H_    0.305851 0.083672 0.608635 0.214631
C17   C     C_3   0.498775 0.876660 0.500402 -0.146389
C18   C     C_3   0.501197 0.123339 0.499598 -0.146388
C19   C     C_3   0.492231 0.958812 0.634404 -0.170848
C20   C     C_3   0.507738 0.041187 0.365596 -0.170811
H5    H     H_    0.489022 0.925231 0.744827 0.219093
H6    H     H_    0.510951 0.074770 0.255173 0.219053
C21   C     C_3   0.511450 0.611143 0.049083 0.425507
C22   C     C_3   0.488550 0.388856 0.950917 0.425490
C23   C     C_3   0.409340 0.566432 0.952312 0.321696
C24   C     C_3   0.590660 0.433569 0.047688 0.321662
N1    N     N_3   0.500090 0.499970 0.858290 -0.251191
N2    N     N_3   0.499910 0.500030 0.141710 -0.251190
C25   C     C_3   0.604430 0.545659 0.947843 -0.248621
C26   C     C_3   0.395569 0.454341 0.052157 -0.248627
H7    H     H_    0.691400 0.583700 0.901246 0.227685
H8    H     H_    0.308601 0.416295 0.098758 0.227649
O9    O     O_3   0.082005 0.452452 0.765265 -0.614714
H9    H     H_    0.005422 0.444232 0.823718 0.372217
O10   O     O_3   0.917993 0.547553 0.234723 -0.614729
H10   H     H_    0.994574 0.555774 0.176266 0.372208
N3    N     N_R   0.918339 0.689465 0.681751 0.158745
O11   O     O_R   0.001198 0.753358 0.750057 -0.209249
O12   O     O_R   0.800790 0.721682 0.691441 -0.350756
N4    N     N_R   0.081679 0.310558 0.318238 0.158716
O13   O     O_R   0.998829 0.246702 0.249868 -0.209229
O14   O     O_R   0.199227 0.278256 0.308678 -0.350761
N5    N     N_R   0.705785 0.077389 0.651815 0.146958
O15   O     O_R   0.781785 0.993369 0.703908 -0.241807
O16   O     O_R   0.723734 0.195367 0.678897 -0.338369
N6    N     N_R   0.294178 0.922599 0.348203 0.146901
O17   O     O_R   0.218048 0.006598 0.296339 -0.241820
O18   O     O_R   0.276339 0.804647 0.320917 -0.338240
N7    N     N_R   0.306772 0.644259 0.899516 0.186511
O19   O     O_R   0.193794 0.626541 0.946187 -0.265046
O20   O     O_R   0.330153 0.744549 0.827034 -0.332783
N8    N     N_R   0.693239 0.355751 0.100479 0.186510
O21   O     O_R   0.806198 0.373418 0.053713 -0.265066
O22   O     O_R   0.669872 0.255505 0.173048 -0.332738
O23   O     O_3   0.521725 0.732238 0.104268 -0.635866
H11   H     H_    0.534950 0.787535 0.021925 0.339214
O24   O     O_3   0.478277 0.267761 0.895733 -0.635895
H12   H     H_    0.465066 0.212462 0.978078 0.339193

loop_
_geom_bond_atom_site_label_1
_geom_bond_atom_site_label_2
_geom_bond_distance
_ccdc_geom_bond_type
N8    O22   1.299077 A    
N7    O20   1.299052 A    
C6    C9    1.534249 S    
C21   O23   1.397334 S    
C15   H3    1.110368 S    
C5    O9    1.396927 S    
Cu1   N1    2.044062 S    
C23   N1    1.485173 S    
O5    C3    1.298680 A    
C13   N5    1.458325 S    
O1    C1    1.298896 A    
N5    O16   1.299460 A    
C12   N4    1.457296 S    
C21   N2    1.482837 S    
N6    O18   1.299378 A    
O4    Cu1   1.962898 S    
C7    H1    1.107786 S    
C22   O24   1.397333 S    
C14   C20   1.535086 S    
C5    C10   1.534224 S    
C17   C19   1.543858 S    
C8    H2    1.107802 S    
Cu2   N2    2.044064 S    
C1    C18   1.454962 S    
C13   C18   1.526312 S    
C5    C11   1.527700 S    
N8    O21   1.299993 A    
C14   C17   1.526314 S    
C6    C12   1.527699 S    
C24   N8    1.456128 S    
Cu1   Cu2   2.720159 S    
N1    C25   1.492595 S    
O2    C2    1.298894 A    
N2    C26   1.492598 S    
C26   H8    1.109426 S    
C24   C25   1.535056 S    
C15   C20   1.558180 S    
N4    O14   1.299591 A    
C7    C12   1.544314 S    
C15   C17   1.541603 S    
C8    C11   1.544328 S    
C16   C18   1.541615 S    
C6    O10   1.396934 S    
C22   N1    1.482843 S    
O4    C2    1.298706 A    
C4    C9    1.453988 S    
C7    C9    1.552010 S    
N3    O11   1.300031 A    
N6    O17   1.299847 A    
N3    O12   1.299453 A    
C18   C20   1.543862 S    
C21   C25   1.537437 S    
O7    Cu2   1.966497 S    
C22   C26   1.537447 S    
C25   H7    1.109415 S    
C11   N3    1.457292 S    
O9    H9    0.991278 S    
O6    C4    1.298673 A    
O7    C3    1.298586 A    
O3    Cu2   1.962898 S    
O8    C4    1.298600 A    
C16   C19   1.558161 S    
C9    C11   1.535570 S    
C10   C12   1.535558 S    
O1    Cu1   1.961823 S    
C5    C7    1.546722 S    
N4    O13   1.300053 A    
O6    Cu2   1.968985 S    
C8    C10   1.552011 S    
O3    C1    1.298706 A    
O8    Cu1   1.966498 S    
C23   C26   1.535063 S    
C13   C15   1.537200 S    
C23   N7    1.456120 S    
C3    C10   1.453973 S    
C14   C16   1.537212 S    
C16   H4    1.110368 S    
O24   H12   0.991200 S    
C21   C23   1.512114 S    
C22   C24   1.512113 S    
N5    O15   1.299979 A    
C24   N2    1.485173 S    
C19   H5    1.109769 S    
C2    C17   1.454951 S    
C20   H6    1.109773 S    
O23   H11   0.991195 S    
O2    Cu2   1.961823 S    
N7    O19   1.299964 A    
O5    Cu1   1.968985 S    
C6    C8    1.546730 S    
O10   H10   0.991278 S    
C14   N6    1.458334 S    
C13   C19   1.535075 S    
