data_mof_unit_803.cif
_audit_creation_date              2013-03-05T15:41:12-0500
_audit_creation_method            fapswitch 2.2
_symmetry_space_group_name_H-M    P1
_symmetry_Int_Tables_number       1
_space_group_crystal_system       triclinic
_cell_length_a                    6.941771
_cell_length_b                    14.716643
_cell_length_c                    16.472468
_cell_angle_alpha                 90.035135
_cell_angle_beta                  90.042296
_cell_angle_gamma                 90.396837
_cell_volume                      1682.77903178

loop_
_atom_site_label
_atom_site_type_symbol
_atom_site_description
_atom_site_fract_x
_atom_site_fract_y
_atom_site_fract_z
_atom_type_partial_charge
O1    O     O_R   0.505720 0.582850 0.414440 -0.518006
O2    O     O_R   0.175970 0.593740 0.584970 -0.539085
O3    O     O_R   0.005630 0.417150 0.585560 -0.569297
C1    C     C_R   0.346719 0.616160 0.612366 0.856730
O4    O     O_R   0.176010 0.593740 0.415050 -0.528297
O5    O     O_R   0.005680 0.417150 0.414430 -0.573179
C2    C     C_R   0.346508 0.617385 0.388375 0.859476
O6    O     O_R   0.505680 0.582850 0.585570 -0.525365
O7    O     O_3   0.339190 0.442060 0.500000 -0.303875
V1    V     V_3+5 0.064350 0.510750 0.500000 1.278907
O8    O     O_R   0.675960 0.406260 0.415030 -0.564109
C3    C     C_R   0.844323 0.384344 0.387007 0.854946
O9    O     O_R   0.675920 0.406260 0.584950 -0.565029
C4    C     C_R   0.845246 0.384059 0.612669 0.871781
V2    V     V_3+5 0.564340 0.489250 0.500000 1.256760
O10   O     O_3   0.839370 0.557940 0.500000 -0.219411
C5    C     C_2   0.726008 0.192864 0.768752 0.339276
C6    C     C_2   0.881137 0.182146 0.818788 -0.235931
H1    H     H_    0.003635 0.227852 0.813964 0.078997
C7    C     C_2   0.711501 0.269182 0.708723 -0.111101
C8    C     C_2   0.863176 0.314206 0.677137 -0.234257
H2    H     H_    0.568916 0.284551 0.685519 0.145340
H3    H     H_    0.008171 0.297092 0.695953 0.105611
C9    C     C_2   0.014273 0.288380 0.285277 -0.065799
C10   C     C_2   0.849025 0.316307 0.320482 -0.172647
H4    H     H_    0.150352 0.316058 0.306940 0.105322
H5    H     H_    0.711177 0.289350 0.300831 0.081479
C11   C     C_2   0.027373 0.220566 0.217807 -0.043756
C12   C     C_2   0.874772 0.182831 0.179639 -0.162648
H6    H     H_    0.171469 0.201738 0.198783 0.116051
C13   C     C_2   0.289403 0.826490 0.755842 -0.012498
C14   C     C_2   0.374797 0.811299 0.827871 -0.159957
H7    H     H_    0.233263 0.894198 0.744893 0.147253
C15   C     C_2   0.259217 0.758049 0.689262 0.234735
C16   C     C_2   0.372760 0.683115 0.679333 0.117239
C17   C     C_2   0.290260 0.831824 0.247809 0.327678
C18   C     C_2   0.372890 0.814233 0.174950 -0.199144
H8    H     H_    0.415239 0.746478 0.157329 0.079929
C19   C     C_2   0.257825 0.760234 0.312552 0.178499
C20   C     C_2   0.371147 0.684812 0.321286 0.080307
O11   O     O_R   0.230590 0.917060 0.914490 -0.567406
O12   O     O_R   0.560420 0.906240 0.084970 -0.541970
O13   O     O_R   0.730590 0.082870 0.085560 -0.560342
C21   C     C_R   0.390253 0.884083 0.111790 0.884052
O14   O     O_R   0.560310 0.906240 0.915050 -0.531468
O15   O     O_R   0.730490 0.082870 0.914420 -0.533446
C22   C     C_R   0.390314 0.883838 0.888424 0.874305
O16   O     O_R   0.230690 0.917070 0.085620 -0.548844
O17   O     O_3   0.397030 0.057890 0.000040 -0.277712
V3    V     V_3+5 0.671930 0.989260 0.999990 1.254932
O18   O     O_R   0.060200 0.093830 0.914980 -0.546089
C23   C     C_R   0.891277 0.113722 0.885317 0.879841
O19   O     O_R   0.060300 0.093830 0.084900 -0.559357
C24   C     C_R   0.891389 0.115450 0.113078 0.872186
V4    V     V_3+5 0.171920 0.010860 0.999920 1.235122
O20   O     O_3   0.896950 0.942110 0.999960 -0.274646
N1    N     N_R   0.567401 0.129386 0.771061 0.102408
O21   O     O_R   0.391346 0.158620 0.765973 -0.375374
O22   O     O_R   0.599377 0.042857 0.762561 -0.329788
H9    H     H_    0.426624 0.745109 0.845580 0.108179
N2    N     N_R   0.114266 0.780390 0.629955 0.106669
O23   O     O_R   0.969660 0.831207 0.650548 -0.251335
O24   O     O_R   0.148583 0.768711 0.553190 -0.292652
N3    N     N_R   0.544660 0.671638 0.727010 0.059593
O25   O     O_R   0.585319 0.592106 0.756692 -0.369928
O26   O     O_R   0.676952 0.734643 0.727121 -0.293935
N4    N     N_R   0.220254 0.922051 0.262780 0.116100
O27   O     O_R   0.035972 0.937568 0.261543 -0.283263
O28   O     O_R   0.340465 0.990106 0.267231 -0.335912
N5    N     N_R   0.113752 0.779728 0.372717 0.120800
O29   O     O_R   0.959465 0.729600 0.377921 -0.242285
O30   O     O_R   0.120570 0.856241 0.412266 -0.204940
N6    N     N_R   0.544607 0.674804 0.274254 0.065797
O31   O     O_R   0.670032 0.740800 0.270824 -0.290424
O32   O     O_R   0.591633 0.595271 0.246282 -0.361613
H10   H     H_    0.729672 0.200816 0.197192 0.079819

loop_
_geom_bond_atom_site_label_1
_geom_bond_atom_site_label_2
_geom_bond_distance
_ccdc_geom_bond_type
O16   V4    2.018368 S    
V4    O20   2.154152 S    
N6    O31   1.301151 A    
C1    O6    1.288694 A    
C17   N4    1.438354 S    
C6    C23   1.490688 S    
C12   H10   1.082703 S    
O19   C24   1.302817 A    
C4    C8    1.484224 S    
C11   C12   1.347694 D    
C9    H4    1.086076 S    
C6    H1    1.083558 S    
O5    C3    1.297406 A    
N1    O22   1.301618 A    
C12   C24   1.482966 S    
V2    O10   2.154109 S    
O15   C23   1.294528 A    
C5    C7    1.500721 S    
C20   N6    1.440663 S    
C15   C16   1.369716 D    
N2    O24   1.298477 A    
O11   V4    2.014452 S    
O8    V2    2.015866 S    
C2    C20   1.494814 S    
C13   H7    1.087550 S    
C16   N3    1.439041 S    
O1    V2    2.014623 S    
O7    V1    2.165316 S    
O19   V4    2.015800 S    
C1    C16   1.488744 S    
O9    C4    1.304442 A    
N6    O32   1.301412 A    
O12   C21   1.300953 A    
O14   C22   1.298959 A    
C8    H3    1.084311 S    
O18   C23   1.305217 A    
C9    C10   1.352139 D    
C19   C20   1.372461 D    
O4    C2    1.307757 A    
O17   V4    1.704688 S    
C15   N2    1.441698 S    
V3    O20   1.713610 S    
N4    O27   1.301166 A    
N4    O28   1.301175 A    
N3    O26   1.300495 A    
O2    C1    1.308080 A    
C18   H8    1.081099 S    
O13   C24   1.293411 A    
C13   C14   1.345465 D    
C5    C6    1.365670 D    
O11   C22   1.288691 A    
C13   C15   1.502200 S    
N5    O29   1.299211 A    
O3    C4    1.292132 A    
O12   V3    2.010485 S    
C7    H2    1.086090 S    
O6    V2    2.014032 S    
O9    V2    2.015772 S    
C14   C22   1.463934 S    
C14   H9    1.080941 S    
O2    V1    2.008553 S    
C17   C18   1.356147 D    
O1    C2    1.292860 A    
C17   C19   1.515428 S    
C9    C11   1.496513 S    
O5    V1    2.009763 S    
O8    C3    1.299570 A    
O13   V3    2.009849 S    
C10   H5    1.082570 S    
O15   V3    2.011317 S    
C3    C10   1.484468 S    
N3    O25   1.301440 A    
C18   C21   1.467470 S    
C11   H6    1.086152 S    
O7    V2    1.705886 S    
O4    V1    2.010272 S    
O3    V1    2.011320 S    
V1    O10   1.713598 S    
N1    O21   1.301114 A    
O14   V3    2.008478 S    
C19   N5    1.438701 S    
O18   V4    2.015858 S    
N2    O23   1.300996 A    
C7    C8    1.345323 D    
O17   V3    2.165267 S    
N5    O30   1.301101 A    
C21   O16   1.286619 A    
C5    N1    1.439525 S    
