data_mof_unit_3806.cif
_audit_creation_date              2012-12-10T17:32:20-0500
_audit_creation_method            fapswitch 2.2
_symmetry_space_group_name_H-M    P1
_symmetry_Int_Tables_number       1
_space_group_crystal_system       triclinic
_cell_length_a                    15.787277
_cell_length_b                    15.436868
_cell_length_c                    15.246908
_cell_angle_alpha                 90.986681
_cell_angle_beta                  72.909694
_cell_angle_gamma                 111.712376
_cell_volume                      3282.14151505

loop_
_atom_site_label
_atom_site_type_symbol
_atom_type_description
_atom_site_fract_x
_atom_site_fract_y
_atom_site_fract_z
_atom_type_partial_charge
C1    C     C_R   0.461793 0.258237 0.464050 0.938020
C2    C     C_R   0.539841 0.516919 0.105202 0.447281
C3    C     C_R   0.625718 0.677832 0.127146 0.298646
C4    C     C_R   0.533424 0.741013 0.537629 0.823750
C5    C     C_R   0.416178 0.438698 0.846544 -0.167484
C6    C     C_R   0.317317 0.005401 0.465427 -0.257881
C7    C     C_R   0.440224 0.159185 0.453657 -0.155617
C8    C     C_R   0.627013 0.893356 0.581213 -0.169509
C9    C     C_R   0.646497 0.987629 0.591403 -0.142474
C10   C     C_R   0.591791 0.030401 0.567338 -0.100874
C11   C     C_R   0.516416 0.979281 0.532059 0.102258
C12   C     C_R   0.325232 0.337146 0.989897 -0.289747
C13   C     C_R   0.486077 0.880343 0.538440 0.072342
C14   C     C_R   0.465714 0.022221 0.497024 -0.002282
C15   C     C_R   0.374005 0.965126 0.490281 0.071013
C16   C     C_R   0.754148 0.548826 0.466164 0.837483
C17   C     C_R   0.338902 0.868147 0.509346 -0.212323
C18   C     C_R   0.394489 0.826113 0.531831 -0.193971
C19   C     C_R   0.502417 0.119195 0.467313 0.223830
C20   C     C_R   0.348443 0.102089 0.450538 0.341258
C21   C     C_R   0.547239 0.838724 0.554308 -0.055161
C22   C     C_R   0.012446 0.636736 0.343409 0.589929
C23   C     C_R   0.376864 0.402896 0.037607 0.447153
C24   C     C_R   0.854448 0.571178 0.450435 -0.096931
C25   C     C_R   0.072701 0.370593 0.623524 0.301726
C26   C     C_R   0.988559 0.384807 0.666476 0.330233
C27   C     C_R   0.965682 0.449700 0.625359 0.298113
C28   C     C_R   0.243632 0.447258 0.530577 0.972369
C29   C     C_R   0.016774 0.486590 0.531587 -0.111602
C30   C     C_R   0.109382 0.481514 0.490862 -0.173986
C31   C     C_R   0.980769 0.531959 0.478601 0.038720
C32   C     C_R   0.038949 0.577462 0.389973 -0.164738
C33   C     C_R   0.117127 0.555804 0.345825 0.289013
C34   C     C_R   0.454596 0.485394 0.988730 -0.019036
C35   C     C_R   0.161836 0.522916 0.396846 0.453151
C36   C     C_R   0.884323 0.522950 0.503997 -0.128431
C37   C     C_R   0.919100 0.631724 0.373451 -0.280716
C38   C     C_R   0.141014 0.430885 0.545120 -0.222558
C39   C     C_R   0.553409 0.553740 0.258661 0.961109
C40   C     C_R   0.446454 0.452096 0.743907 0.904243
C41   C     C_R   0.633864 0.705885 0.036596 0.361626
C42   C     C_R   0.579198 0.582545 0.160551 -0.317891
C43   C     C_R   0.345673 0.352679 0.894786 0.411278
C44   C     C_3   0.617832 0.796346 0.217507 0.111068
C45   C     C_R   0.460471 0.509826 0.897785 -0.170862
C46   C     C_3   0.673062 0.871620 0.268493 -0.325158
C47   C     C_3   0.622917 0.939279 0.301428 -0.891410
C48   C     C_3   0.127282 0.784183 0.295515 0.076905
C49   C     C_3   0.085583 0.856593 0.282827 -0.385248
C50   C     C_3   0.138564 0.950880 0.312769 -0.840027
C51   C     C_3   0.689001 0.758529 0.770863 0.141811
C52   C     C_3   0.776775 0.741976 0.778816 -0.380975
C53   C     C_3   0.842747 0.738506 0.684009 -0.878442
C54   C     C_3   0.061980 0.220298 0.625496 0.119350
C55   C     C_3   0.093008 0.149445 0.662601 -0.294202
C56   C     C_R   0.521495 0.547728 0.028795 -0.136328
C57   C     C_3   0.053383 0.053694 0.628234 -0.906934
C58   C     C_3   0.315563 0.627094 0.320727 0.192569
C59   C     C_3   0.367894 0.640771 0.216252 -0.281225
C60   C     C_3   0.383537 0.735297 0.171225 -0.918106
C61   C     C_3   0.599600 0.401232 0.091534 0.140618
C62   C     C_3   0.611173 0.376894 0.991788 -0.458536
C63   C     C_3   0.693637 0.343527 0.955777 -0.737014
C64   C     C_3   0.206259 0.294978 0.856649 0.138130
C65   C     C_3   0.121120 0.210144 0.914658 -0.420940
C66   C     C_3   0.026248 0.221105 0.926704 -0.798397
C67   C     C_R   0.577448 0.641834 0.987714 -0.244473
C68   C     C_R   0.571979 0.668720 0.901672 0.490527
C69   C     C_R   0.505378 0.605480 0.863706 0.299546
Cl1   Cl    Cl    0.626980 0.189373 0.431341 -0.620334
Cl2   Cl    Cl    0.147902 0.551378 0.224922 -0.512507
Cl3   Cl    Cl    0.886293 0.495723 0.699411 -0.606350
Cl4   Cl    Cl    0.915286 0.324815 0.776207 -0.566977
Cl5   Cl    Cl    0.712404 0.822337 0.991424 -0.561291
Cl6   Cl    Cl    0.324293 0.388843 0.158783 -0.508695
Cl7   Cl    Cl    0.457143 0.653844 0.795081 -0.590219
Cl8   Cl    Cl    0.271807 0.150236 0.425556 -0.642825
H1    H     H_    0.268398 0.824313 0.505827 0.142218
H2    H     H_    0.547909 0.752551 0.267753 0.139539
H3    H     H_    0.603996 0.831361 0.163092 0.188195
H4    H     H_    0.678810 0.837573 0.328989 0.207033
H5    H     H_    0.746616 0.911786 0.221850 0.257955
H6    H     H_    0.660444 0.988898 0.344031 0.293345
H7    H     H_    0.547285 0.900142 0.343502 0.258229
H8    H     H_    0.624076 0.980021 0.241451 0.280398
H9    H     H_    0.203008 0.809720 0.250715 0.174519
H10   H     H_    0.129316 0.778975 0.367910 0.097827
H11   H     H_    0.090960 0.866154 0.209024 0.252328
H12   H     H_    0.247096 0.961817 0.461344 0.165544
H13   H     H_    0.008755 0.831324 0.324490 0.215685
H14   H     H_    0.127206 0.943949 0.388105 0.261046
H15   H     H_    0.110248 0.003020 0.297748 0.283167
H16   H     H_    0.216555 0.976762 0.275034 0.278802
H17   H     H_    0.653393 0.706929 0.728292 0.174670
H18   H     H_    0.714744 0.828522 0.732444 0.164479
H19   H     H_    0.817887 0.799706 0.812541 0.277907
H20   H     H_    0.753449 0.674661 0.821295 0.234812
H21   H     H_    0.804534 0.679221 0.649830 0.292449
H22   H     H_    0.906222 0.728153 0.691809 0.294598
H23   H     H_    0.674268 0.863048 0.594884 0.147963
H24   H     H_    0.867779 0.805169 0.639889 0.245381
H25   H     H_    0.094163 0.231236 0.548863 0.166029
H26   H     H_    0.982299 0.190896 0.643537 0.162657
H27   H     H_    0.172623 0.175762 0.640335 0.258137
H28   H     H_    0.066420 0.141093 0.739078 0.223485
H29   H     H_    0.973808 0.023572 0.655240 0.257759
H30   H     H_    0.080888 0.005273 0.652810 0.271453
H31   H     H_    0.075885 0.059717 0.551705 0.295328
H32   H     H_    0.369870 0.650495 0.357436 0.173969
H33   H     H_    0.278565 0.677298 0.338630 0.065869
H34   H     H_    0.606535 0.102474 0.580878 0.191233
H35   H     H_    0.438307 0.637652 0.204291 0.185192
H36   H     H_    0.330246 0.583742 0.179990 0.309684
H37   H     H_    0.313805 0.738156 0.173392 0.305164
H38   H     H_    0.428364 0.744862 0.097969 0.289320
H39   H     H_    0.420735 0.793249 0.207393 0.235557
H40   H     H_    0.589674 0.338907 0.134767 0.192074
H41   H     H_    0.666523 0.458200 0.095995 0.137026
H42   H     H_    0.543638 0.320872 0.988423 0.248338
H43   H     H_    0.626028 0.439653 0.946339 0.231020
H44   H     H_    0.762169 0.399202 0.957133 0.287520
H45   H     H_    0.705332 0.028194 0.616529 0.160229
H46   H     H_    0.700299 0.326957 0.883492 0.298845
H47   H     H_    0.680081 0.279359 0.998449 0.257743
H48   H     H_    0.200797 0.297862 0.785838 0.207104
H49   H     H_    0.201331 0.360902 0.885039 0.146090
H50   H     H_    0.120334 0.145720 0.880639 0.236460
H51   H     H_    0.128362 0.201829 0.983923 0.239632
H52   H     H_    0.023745 0.282273 0.965282 0.282102
H53   H     H_    0.965877 0.157115 0.966147 0.272441
H54   H     H_    0.017296 0.231302 0.858634 0.304076
H55   H     H_    0.362145 0.751006 0.548522 0.179352
H56   H     H_    0.895695 0.670645 0.333615 0.153058
H57   H     H_    0.829647 0.471534 0.558757 0.191220
H58   H     H_    0.267109 0.273929 0.027496 0.193287
O1    O     O_3   0.500000 0.500000 0.500000 -0.505200
O2    O     O_R   0.588830 0.499590 0.285390 -0.627129
O3    O     O_R   0.395900 0.395880 0.699370 -0.619685
O4    O     O_R   0.493280 0.582590 0.315890 -0.679823
O5    O     O_R   0.521980 0.521940 0.699340 -0.628453
O6    O     O_3   0.671664 0.741310 0.179947 -0.605606
O7    O     O_3   0.076734 0.697653 0.266780 -0.585924
O8    O     O_3   0.625196 0.759222 0.858692 -0.556554
O9    O     O_3   0.093077 0.305153 0.665372 -0.611244
O10   O     O_3   0.254949 0.530482 0.351507 -0.567993
O11   O     O_3   0.516929 0.422644 0.127536 -0.585936
O12   O     O_R   0.708210 0.582550 0.530770 -0.666782
O13   O     O_3   0.293378 0.284348 0.850251 -0.617973
O14   O     O_R   0.270260 0.395900 0.573760 -0.610057
O15   O     O_R   0.537060 0.322180 0.411040 -0.584463
O16   O     O_R   0.484470 0.699370 0.484430 -0.689064
O17   O     O_R   0.404710 0.279110 0.530840 -0.639684
O18   O     O_R   0.573760 0.699350 0.573690 -0.624900
O19   O     O_R   0.714470 0.499570 0.411000 -0.610478
O20   O     O_R   0.307050 0.521980 0.484470 -0.638257
Zn1   Zn    Zn3+2 0.574690 0.574670 0.574650 0.977616
Zn2   Zn    Zn3+2 0.583640 0.456100 0.403530 1.052039
Zn3   Zn    Zn3+2 0.447120 0.574690 0.447120 0.967507
Zn4   Zn    Zn3+2 0.394550 0.394550 0.574700 1.037120

loop_
_geom_bond_atom_site_label_1
_geom_bond_atom_site_label_2
_ccdc_geom_bond_type
C54   O9    S    
C39   O2    A    
C3    C42   A    
C34   C56   A    
O15   Zn2   S    
C68   O8    S    
C27   C29   A    
C58   H32   S    
C60   H37   S    
C3    O6    S    
C49   H13   S    
C63   H47   S    
C58   O10   S    
C41   C67   A    
C53   H22   S    
C12   C23   A    
C26   C27   A    
C29   C30   A    
C22   C32   A    
C13   C18   A    
C69   Cl7   S    
C16   O12   A    
C65   H50   S    
C20   Cl8   S    
C12   C43   A    
C31   C36   A    
O1    Zn1   S    
C11   C14   A    
C52   H20   S    
C26   Cl4   S    
C30   C38   A    
C1    O17   A    
C17   C18   A    
C35   O10   S    
C43   O13   S    
C59   H35   S    
C6    C15   A    
C46   H5    S    
O1    Zn4   S    
C18   H55   S    
O3    Zn4   S    
O4    Zn3   S    
C53   H24   S    
C68   C69   A    
C12   H58   S    
C40   O3    A    
C28   O20   A    
C52   H19   S    
C47   H6    S    
C9    C10   A    
C62   H43   S    
C64   H48   S    
C66   H52   S    
O1    Zn3   S    
C57   H29   S    
C5    C43   A    
O17   Zn4   S    
C59   C60   S    
C16   C24   S    
C58   H33   S    
C41   Cl5   S    
O20   Zn3   S    
C49   H11   S    
C9    H45   S    
C63   H44   S    
C44   C46   S    
C8    C21   A    
C39   C42   S    
C39   O4    A    
C1    O15   A    
C61   H40   S    
C67   C68   A    
O16   Zn3   S    
C54   H26   S    
C44   H3    S    
O19   Zn2   S    
C8    C9    A    
C25   C26   A    
C22   C37   A    
C45   C69   A    
C55   H27   S    
C51   C52   S    
C61   O11   S    
C65   H51   S    
C62   C63   S    
C25   C38   A    
C46   H4    S    
C28   O14   A    
C31   C32   A    
C28   C38   S    
C59   H36   S    
C23   C34   A    
C22   O7    S    
C24   C37   A    
C48   H10   S    
C13   C21   A    
C10   H34   S    
C34   C45   A    
C24   C36   A    
C47   H7    S    
O18   Zn1   S    
O12   Zn1   S    
O14   Zn4   S    
C62   H42   S    
O5    Zn1   S    
O1    Zn2   S    
C30   C35   A    
C50   H15   S    
C48   C49   S    
C57   H30   S    
C55   H28   S    
C7    C20   A    
C64   H49   S    
C55   C57   S    
C16   O19   A    
C48   H9    S    
C60   H39   S    
C25   O9    S    
C6    H12   S    
C47   H8    S    
C52   C53   S    
C66   H54   S    
C44   O6    S    
C15   C17   A    
C4    O16   A    
C54   C55   S    
C3    C41   A    
C61   H41   S    
C1    C7    S    
C14   C19   A    
C54   H25   S    
C44   H2    S    
C23   Cl6   S    
C60   H38   S    
C36   H57   S    
C63   H46   S    
C50   H16   S    
C51   O8    S    
C53   H21   S    
C2    O11   S    
C56   C67   A    
C6    C20   A    
C7    C19   A    
O2    Zn2   S    
C64   C65   S    
C58   C59   S    
C29   C31   A    
C2    C56   A    
C32   C33   A    
C4    C21   S    
C11   C13   A    
C5    C45   A    
C2    C42   A    
C40   O5    A    
C17   H1    S    
C33   C35   A    
C4    O18   A    
C37   H56   S    
C65   C66   S    
C8    H23   S    
C61   C62   S    
C46   C47   S    
C10   C11   A    
C33   Cl2   S    
C51   H17   S    
C50   H14   S    
C48   O7    S    
C57   H31   S    
C49   C50   S    
C5    C40   S    
C14   C15   A    
C19   Cl1   S    
C64   O13   S    
C27   Cl3   S    
C51   H18   S    
C66   H53   S    
