data_mof_unit_685.cif
_audit_creation_date              2012-12-11T14:25:01-0500
_audit_creation_method            fapswitch 2.2
_symmetry_space_group_name_H-M    P1
_symmetry_Int_Tables_number       1
_space_group_crystal_system       triclinic
_cell_length_a                    18.874771
_cell_length_b                    11.157491
_cell_length_c                    18.772687
_cell_angle_alpha                 89.491406
_cell_angle_beta                  90.958823
_cell_angle_gamma                 90.238441
_cell_volume                      3952.69452878

loop_
_atom_site_label
_atom_site_type_symbol
_atom_type_description
_atom_site_fract_x
_atom_site_fract_y
_atom_site_fract_z
_atom_type_partial_charge
C1    C     C_R   0.730465 0.376207 0.146125 0.567024
C2    C     C_R   0.268255 0.377397 0.852819 0.574615
C3    C     C_R   0.230466 0.876226 0.146136 0.565224
C4    C     C_R   0.768252 0.877413 0.852812 0.559149
C5    C     C_3   0.504295 0.048894 0.022359 -0.081591
C6    C     C_3   0.553548 0.104385 0.966232 -0.122296
C7    C     C_3   0.004302 0.548887 0.022358 -0.082141
C8    C     C_3   0.053549 0.604398 0.966232 -0.121946
C9    C     C_R   0.746058 0.918681 0.923484 0.000549
C10   C     C_R   0.247305 0.911490 0.072592 0.007830
C11   C     C_R   0.246069 0.418633 0.923505 -0.001313
C12   C     C_R   0.747301 0.411410 0.072564 0.007784
C13   C     C_R   0.692686 0.859061 0.963430 0.024108
C14   C     C_R   0.307187 0.867728 0.036360 0.021753
C15   C     C_R   0.192713 0.358983 0.963463 0.022149
C16   C     C_R   0.807160 0.367576 0.036307 0.021809
C17   C     C_R   0.700214 0.855791 0.039206 0.006636
C18   C     C_R   0.302443 0.858058 0.960771 -0.002814
C19   C     C_R   0.200254 0.355722 0.039237 0.006998
C20   C     C_R   0.802394 0.357931 0.960717 -0.001950
C21   C     C_R   0.796735 0.999155 0.032050 -0.157417
C22   C     C_R   0.189783 0.960158 0.959610 -0.155844
C23   C     C_R   0.296746 0.499138 0.032062 -0.157583
C24   C     C_R   0.689767 0.460126 0.959593 -0.155714
C25   C     C_R   0.795027 0.991968 0.959032 -0.161141
C26   C     C_R   0.189787 0.956977 0.032541 -0.164760
C27   C     C_R   0.295030 0.491948 0.959044 -0.161196
C28   C     C_R   0.689790 0.456952 0.032526 -0.164751
C29   C     C_R   0.633223 0.799584 0.932052 0.109533
C30   C     C_R   0.370623 0.829125 0.071318 0.092733
C31   C     C_R   0.133239 0.299502 0.932107 0.108575
C32   C     C_R   0.870609 0.328941 0.071228 0.092713
C33   C     C_R   0.093887 0.219574 0.972967 -0.112132
C34   C     C_R   0.918507 0.259010 0.034332 -0.127207
C35   C     C_R   0.593876 0.719623 0.972890 -0.111591
C36   C     C_R   0.418518 0.759130 0.034464 -0.127210
C37   C     C_R   0.606350 0.707458 0.045565 -0.160269
C38   C     C_R   0.407687 0.734961 0.962625 -0.153209
C39   C     C_R   0.106380 0.207419 0.045638 -0.160136
C40   C     C_R   0.907659 0.234893 0.962491 -0.152940
C41   C     C_R   0.658514 0.775249 0.078777 -0.085666
C42   C     C_R   0.351755 0.787092 0.925413 -0.088820
C43   C     C_R   0.158568 0.275186 0.078826 -0.085671
C44   C     C_R   0.851691 0.286985 0.925323 -0.089329
C45   C     C_R   0.534384 0.155096 0.143449 0.567489
C46   C     C_R   0.466835 0.155284 0.855723 0.562231
C47   C     C_R   0.034382 0.655095 0.143450 0.569148
C48   C     C_R   0.966833 0.655283 0.855724 0.561612
C49   C     C_R   0.749519 0.932840 0.073397 -0.007563
C50   C     C_R   0.247453 0.917625 0.922701 -0.007760
C51   C     C_R   0.249545 0.432803 0.073416 -0.007418
C52   C     C_R   0.747419 0.417558 0.922669 -0.008179
C53   C     C_R   0.491874 0.165463 0.572080 -0.005307
C54   C     C_R   0.497081 0.147939 0.422639 -0.008107
C55   C     C_R   0.991697 0.670815 0.573878 0.003822
C56   C     C_R   0.003486 0.646531 0.425984 -0.007554
C57   C     C_R   0.519763 0.062236 0.540464 0.020046
C58   C     C_R   0.508977 0.045665 0.466893 0.033357
C59   C     C_R   0.032739 0.578424 0.546705 0.012916
C60   C     C_R   0.027076 0.553447 0.473660 0.026125
C61   C     C_R   0.466393 0.246919 0.452894 -0.177192
C62   C     C_R   0.462598 0.254295 0.527040 -0.160545
C63   C     C_R   0.961933 0.737334 0.452977 -0.179916
C64   C     C_R   0.954586 0.747957 0.526596 -0.152614
C65   C     C_R   0.546790 0.966750 0.581731 -0.066593
C66   C     C_R   0.504953 0.926786 0.441476 -0.099652
C67   C     C_R   0.070873 0.500183 0.592351 -0.068920
C68   C     C_R   0.040223 0.433719 0.453062 -0.096600
C69   C     C_R   0.087343 0.386168 0.569900 -0.108251
C70   C     C_R   0.068803 0.351206 0.501230 -0.161799
C71   C     C_R   0.541778 0.851090 0.556434 -0.131175
C72   C     C_R   0.520424 0.830579 0.486287 -0.162168
C73   C     C_R   0.742453 0.948125 0.584891 -0.005116
C74   C     C_R   0.242693 0.923287 0.426003 -0.007641
C75   C     C_R   0.285665 0.370176 0.563931 -0.001108
C76   C     C_R   0.744706 0.418325 0.427224 0.007281
C77   C     C_R   0.777364 0.052373 0.560434 0.031151
C78   C     C_R   0.183413 0.939626 0.470912 0.022642
C79   C     C_R   0.320741 0.476041 0.538590 0.046939
C80   C     C_R   0.686381 0.447657 0.470105 0.028307
C81   C     C_R   0.780390 0.073958 0.486154 0.014517
C82   C     C_R   0.191602 0.007545 0.531284 0.042369
C83   C     C_R   0.289744 0.534003 0.480599 0.015489
C84   C     C_R   0.697496 0.521293 0.528018 0.041532
C85   C     C_R   0.692644 0.914892 0.468382 -0.135101
C86   C     C_R   0.319621 0.004011 0.516640 -0.174146
C87   C     C_R   0.222624 0.353527 0.452852 -0.122618
C88   C     C_R   0.824533 0.488045 0.519372 -0.153095
C89   C     C_R   0.741720 0.971370 0.147745 0.544668
C90   C     C_R   0.257547 0.967704 0.850853 0.548697
C91   C     C_R   0.241727 0.471355 0.147755 0.542838
C92   C     C_R   0.757536 0.467681 0.850838 0.545436
C93   C     C_R   0.700076 0.883428 0.538479 -0.156169
C94   C     C_R   0.309020 0.967922 0.446387 -0.168840
C95   C     C_R   0.240010 0.308597 0.519075 -0.173048
C96   C     C_R   0.813655 0.446142 0.450193 -0.150189
C97   C     C_R   0.814847 0.128378 0.607865 -0.070395
C98   C     C_R   0.114679 0.898101 0.454786 -0.067485
C99   C     C_R   0.380696 0.532815 0.572051 -0.088636
C100  C     C_R   0.616303 0.409650 0.455354 -0.066776
C101  C     C_R   0.865970 0.207075 0.582739 -0.102793
C102  C     C_R   0.055513 0.960450 0.477261 -0.107486
C103  C     C_R   0.395472 0.652095 0.560223 -0.130853
C104  C     C_R   0.559171 0.472699 0.480846 -0.114858
C105  C     C_R   0.877369 0.215691 0.510177 -0.145169
C106  C     C_R   0.062937 0.042991 0.530451 -0.147542
C107  C     C_R   0.359926 0.711862 0.506976 -0.110871
C108  C     C_R   0.570127 0.554559 0.533207 -0.146047
C109  C     C_R   0.832663 0.156078 0.462158 -0.109132
C110  C     C_R   0.129727 0.064264 0.558827 -0.089928
C111  C     C_R   0.306728 0.654276 0.468513 -0.090407
C112  C     C_R   0.637760 0.581030 0.555867 -0.086143
C113  C     C_R   0.733988 0.006465 0.440100 -0.003921
C114  C     C_R   0.261461 0.014313 0.561141 -0.005281
C115  C     C_R   0.243694 0.469538 0.435161 0.013996
C116  C     C_R   0.766026 0.519294 0.560261 -0.002338
C117  C     C_R   0.729564 0.375861 0.355730 0.536645
C118  C     C_R   0.290231 0.333661 0.638372 0.532073
C119  C     C_R   0.229951 0.878798 0.354546 0.525954
C120  C     C_R   0.766954 0.885810 0.649224 0.528097
C121  C     C_R   0.530083 0.154386 0.351678 0.528725
C122  C     C_R   0.466722 0.157810 0.646196 0.515378
C123  C     C_R   0.031727 0.653922 0.352896 0.529785
C124  C     C_R   0.966026 0.658655 0.646525 0.524479
C125  C     C_R   0.728239 0.025566 0.363206 0.554563
C126  C     C_R   0.271945 0.028729 0.637392 0.539286
C127  C     C_R   0.230398 0.514366 0.364327 0.533369
C128  C     C_R   0.772852 0.530100 0.637588 0.563331
C129  C     C_3   0.498275 0.276918 0.975637 -0.121066
C130  C     C_3   0.448934 0.221420 0.032421 -0.129271
C131  C     C_3   0.998254 0.776912 0.975641 -0.120816
C132  C     C_3   0.948920 0.721392 0.032423 -0.129073
C133  C     C_3   0.563126 0.217041 0.012634 -0.133453
C134  C     C_3   0.439442 0.108367 0.986116 -0.096068
C135  C     C_3   0.063113 0.717056 0.012637 -0.133509
C136  C     C_3   0.939442 0.608338 0.986116 -0.095841
C137  C     C_3   0.513276 0.161714 0.068004 0.051087
C138  C     C_3   0.489262 0.163445 0.930501 0.054203
C139  C     C_3   0.013270 0.661709 0.068005 0.050534
C140  C     C_3   0.989256 0.663438 0.930503 0.054890
Cr1   Cr    Cr6+3 0.772820 0.169820 0.252640 1.031251
Cr2   Cr    Cr6+3 0.227180 0.169820 0.747360 1.028910
Cr3   Cr    Cr6+3 0.272820 0.669820 0.252640 1.042773
Cr4   Cr    Cr6+3 0.727180 0.669820 0.747360 1.028183
Cr5   Cr    Cr6+3 0.615040 0.323610 0.249150 1.013987
Cr6   Cr    Cr6+3 0.384960 0.323610 0.750850 1.002339
Cr7   Cr    Cr6+3 0.115040 0.823610 0.249150 1.012039
Cr8   Cr    Cr6+3 0.884960 0.823610 0.750850 1.013063
Cr9   Cr    Cr6+3 0.616720 0.011130 0.250660 1.030746
Cr10  Cr    Cr6+3 0.383280 0.011130 0.749340 1.033454
Cr11  Cr    Cr6+3 0.116720 0.511130 0.250660 1.026286
Cr12  Cr    Cr6+3 0.883280 0.511130 0.749340 1.022608
H1    H     H_    0.615001 0.258098 0.025818 0.128930
H2    H     H_    0.388074 0.064250 0.973572 0.137685
H3    H     H_    0.114982 0.758134 0.025821 0.129211
H4    H     H_    0.888081 0.564191 0.973573 0.138283
H5    H     H_    0.444946 0.316947 0.418757 0.130617
H6    H     H_    0.434677 0.327362 0.549095 0.127501
H7    H     H_    0.935589 0.799879 0.417038 0.129602
H8    H     H_    0.918776 0.815074 0.546456 0.152841
H9    H     H_    0.565591 0.979453 0.635990 0.150843
H10   H     H_    0.484788 0.905861 0.388780 0.154746
H11   H     H_    0.082875 0.523470 0.647165 0.150128
H12   H     H_    0.023793 0.397881 0.402246 0.154947
H13   H     H_    0.111772 0.324535 0.607102 0.139851
H14   H     H_    0.078601 0.261325 0.483729 0.116567
H15   H     H_    0.553975 0.778885 0.592686 0.099098
H16   H     H_    0.515194 0.740844 0.465916 0.130876
H17   H     H_    0.658890 0.859019 0.435252 0.163428
H18   H     H_    0.372624 0.020544 0.536704 0.142471
H19   H     H_    0.190048 0.299889 0.417245 0.147235
H20   H     H_    0.877786 0.493034 0.541392 0.143175
H21   H     H_    0.807259 0.122894 0.664852 0.131660
H22   H     H_    0.108066 0.821800 0.422345 0.160271
H23   H     H_    0.416502 0.489143 0.609409 0.145512
H24   H     H_    0.606249 0.333151 0.423301 0.163180
H25   H     H_    0.675932 0.802872 0.555169 0.127740
H26   H     H_    0.353351 0.963450 0.410658 0.129844
H27   H     H_    0.215958 0.228584 0.536503 0.113156
H28   H     H_    0.858551 0.428092 0.416790 0.127737
H29   H     H_    0.897770 0.259555 0.619586 0.137722
H30   H     H_    0.004239 0.948587 0.452876 0.124685
H31   H     H_    0.434804 0.698064 0.592280 0.119564
H32   H     H_    0.506248 0.460767 0.460924 0.121685
H33   H     H_    0.918947 0.273707 0.490721 0.113252
H34   H     H_    0.017338 0.091012 0.549468 0.121695
H35   H     H_    0.376587 0.800627 0.494748 0.140073
H36   H     H_    0.526066 0.594783 0.558127 0.098639
H37   H     H_    0.842729 0.174548 0.407200 0.172524
H38   H     H_    0.131436 0.132777 0.598624 0.142250
H39   H     H_    0.276301 0.703032 0.431452 0.139486
H40   H     H_    0.640449 0.645630 0.597588 0.146488
H41   H     H_    0.496746 0.370506 0.955072 0.117027
H42   H     H_    0.406012 0.268328 0.060583 0.124801
H43   H     H_    0.996713 0.870500 0.955079 0.117161
H44   H     H_    0.905993 0.768285 0.060586 0.125246
H45   H     H_    0.508029 0.955042 0.041711 0.166775
H46   H     H_    0.597241 0.059679 0.938308 0.143870
H47   H     H_    0.008042 0.455029 0.041702 0.166729
H48   H     H_    0.097248 0.559703 0.938311 0.144797
H49   H     H_    0.835397 0.058650 0.056134 0.162135
H50   H     H_    0.144350 0.998439 0.931965 0.149413
H51   H     H_    0.335394 0.558667 0.056140 0.162152
H52   H     H_    0.644343 0.498456 0.931960 0.149405
H53   H     H_    0.835829 0.038649 0.930234 0.146460
H54   H     H_    0.140925 0.981851 0.057101 0.147843
H55   H     H_    0.335813 0.538674 0.930240 0.147280
H56   H     H_    0.640947 0.481893 0.057101 0.147772
H57   H     H_    0.053361 0.165970 0.947974 0.112770
H58   H     H_    0.964271 0.223260 0.061883 0.129563
H59   H     H_    0.553378 0.665992 0.947873 0.113190
H60   H     H_    0.464261 0.723368 0.062045 0.129868
H61   H     H_    0.075041 0.145627 0.076833 0.107918
H62   H     H_    0.941783 0.174780 0.934747 0.113868
H63   H     H_    0.575015 0.645634 0.076742 0.108238
H64   H     H_    0.441794 0.674777 0.934918 0.114741
H65   H     H_    0.667485 0.760375 0.135188 0.144636
H66   H     H_    0.345047 0.765097 0.869689 0.143823
H67   H     H_    0.167556 0.260323 0.135236 0.143298
H68   H     H_    0.844959 0.265013 0.869595 0.137475
O1    O     O_R   0.788190 0.043000 0.172520 -0.510620
O2    O     O_R   0.211810 0.043000 0.827480 -0.502695
O3    O     O_R   0.288190 0.543000 0.172520 -0.510256
O4    O     O_R   0.711810 0.543000 0.827480 -0.502479
O5    O     O_R   0.556550 0.253260 0.323480 -0.518921
O6    O     O_R   0.443450 0.253260 0.676520 -0.528334
O7    O     O_R   0.056550 0.753260 0.323480 -0.518753
O8    O     O_R   0.943450 0.753260 0.676520 -0.499255
O9    O     O_R   0.545830 0.051610 0.330160 -0.523872
O10   O     O_R   0.454170 0.051610 0.669840 -0.522722
O11   O     O_R   0.045830 0.551610 0.330160 -0.524707
O12   O     O_R   0.954170 0.551610 0.669840 -0.527308
O13   O     O_R   0.681920 0.959720 0.327070 -0.500949
O14   O     O_R   0.318080 0.959720 0.672930 -0.480876
O15   O     O_R   0.181920 0.459720 0.327070 -0.507194
O16   O     O_R   0.818080 0.459720 0.672930 -0.503688
O17   O     O_3   0.668190 0.168190 0.250820 -0.283924
O18   O     O_3   0.331810 0.168190 0.749180 -0.302508
O19   O     O_3   0.168190 0.668190 0.250820 -0.279375
O20   O     O_3   0.831810 0.668190 0.749180 -0.281995
O21   O     O_R   0.766240 0.292300 0.176860 -0.468871
O22   O     O_R   0.233760 0.292300 0.823140 -0.463998
O23   O     O_R   0.266240 0.792300 0.176860 -0.468464
O24   O     O_R   0.733760 0.792300 0.823140 -0.468649
O25   O     O_R   0.670310 0.409160 0.168720 -0.529363
O26   O     O_R   0.329690 0.409160 0.831280 -0.522960
O27   O     O_R   0.170310 0.909160 0.168720 -0.530762
O28   O     O_R   0.829690 0.909160 0.831280 -0.532988
O29   O     O_R   0.556160 0.251900 0.173380 -0.505144
O30   O     O_R   0.443840 0.251900 0.826620 -0.505460
O31   O     O_R   0.056160 0.751900 0.173380 -0.504731
O32   O     O_R   0.943840 0.751900 0.826620 -0.505068
O33   O     O_R   0.545410 0.050140 0.168240 -0.491326
O34   O     O_R   0.454590 0.050140 0.831760 -0.482620
O35   O     O_R   0.045410 0.550140 0.168240 -0.490170
O36   O     O_R   0.954590 0.550140 0.831760 -0.484045
O37   O     O_R   0.681530 0.958350 0.176970 -0.501944
O38   O     O_R   0.318470 0.958350 0.823030 -0.501813
O39   O     O_R   0.181530 0.458350 0.176970 -0.502910
O40   O     O_R   0.818470 0.458350 0.823030 -0.505370
O41   O     O_R   0.788610 0.044480 0.334450 -0.531782
O42   O     O_R   0.211390 0.044480 0.665550 -0.531874
O43   O     O_R   0.288610 0.544480 0.334450 -0.510271
O44   O     O_R   0.711390 0.544480 0.665550 -0.528389
O45   O     O_R   0.766630 0.293670 0.326970 -0.526580
O46   O     O_R   0.233370 0.293670 0.673030 -0.516493
O47   O     O_R   0.266630 0.793670 0.326970 -0.520388
O48   O     O_R   0.733370 0.793670 0.673030 -0.528446
O49   O     O_R   0.670730 0.410640 0.330640 -0.519979
O50   O     O_R   0.329270 0.410640 0.669360 -0.521737
O51   O     O_R   0.170730 0.910640 0.330640 -0.520512
O52   O     O_R   0.829270 0.910640 0.669360 -0.527759
I1    I     I_    0.583194 0.847352 0.832791 -0.395005
I2    I     I_    0.408670 0.891088 0.172384 -0.374152
I3    I     I_    0.083172 0.347275 0.832871 -0.384327
I4    I     I_    0.908721 0.390844 0.172269 -0.372319

loop_
_geom_bond_atom_site_label_1
_geom_bond_atom_site_label_2
_ccdc_geom_bond_type
C128  O16   A    
C73   C77   A    
C99   C103  A    
C88   C96   A    
C15   C19   A    
C24   C52   A    
C88   H20   S    
C55   C59   A    
C78   C82   A    
C24   H52   S    
Cr8   O52   S    
Cr8   O8    S    
C73   C93   A    
C78   C98   A    
C136  C140  S    
C31   I3    S    
C21   C49   A    
Cr11  O39   S    
C7    C8    S    
C26   H54   S    
C49   C89   S    
C132  C139  S    
C133  C137  S    
C74   C119  S    
C1    C12   S    
Cr7   O31   S    
Cr2   O2    S    
C33   C39   A    
C75   C79   A    
Cr2   O22   S    
Cr6   O30   S    
C37   C41   A    
C120  O48   A    
C124  O8    A    
C82   C110  A    
Cr6   O50   S    
C13   C29   A    
C35   C37   A    
C38   C42   A    
C6    C133  S    
C61   H5    S    
C53   C122  S    
C18   C42   A    
Cr1   O21   S    
C89   O1    A    
C5    C6    S    
C114  C126  S    
C132  C136  S    
Cr10  O34   S    
C103  H31   S    
C113  C125  S    
Cr9   O33   S    
C122  O6    A    
C107  H35   S    
Cr8   O28   S    
C115  C127  S    
C6    C138  S    
C126  O42   A    
Cr5   O49   S    
C94   H26   S    
C105  H33   S    
C86   C114  A    
C9    C13   A    
C46   O30   A    
C35   H59   S    
C131  C140  S    
C86   C94   A    
C59   C67   A    
C118  O46   A    
C85   C93   A    
C58   C66   A    
C100  C104  A    
C4    O28   A    
C129  C138  S    
C12   C16   A    
C83   C111  A    
C109  H37   S    
Cr10  O18   S    
C98   C102  A    
C50   C90   S    
C100  H24   S    
Cr9   O17   S    
C33   H57   S    
C31   C33   A    
C77   C97   A    
C63   H7    S    
C48   O36   A    
C42   H66   S    
C34   H58   S    
C40   C44   A    
C47   O31   A    
C61   C62   A    
C103  C107  A    
C80   C84   A    
C22   C50   A    
C45   O29   A    
C10   C26   A    
C11   C15   A    
C134  C138  S    
C75   C95   A    
Cr7   O27   S    
C59   C60   A    
C84   C116  A    
C73   C120  S    
C71   H15   S    
Cr11  O11   S    
C80   C100  A    
C8    C135  S    
C51   C91   S    
C72   H16   S    
Cr4   O48   S    
C121  O5    A    
C3    O27   A    
C14   C30   A    
C25   H53   S    
C2    C11   S    
C92   O40   A    
C19   C43   A    
Cr5   O29   S    
C69   H13   S    
C68   H12   S    
C101  C105  A    
C5    C134  S    
C122  O10   A    
C66   C72   A    
Cr8   O32   S    
Cr4   O20   S    
C121  O9    A    
C22   H50   S    
C9    C25   A    
C102  H30   S    
C56   C123  S    
C83   C115  A    
C111  H39   S    
C92   O4    A    
Cr2   O46   S    
C89   O37   A    
C82   C114  A    
C10   C14   A    
C135  H3    S    
C17   C49   A    
C131  H43   S    
C6    H46   S    
C53   C57   A    
C37   H63   S    
Cr6   O6    S    
C48   O32   A    
Cr10  O14   S    
Cr8   O20   S    
Cr5   O5    S    
C15   C31   A    
C110  H38   S    
Cr9   O13   S    
C108  C112  A    
Cr12  O12   S    
Cr5   O17   S    
C67   C69   A    
Cr3   O19   S    
Cr1   O45   S    
C88   C116  A    
C135  C139  S    
Cr1   O1    S    
C125  O13   A    
C47   O35   A    
C32   I4    S    
Cr3   O3    S    
C21   H49   S    
C76   C96   A    
C112  H40   S    
C30   I2    S    
C81   C113  A    
C53   C62   A    
Cr12  O40   S    
C13   C17   A    
C23   C51   A    
Cr12  O20   S    
C85   H17   S    
C11   C27   A    
C16   C20   A    
C48   C140  S    
C87   H19   S    
C55   C64   A    
C64   H8    S    
C45   C137  S    
C56   C63   A    
C99   H23   S    
C3    O23   A    
C119  O47   A    
C96   H28   S    
Cr3   O23   S    
C5    C137  S    
C2    O22   A    
Cr9   O37   S    
C117  O45   A    
C124  O12   A    
C106  H34   S    
C45   O33   A    
C36   H60   S    
C129  C133  S    
C1    O21   A    
C126  O14   A    
C95   H27   S    
C104  H32   S    
C54   C121  S    
C81   C109  A    
Cr6   O18   S    
C20   C44   A    
C23   C27   A    
Cr5   O25   S    
C75   C118  S    
C28   H56   S    
C5    H45   S    
C34   C40   A    
C8    H48   S    
C66   H10   S    
Cr3   O43   S    
C116  C128  S    
Cr1   O41   S    
C125  O41   A    
C131  C132  S    
Cr4   O44   S    
C7    C139  S    
C104  C108  A    
C118  O50   A    
C101  H29   S    
C18   C50   A    
Cr2   O42   S    
Cr11  O35   S    
C129  C130  S    
C106  C110  A    
C79   C99   A    
Cr2   O18   S    
C21   C25   A    
C55   C124  S    
C133  H1    S    
Cr1   O17   S    
C29   I1    S    
C40   H62   S    
Cr6   O26   S    
C86   H18   S    
C107  C111  A    
C14   C18   A    
C108  H36   S    
C43   H67   S    
C24   C28   A    
C38   H64   S    
C130  H42   S    
Cr10  O10   S    
C47   C139  S    
C87   C95   A    
C129  H41   S    
C76   C80   A    
C90   O2    A    
Cr11  O15   S    
Cr12  O16   S    
C54   C61   A    
Cr7   O19   S    
C16   C32   A    
C119  O51   A    
C29   C35   A    
C131  C135  S    
C54   C58   A    
C120  O52   A    
C30   C36   A    
C8    C140  S    
C39   H61   S    
C87   C115  A    
C36   C38   A    
C2    O26   A    
Cr9   O9    S    
C71   C72   A    
C20   C52   A    
C3    C10   S    
C65   C71   A    
Cr10  O38   S    
C79   C83   A    
C57   C58   A    
C134  H2    S    
Cr7   O7    S    
C105  C109  A    
Cr11  O19   S    
C19   C51   A    
C98   H22   S    
Cr4   O24   S    
C85   C113  A    
Cr12  O36   S    
C4    O24   A    
C62   H6    S    
C102  C106  A    
Cr3   O47   S    
C128  O44   A    
C136  H4    S    
C7    H47   S    
C69   C70   A    
C130  C134  S    
C76   C117  S    
C17   C41   A    
C44   H68   S    
Cr4   O4    S    
C70   H14   S    
C91   O39   A    
C60   C68   A    
C22   C26   A    
C63   C64   A    
C117  O49   A    
C67   H11   S    
C56   C60   A    
C7    C136  S    
C123  O11   A    
C12   C28   A    
C27   H55   S    
C68   C70   A    
C77   C81   A    
C74   C78   A    
C39   C43   A    
C65   H9    S    
C74   C94   A    
C132  H44   S    
C23   H51   S    
C46   C138  S    
C123  O7    A    
C1    O25   A    
C84   C112  A    
C127  O15   A    
C93   H25   S    
C4    C9    S    
C90   O38   A    
C130  C137  S    
C91   O3    A    
Cr7   O51   S    
C46   O34   A    
C52   C92   S    
C97   C101  A    
C97   H21   S    
C32   C34   A    
C41   H65   S    
C57   C65   A    
C127  O43   A    
