data_mof_unit_4318.cif
_audit_creation_date              2012-12-11T16:53:41-0500
_audit_creation_method            fapswitch 2.2
_symmetry_space_group_name_H-M    P1
_symmetry_Int_Tables_number       1
_space_group_crystal_system       triclinic
_cell_length_a                    14.913768
_cell_length_b                    14.917213
_cell_length_c                    17.029209
_cell_angle_alpha                 108.819928
_cell_angle_beta                  106.285043
_cell_angle_gamma                 108.48086
_cell_volume                      3076.56734352

loop_
_atom_site_label
_atom_site_type_symbol
_atom_type_description
_atom_site_fract_x
_atom_site_fract_y
_atom_site_fract_z
_atom_type_partial_charge
C1    C     C_R   0.087391 0.281041 0.067683 -0.157361
C2    C     C_R   0.031942 0.482041 0.725188 0.086794
C3    C     C_R   0.738974 0.191285 0.725762 0.084403
C4    C     C_R   0.360345 0.558914 0.055743 0.118356
C5    C     C_R   0.274886 0.689130 0.251268 -0.145865
C6    C     C_R   0.753870 0.567946 0.978094 -0.170177
C7    C     C_R   0.891019 0.395848 0.175152 -0.236833
C8    C     C_R   0.086502 0.795514 0.996949 -0.114991
C9    C     C_R   0.916727 0.709900 0.916169 -0.083755
C10   C     C_R   0.063135 0.486414 0.255815 0.505184
C11   C     C_R   0.278711 0.785461 0.175458 -0.130741
C12   C     C_R   0.938808 0.467894 0.734575 -0.131420
C13   C     C_R   0.744161 0.469760 0.053515 -0.120693
C14   C     C_R   0.336197 0.782063 0.252584 0.045966
C15   C     C_R   0.718109 0.546917 0.040175 0.112252
C16   C     C_R   0.971362 0.421176 0.255199 -0.096951
C17   C     C_R   0.003807 0.801199 0.940482 0.016496
C18   C     C_R   0.521841 0.647263 0.044297 0.118314
C19   C     C_R   0.473061 0.594602 0.086181 -0.152191
C20   C     C_R   0.532338 0.564933 0.145179 0.520955
C21   C     C_R   0.624158 0.563329 0.140082 -0.343549
C22   C     C_R   0.656572 0.591239 0.077816 -0.021956
C23   C     C_R   0.767437 0.200959 0.813798 -0.137054
C24   C     C_R   0.611918 0.645227 0.039811 0.173349
C25   C     C_3   0.576338 0.633671 0.944428 -0.503678
C26   C     C_3   0.478486 0.636139 0.949247 -0.512418
C27   C     C_R   0.958857 0.376474 0.318975 0.141652
C28   C     C_R   0.039687 0.436907 0.637398 0.059946
C29   C     C_R   0.135393 0.425434 0.542777 -0.298898
C30   C     C_R   0.136012 0.458008 0.629716 0.197178
C31   C     C_R   0.945806 0.374189 0.556875 -0.315008
C32   C     C_R   0.946684 0.355140 0.472049 0.198228
C33   C     C_R   0.042564 0.383695 0.465368 0.147557
C34   C     C_R   0.302470 0.595177 0.006432 -0.166499
C35   C     C_R   0.045980 0.385199 0.385204 -0.262464
C36   C     C_R   0.861062 0.336214 0.321188 -0.162827
C37   C     C_R   0.854557 0.321771 0.396395 -0.221851
C38   C     C_R   0.695229 0.094016 0.639369 0.062675
C39   C     C_R   0.444973 0.855564 0.317808 0.124629
C40   C     C_R   0.585689 0.033766 0.395632 -0.210933
C41   C     C_R   0.496446 0.952707 0.318147 -0.173992
C42   C     C_R   0.492300 0.835437 0.389112 -0.296964
C43   C     C_R   0.575661 0.917603 0.468775 0.177847
C44   C     C_R   0.619524 0.018863 0.473811 0.190804
C45   C     C_R   0.763239 0.293546 0.734433 -0.131037
C46   C     C_R   0.685040 0.105426 0.558868 -0.317697
C47   C     C_R   0.658544 0.990317 0.633117 0.199077
C48   C     C_R   0.603740 0.902867 0.547052 -0.313138
C49   C     C_R   0.051818 0.086682 0.118478 0.039668
C50   C     C_R   0.985614 0.089873 0.044793 -0.003245
C51   C     C_R   0.893149 0.995444 0.982639 -0.404371
C52   C     C_R   0.864577 0.903760 0.997671 0.542581
C53   C     C_R   0.932374 0.907347 0.077232 -0.012856
C54   C     C_R   0.025987 0.999470 0.133508 0.040594
C55   C     C_3   0.125230 0.046565 0.216840 -0.552380
C56   C     C_R   0.293521 0.493607 0.077411 -0.111307
C57   C     C_3   0.155188 0.146911 0.201266 0.321984
C58   C     C_R   0.112106 0.543686 0.813382 -0.141583
C59   C     C_R   0.914131 0.199566 0.991982 -0.137426
C60   C     C_R   0.999011 0.185274 0.032281 0.100171
H1    H     H_    0.165783 0.303107 0.113988 0.122116
H2    H     H_    0.751538 0.626625 0.954789 0.159143
H3    H     H_    0.811449 0.335423 0.145572 0.127354
H4    H     H_    0.168037 0.846012 0.019194 0.089432
H5    H     H_    0.841237 0.680247 0.861696 0.125750
H6    H     H_    0.306948 0.838273 0.147532 0.085731
H7    H     H_    0.728785 0.434489 0.097481 0.101148
H8    H     H_    0.661725 0.528416 0.176605 0.160339
H9    H     H_    0.624569 0.705268 0.942861 0.268725
H10   H     H_    0.862210 0.435154 0.681032 0.085625
H11   H     H_    0.561615 0.556696 0.891716 0.201489
H12   H     H_    0.472290 0.708322 0.948775 0.189651
H13   H     H_    0.407788 0.559851 0.899979 0.211050
H14   H     H_    0.119686 0.407145 0.380821 0.187834
H15   H     H_    0.790891 0.324080 0.269189 0.119814
H16   H     H_    0.209191 0.445526 0.537472 0.132528
H17   H     H_    0.779763 0.297685 0.399980 0.120752
H18   H     H_    0.870689 0.349648 0.559177 0.124525
H19   H     H_    0.718168 0.182622 0.561318 0.128164
H20   H     H_    0.760143 0.140480 0.835645 0.138173
H21   H     H_    0.620204 0.110924 0.397942 0.120973
H22   H     H_    0.571451 0.824117 0.542388 0.137691
H23   H     H_    0.463874 0.969480 0.262485 0.115055
H24   H     H_    0.456669 0.760361 0.389069 0.117034
H25   H     H_    0.843071 0.994921 0.922760 0.128872
H26   H     H_    0.110961 0.056726 0.279103 0.200239
H27   H     H_    0.173585 0.004409 0.206193 0.188592
H28   H     H_    0.332576 0.661721 0.992821 0.110016
H29   H     H_    0.740854 0.314943 0.680123 0.087070
H30   H     H_    0.312181 0.460307 0.123571 0.162205
H31   H     H_    0.194953 0.572098 0.835402 0.143143
H32   H     H_    0.833403 0.150065 0.973652 0.099361
H33   H     H_    0.299960 0.651647 0.291459 0.150200
N1    N     N_R   0.055640 0.348550 0.045600 -0.040584
N2    N     N_R   0.798340 0.505430 0.954400 -0.044900
N3    N     N_R   0.931580 0.439470 0.128350 -0.061948
N4    N     N_R   0.051950 0.704140 0.002340 -0.041741
N5    N     N_R   0.944360 0.651450 0.954400 -0.048605
N6    N     N_R   0.039170 0.492150 0.176290 -0.084105
N7    N     N_R   0.188710 0.696600 0.128350 -0.039860
N8    N     N_R   0.794820 0.447010 0.002340 -0.040094
N9    N     N_R   0.960830 0.507850 0.823710 -0.040509
N10   N     N_R   0.811290 0.303400 0.871650 -0.043717
N11   N     N_R   0.205180 0.552990 0.997660 -0.042587
N12   N     N_R   0.814810 0.361830 0.823710 -0.039870
N13   N     N_R   0.201660 0.494570 0.045600 -0.048245
N14   N     N_R   0.068420 0.560530 0.871650 -0.043846
N15   N     N_R   0.948050 0.295860 0.997660 -0.041068
N16   N     N_R   0.185190 0.638170 0.176290 -0.041450
Ni1   Ni    Ni4+2 0.119330 0.493420 0.109950 0.232465
Ni2   Ni    Ni4+2 0.880670 0.506580 0.890050 0.208092
Ni3   Ni    Ni4+2 0.872590 0.372590 0.000000 0.206764
Ni4   Ni    Ni4+2 0.127410 0.627410 0.000000 0.202803
O1    O     O_3   0.164347 0.522200 0.317121 -0.665850
C61   C     C_3   0.188349 0.611637 0.396634 0.220423
H34   H     H_    0.129157 0.595426 0.424703 0.105567
H35   H     H_    0.192850 0.679591 0.381243 0.107375
C62   C     C_3   0.293650 0.643418 0.470881 -0.914725
H36   H     H_    0.355696 0.662807 0.446810 0.248042
H37   H     H_    0.313396 0.714010 0.533388 0.218664
H38   H     H_    0.290818 0.577478 0.488525 0.251653
O2    O     O_3   0.493785 0.518882 0.194518 -0.637421
C63   C     C_3   0.513373 0.600014 0.277399 0.231696
H39   H     H_    0.474448 0.649298 0.263739 0.097480
H40   H     H_    0.598983 0.651260 0.319409 0.106242
C64   C     C_3   0.469666 0.550378 0.332037 -0.905526
H41   H     H_    0.503384 0.496486 0.342883 0.262396
H42   H     H_    0.490042 0.613224 0.399952 0.205830
H43   H     H_    0.383244 0.504609 0.294649 0.261178
N17   N     N_2   0.234097 0.516401 0.707526 -0.124585
H44   H     H_    0.281795 0.479313 0.705425 0.173010
C65   C     C_3   0.288014 0.625996 0.726903 -0.973127
H45   H     H_    0.360330 0.667831 0.791609 0.252511
H46   H     H_    0.237705 0.666307 0.735208 0.263679
H47   H     H_    0.309973 0.631146 0.670722 0.261333
N18   N     N_2   0.668707 0.971672 0.711086 -0.127823
H48   H     H_    0.694248 0.914860 0.710530 0.157925
C66   C     C_3   0.576971 0.951595 0.729334 -0.970504
H49   H     H_    0.594377 0.947456 0.795495 0.244776
H50   H     H_    0.510647 0.875141 0.674001 0.261852
H51   H     H_    0.554297 0.016713 0.734536 0.266627
O3    O     O_3   0.773191 0.809648 0.937598 -0.671211
C67   C     C_3   0.728512 0.799896 0.847982 0.232173
H52   H     H_    0.788442 0.815420 0.820592 0.101987
H53   H     H_    0.692670 0.854906 0.848568 0.117001
C68   C     C_3   0.641105 0.688363 0.781868 -0.973473
H54   H     H_    0.568937 0.678230 0.792152 0.260929
H55   H     H_    0.622793 0.675736 0.710150 0.227855
H56   H     H_    0.664138 0.627485 0.791332 0.256770
N19   N     N_2   0.160305 0.236968 0.272587 -0.107379
H57   H     H_    0.143658 0.289152 0.250765 0.180475
C69   C     C_3   0.251104 0.289638 0.359811 -0.941222
H58   H     H_    0.236652 0.339907 0.413829 0.250324
H59   H     H_    0.320355 0.341041 0.355575 0.252289
H60   H     H_    0.267931 0.231123 0.380380 0.254426
N20   N     N_2   0.247304 0.174665 0.182022 -0.106570
H61   H     H_    0.314772 0.193013 0.235299 0.186688
C70   C     C_3   0.239479 0.111391 0.093238 -0.941853
H62   H     H_    0.316494 0.143393 0.091227 0.254231
H63   H     H_    0.182097 0.114907 0.037884 0.262838
H64   H     H_    0.216553 0.028168 0.081065 0.245682

loop_
_geom_bond_atom_site_label_1
_geom_bond_atom_site_label_2
_ccdc_geom_bond_type
C67   C68   S    
C35   H14   S    
C64   H41   S    
C47   N18   S    
C26   H12   S    
C3    C23   A    
C19   C20   A    
C18   C26   S    
C8    N4    A    
C2    C12   A    
C51   H25   S    
C62   H37   S    
N11   N13   A    
O1    C61   S    
C63   H39   S    
C39   C41   A    
C29   H16   S    
C53   C54   A    
N8    Ni3   S    
C7    N3    A    
N3    Ni3   S    
N1    N15   A    
C9    N5    A    
C18   C24   A    
N20   H61   S    
C18   C19   A    
N7    N16   A    
C13   H7    S    
C46   H19   S    
C11   C14   A    
C63   H40   S    
C67   H52   S    
C41   H23   S    
N3    N6    A    
C29   C33   A    
C26   H13   S    
C49   C57   S    
C58   N14   A    
C62   H36   S    
N14   Ni4   S    
C70   H64   S    
C14   C39   S    
C4    C19   S    
C15   C22   S    
C23   N10   A    
C31   C32   A    
C3    C38   S    
C45   N12   A    
C1    N1    A    
C61   H35   S    
C36   C37   A    
C25   H11   S    
C23   H20   S    
C45   H29   S    
C43   C48   A    
C20   O2    S    
C10   O1    S    
C11   H6    S    
C16   C27   S    
C56   H30   S    
N12   Ni2   S    
C59   C60   A    
C21   C22   A    
C4    C56   A    
C70   H63   S    
N9    Ni2   S    
C44   C46   A    
N4    N5    A    
C39   C42   A    
C68   H55   S    
C57   N20   S    
C4    C34   A    
C51   C52   A    
C42   H24   S    
C24   C25   S    
N18   C66   S    
C1    C60   A    
C10   C16   A    
C65   H45   S    
C63   C64   S    
C64   H43   S    
C27   C35   A    
C25   C26   S    
C30   N17   S    
N6    Ni1   S    
C37   H17   S    
N1    Ni1   S    
C52   O3    S    
N15   Ni3   S    
N10   Ni3   S    
C62   H38   S    
N17   C65   S    
C43   C44   A    
C12   N9    A    
C29   C30   A    
C36   H15   S    
C68   H56   S    
C47   C48   A    
C48   H22   S    
C69   H60   S    
C6    C15   A    
C61   C62   S    
C7    H3    S    
C57   N19   S    
C9    H5    S    
C50   C51   A    
C38   C47   A    
N9    N14   A    
N10   N12   A    
C34   H28   S    
C32   C37   A    
C20   C21   A    
C56   N13   A    
C5    C14   A    
C66   H50   S    
C8    H4    S    
C65   H46   S    
C9    C17   A    
C40   C41   A    
C69   H59   S    
C49   C50   A    
C55   C57   S    
C21   H8    S    
C70   H62   S    
C22   C24   A    
C25   H9    S    
C42   C43   A    
C13   N8    A    
C52   C53   A    
C31   H18   S    
C68   H54   S    
C58   H31   S    
C67   H53   S    
C12   H10   S    
C54   C55   S    
C7    C16   A    
C64   H42   S    
N5    Ni2   S    
O3    C67   S    
C40   H21   S    
C28   C31   A    
N7    Ni4   S    
C59   N15   A    
N18   H48   S    
C66   H51   S    
C1    H1    S    
C5    H33   S    
C2    C58   A    
C27   C36   A    
C8    C17   A    
C50   C60   S    
C32   C33   A    
C6    H2    S    
C55   H26   S    
C13   C15   A    
N17   H44   S    
C28   C30   A    
N2    Ni2   S    
N16   Ni1   S    
C61   H34   S    
C5    N16   A    
C65   H47   S    
N20   C70   S    
C33   C35   A    
C3    C45   A    
N19   C69   S    
C59   H32   S    
C55   H27   S    
C10   N6    A    
C34   N11   A    
C38   C46   A    
C66   H49   S    
N11   Ni4   S    
N2    N8    A    
C40   C44   A    
C69   H58   S    
N13   Ni1   S    
C6    N2    A    
N19   H57   S    
C11   N7    A    
C2    C28   S    
O2    C63   S    
N4    Ni4   S    
C49   C54   A    
