data_mof_unit_3579.cif
_audit_creation_date              2012-12-10T20:51:27-0500
_audit_creation_method            fapswitch 2.2
_symmetry_space_group_name_H-M    P1
_symmetry_Int_Tables_number       1
_space_group_crystal_system       triclinic
_cell_length_a                    17.598535
_cell_length_b                    8.927947
_cell_length_c                    8.106844
_cell_angle_alpha                 90.000573
_cell_angle_beta                  90.104491
_cell_angle_gamma                 89.997517
_cell_volume                      1273.73538238

loop_
_atom_site_label
_atom_site_type_symbol
_atom_type_description
_atom_site_fract_x
_atom_site_fract_y
_atom_site_fract_z
_atom_type_partial_charge
C1    C     C_R   0.500000 0.218004 0.499999 0.915162
C2    C     C_R   0.848377 0.553447 0.349696 0.376906
C3    C     C_R   0.770946 0.525140 0.650453 0.353519
C4    C     C_R   0.229057 0.525151 0.349535 0.353634
C5    C     C_R   0.230645 0.541551 0.651101 0.340815
C6    C     C_R   0.769349 0.541594 0.348890 0.340951
C7    C     C_R   0.730172 0.520707 0.499694 -0.447846
C8    C     C_R   0.269826 0.520683 0.500300 -0.447810
C9    C     C_R   0.886425 0.570534 0.499610 -0.292254
C10   C     C_R   0.113578 0.570596 0.500358 -0.292268
C11   C     C_1   0.966341 0.581536 0.499884 0.120258
C12   C     C_R   0.500000 0.781993 0.500001 0.909589
C13   C     C_1   0.033660 0.581556 0.500077 0.120169
C14   C     C_3   0.890468 0.730748 0.836949 -0.192792
C15   C     C_3   0.109418 0.730861 0.163189 -0.193291
C16   C     C_3   0.095274 0.404770 0.839768 -0.177603
C17   C     C_3   0.904771 0.404799 0.160234 -0.177736
C18   C     C_3   0.741706 0.347686 0.839065 -0.158206
C19   C     C_3   0.258328 0.347658 0.160980 -0.158333
C20   C     C_3   0.281280 0.692349 0.847115 -0.125937
C21   C     C_3   0.718650 0.692509 0.153067 -0.126376
C22   C     C_1   0.500000 0.065196 0.499999 -0.207704
C23   C     C_1   0.500000 0.934789 0.500001 -0.209351
C24   C     C_R   0.352760 0.502787 0.499966 0.963596
C25   C     C_R   0.647240 0.502801 0.500033 0.963553
C26   C     C_R   0.847931 0.562367 0.649819 0.379377
C27   C     C_R   0.152080 0.562435 0.350153 0.379474
C28   C     C_R   0.151617 0.553457 0.650278 0.376869
H1    H     H_    0.832685 0.779474 0.852260 0.136441
H2    H     H_    0.943855 0.352836 0.251882 0.115885
H3    H     H_    0.852261 0.336218 0.147428 0.141639
H4    H     H_    0.933946 0.403685 0.039374 0.205058
H5    H     H_    0.802153 0.313498 0.853758 0.134430
H6    H     H_    0.713400 0.276528 0.744355 0.108766
H7    H     H_    0.712627 0.327150 0.958180 0.200873
H8    H     H_    0.197887 0.313422 0.146329 0.134352
H9    H     H_    0.286661 0.276547 0.255696 0.108831
H10   H     H_    0.287399 0.327107 0.041856 0.200886
H11   H     H_    0.226896 0.752197 0.870067 0.142003
H12   H     H_    0.922787 0.794735 0.742444 0.116505
H13   H     H_    0.315185 0.753290 0.752611 0.106993
H14   H     H_    0.314485 0.693655 0.963492 0.200471
H15   H     H_    0.773009 0.752568 0.130522 0.141542
H16   H     H_    0.684589 0.753200 0.247503 0.107345
H17   H     H_    0.685579 0.693886 0.036511 0.200470
H18   H     H_    0.921125 0.743606 0.955708 0.207859
H19   H     H_    0.167151 0.779978 0.148521 0.135924
H20   H     H_    0.076790 0.794522 0.257459 0.116939
H21   H     H_    0.078999 0.743699 0.044140 0.207929
H22   H     H_    0.056234 0.352711 0.748100 0.115823
H23   H     H_    0.147814 0.336284 0.852653 0.141782
H24   H     H_    0.066074 0.403651 0.960601 0.204992
N1    N     N_1   0.500000 0.500000 0.073640 -0.024814
N2    N     N_1   0.500000 0.500000 0.926360 -0.024815
O1    O     O_R   0.500000 0.285350 0.636850 -0.623636
O2    O     O_3   0.113377 0.577182 0.202498 -0.563685
O3    O     O_3   0.112011 0.554420 0.797392 -0.565222
O4    O     O_3   0.887971 0.554435 0.202567 -0.565171
O5    O     O_3   0.735465 0.501196 0.800080 -0.543487
O6    O     O_3   0.264538 0.501185 0.199909 -0.543482
O7    O     O_3   0.268425 0.542063 0.800797 -0.549719
O8    O     O_3   0.731569 0.542195 0.199194 -0.549567
O9    O     O_R   0.500000 0.714650 0.363150 -0.627005
O10   O     O_R   0.500000 0.714650 0.636850 -0.626976
O11   O     O_R   0.500000 0.285350 0.363150 -0.623644
O12   O     O_R   0.389120 0.500000 0.636930 -0.579778
O13   O     O_R   0.610880 0.500000 0.363070 -0.579820
O14   O     O_R   0.610880 0.500000 0.636930 -0.579751
O15   O     O_R   0.389120 0.500000 0.363070 -0.579793
O16   O     O_3   0.886654 0.577095 0.797447 -0.563798
Zn1   Zn    Zn3+2 0.500000 0.500000 0.682780 0.997048
Zn2   Zn    Zn3+2 0.500000 0.500000 0.317220 0.997015

loop_
_geom_bond_atom_site_label_1
_geom_bond_atom_site_label_2
_ccdc_geom_bond_type
C10   C27   A    
C9    C26   A    
O15   Zn2   S    
C1    O11   A    
C2    O4    S    
C6    C7    A    
C19   H10   S    
C15   H19   S    
C19   O6    S    
C5    C8    A    
C5    C28   A    
C11   C13   T    
C18   H7    S    
N1    Zn2   S    
C20   H14   S    
O12   Zn1   S    
C7    C25   S    
C16   H23   S    
C24   O12   A    
C17   O4    S    
C4    C8    A    
C15   O2    S    
C6    O8    S    
C15   H21   S    
C20   H13   S    
C1    O1    A    
C5    O7    S    
C1    C22   S    
C14   H18   S    
C21   H15   S    
C28   O3    S    
C17   H2    S    
C18   H6    S    
C12   C23   S    
C4    O6    S    
C21   O8    S    
C14   O16   S    
C25   O14   A    
C15   H20   S    
O14   Zn1   S    
C26   O16   S    
C8    C24   S    
C17   H3    S    
C16   H22   S    
C24   O15   A    
C3    C7    A    
C16   O3    S    
C9    C11   S    
C12   O10   A    
C18   H5    S    
C20   H11   S    
C14   H1    S    
C14   H12   S    
O11   Zn2   S    
C18   O5    S    
C4    C27   A    
O9    Zn2   S    
O13   Zn2   S    
C21   H16   S    
O10   Zn1   S    
C10   C28   A    
C20   O7    S    
C17   H4    S    
C12   O9    A    
C27   O2    S    
C2    C6    A    
C19   H9    S    
C19   H8    S    
N1    N2    T    
C2    C9    A    
C10   C13   S    
C22   C23   T    
O1    Zn1   S    
N2    Zn1   S    
C16   H24   S    
C3    O5    S    
C21   H17   S    
C3    C26   A    
C25   O13   A    
