data_mof_unit_936.cif
_audit_creation_date              2012-10-26T21:08:41-0400
_audit_creation_method            fapswitch 2.2
_symmetry_space_group_name_H-M    P1
_symmetry_Int_Tables_number       1
_space_group_crystal_system       triclinic
_cell_length_a                    22.426681
_cell_length_b                    22.465459
_cell_length_c                    14.664087
_cell_angle_alpha                 89.824339
_cell_angle_beta                  90.669511
_cell_angle_gamma                 90.002089
_cell_volume                      7387.60452634

loop_
_atom_site_label
_atom_site_type_symbol
_atom_type_description
_atom_site_fract_x
_atom_site_fract_y
_atom_site_fract_z
_atom_type_partial_charge
C1    C     C_R   0.419691 0.919783 0.499753 0.544865
C2    C     C_1   0.662938 0.837329 0.501553 -0.022129
C3    C     C_3   0.225800 0.808196 0.899627 -0.483128
C4    C     C_3   0.416465 0.133577 0.995969 0.037214
C5    C     C_3   0.362604 0.169878 0.025899 -0.262954
C6    C     C_3   0.347467 0.218755 0.956876 -0.507504
C7    C     C_3   0.600919 0.880715 0.007690 0.013202
C8    C     C_3   0.626682 0.822948 0.970192 -0.268939
C9    C     C_3   0.656264 0.785787 0.045380 -0.496679
C10   C     C_3   0.573522 0.120372 0.870581 0.001556
C11   C     C_3   0.632719 0.087445 0.856892 -0.280129
C12   C     C_3   0.661029 0.104193 0.766300 -0.463965
C13   C     C_1   0.663609 0.161930 0.501973 -0.026800
C14   C     C_3   0.441722 0.858812 0.985915 0.022343
C15   C     C_3   0.412129 0.802388 0.022014 -0.270922
C16   C     C_3   0.404870 0.755783 0.947148 -0.498029
C17   C     C_3   0.925682 0.639804 0.996991 0.037084
C18   C     C_3   0.872225 0.676894 0.026566 -0.263196
C19   C     C_3   0.856141 0.724383 0.955783 -0.505001
C20   C     C_3   0.080625 0.367145 0.005523 0.028136
C21   C     C_3   0.140211 0.338099 0.982751 -0.264595
C22   C     C_3   0.155546 0.287739 0.049096 -0.494708
C23   C     C_3   0.084164 0.612331 0.870753 0.004355
C24   C     C_1   0.336711 0.837641 0.499828 -0.018977
C25   C     C_3   0.139508 0.572828 0.859786 -0.278437
C26   C     C_3   0.169065 0.583323 0.767998 -0.469341
C27   C     C_3   0.920375 0.369257 0.986301 0.022708
C28   C     C_3   0.899863 0.308427 0.020406 -0.271643
C29   C     C_3   0.872968 0.271330 0.943197 -0.494155
C30   C     C_1   0.837568 0.663160 0.497995 -0.021553
C31   C     C_1   0.161496 0.335985 0.501653 -0.021771
C32   C     C_1   0.162402 0.663158 0.502270 -0.027387
C33   C     C_1   0.838232 0.336113 0.500666 -0.018899
C34   C     C_1   0.500080 0.000410 0.194550 0.247659
C35   C     C_1   0.501993 0.001634 0.805368 0.183418
C36   C     C_1   0.999895 0.500432 0.194552 0.245296
C37   C     C_R   0.580326 0.080175 0.500317 0.541153
C38   C     C_1   0.001416 0.501628 0.805371 0.182944
C39   C     C_3   0.526093 0.055401 0.972711 0.223977
C40   C     C_3   0.479584 0.950772 0.027253 0.208082
C41   C     C_3   0.469077 0.047603 0.030354 0.248583
C42   C     C_3   0.536949 0.958288 0.970558 0.191967
C43   C     C_3   0.029821 0.553089 0.972654 0.232387
C44   C     C_3   0.974224 0.452978 0.027377 0.208348
C45   C     C_3   0.972575 0.550351 0.030772 0.246949
C46   C     C_3   0.031661 0.455497 0.970098 0.192424
C47   C     C_3   0.720611 0.746215 0.576241 0.295378
C48   C     C_R   0.580246 0.919730 0.500451 0.543448
C49   C     C_3   0.277770 0.252187 0.423204 0.296297
C50   C     C_3   0.269189 0.756853 0.418112 0.294729
C51   C     C_3   0.720477 0.252676 0.577938 0.291626
C52   C     C_3   0.219071 0.245065 0.577288 0.295432
C53   C     C_3   0.780115 0.754445 0.422969 0.295800
C54   C     C_3   0.781917 0.244659 0.426591 0.295060
C55   C     C_3   0.229494 0.744226 0.585439 0.292210
C56   C     C_3   0.222501 0.194288 0.507061 -0.130025
C57   C     C_3   0.776454 0.804745 0.494135 -0.142202
C58   C     C_3   0.777363 0.194374 0.497922 -0.133450
C59   C     C_R   0.419671 0.080205 0.499559 0.545501
C60   C     C_3   0.225559 0.802732 0.530291 -0.135603
C61   C     C_3   0.724258 0.696023 0.505085 -0.132296
C62   C     C_3   0.274468 0.302968 0.493513 -0.140956
C63   C     C_3   0.273197 0.698419 0.473255 -0.136465
C64   C     C_3   0.724977 0.303017 0.506605 -0.133621
C65   C     C_1   0.374437 0.124619 0.498654 -0.012257
C66   C     C_1   0.625101 0.874970 0.501404 -0.014637
C67   C     C_1   0.625495 0.124587 0.501196 -0.025311
C68   C     C_1   0.374661 0.875178 0.499388 -0.011090
C69   C     C_1   0.875198 0.625316 0.498452 -0.013583
C70   C     C_R   0.919890 0.419578 0.499800 0.545126
C71   C     C_1   0.124257 0.374195 0.501413 -0.013930
C72   C     C_1   0.124836 0.625260 0.501364 -0.024686
C73   C     C_1   0.875573 0.374255 0.499727 -0.011257
C74   C     C_3   0.286610 0.257304 0.571557 -0.141180
C75   C     C_3   0.712602 0.742280 0.427862 -0.128664
C76   C     C_3   0.714305 0.256893 0.429247 -0.134994
C77   C     C_3   0.294886 0.734087 0.558111 -0.134163
C78   C     C_3   0.788172 0.758440 0.571398 -0.138956
C79   C     C_3   0.210314 0.239929 0.429165 -0.129589
C80   C     C_3   0.203831 0.767035 0.445524 -0.132446
C81   C     C_R   0.080222 0.580284 0.500344 0.540886
C82   C     C_3   0.788133 0.240512 0.575192 -0.136627
C83   C     C_3   0.289969 0.207204 0.499639 0.026502
C84   C     C_3   0.708929 0.791792 0.500483 0.027383
C85   C     C_3   0.709785 0.207273 0.502036 0.028764
C86   C     C_3   0.290737 0.792064 0.501272 0.028393
C87   C     C_3   0.791755 0.708871 0.498740 0.027693
C88   C     C_3   0.207017 0.290011 0.500814 0.027616
C89   C     C_3   0.208048 0.709043 0.502178 0.029261
C90   C     C_3   0.792633 0.290149 0.502334 0.028387
C91   C     C_3   0.557461 0.009080 0.034853 0.197888
C92   C     C_R   0.080075 0.419580 0.500450 0.544353
C93   C     C_3   0.447809 0.997206 0.966379 0.169890
C94   C     C_3   0.057092 0.504082 0.034245 0.200378
C95   C     C_3   0.946471 0.502165 0.966739 0.163312
C96   C     C_3   0.500641 0.001273 0.092599 -0.004932
C97   C     C_3   0.504552 0.004482 0.907269 -0.068513
C98   C     C_3   0.000152 0.501279 0.092606 -0.008205
C99   C     C_3   0.003474 0.504473 0.907250 -0.068114
C100  C     C_3   0.710576 0.702412 0.717499 0.011329
C101  C     C_3   0.667669 0.693533 0.796473 -0.254108
C102  C     C_3   0.692820 0.650000 0.867167 -0.491343
C103  C     C_R   0.919822 0.580333 0.499534 0.544786
C104  C     C_3   0.295052 0.303512 0.289758 0.012175
C105  C     C_3   0.317392 0.295980 0.192483 -0.254649
C106  C     C_3   0.305813 0.351737 0.135221 -0.491437
C107  C     C_3   0.264749 0.727920 0.267573 0.015845
C108  C     C_3   0.288588 0.740471 0.172253 -0.257371
C109  C     C_3   0.259357 0.700082 0.101108 -0.488045
C110  C     C_3   0.704275 0.299327 0.715193 0.005257
C111  C     C_3   0.667682 0.297328 0.802404 -0.258323
C112  C     C_3   0.685185 0.347560 0.867239 -0.479317
C113  C     C_3   0.209957 0.204775 0.721459 0.008927
C114  C     C_1   0.336254 0.161932 0.498572 -0.020595
C115  C     C_3   0.163756 0.190365 0.794056 -0.250987
C116  C     C_3   0.190167 0.151983 0.870450 -0.490443
C117  C     C_3   0.801068 0.807520 0.292424 0.011529
C118  C     C_3   0.825688 0.801533 0.196203 -0.254876
C119  C     C_3   0.819588 0.859653 0.142725 -0.491105
C120  C     C_3   0.793838 0.201339 0.285736 0.013084
C121  C     C_3   0.839154 0.190255 0.210725 -0.252959
C122  C     C_3   0.814474 0.147978 0.138284 -0.486893
C123  C     C_3   0.229723 0.775185 0.735301 0.005792
C124  C     C_3   0.205580 0.761650 0.830230 -0.260613
Cu1   Cu    Cu3+1 0.500000 1.000000 0.590220 0.994957
Cu2   Cu    Cu3+1 0.500000 0.000000 0.409780 1.038269
Cu3   Cu    Cu3+1 0.000000 0.500000 0.590220 0.994216
Cu4   Cu    Cu3+1 0.000000 0.500000 0.409780 1.036314
H1    H     H_    0.202016 0.149552 0.514127 0.108683
H2    H     H_    0.317912 0.263243 0.630021 0.098764
H3    H     H_    0.439769 0.783285 0.078323 0.180532
H4    H     H_    0.367584 0.813839 0.049289 0.169384
H5    H     H_    0.377794 0.773810 0.889519 0.144503
H6    H     H_    0.382143 0.715904 0.974997 0.146890
H7    H     H_    0.449216 0.742093 0.921537 0.150335
H8    H     H_    0.914062 0.618066 0.930878 0.159977
H9    H     H_    0.964401 0.669891 0.986753 0.177909
H10   H     H_    0.833177 0.647173 0.036456 0.175876
H11   H     H_    0.882855 0.698833 0.092563 0.182042
H12   H     H_    0.893721 0.756085 0.947596 0.150106
H13   H     H_    0.332172 0.721741 0.604896 0.104425
H14   H     H_    0.816333 0.749467 0.978474 0.144597
H15   H     H_    0.845676 0.703452 0.888947 0.145422
H16   H     H_    0.045698 0.332185 0.009216 0.156990
H17   H     H_    0.085177 0.388293 0.073988 0.164728
H18   H     H_    0.138086 0.320044 0.912409 0.182869
H19   H     H_    0.176043 0.372261 0.985581 0.162586
H20   H     H_    0.157832 0.304726 0.120116 0.150150
H21   H     H_    0.199545 0.268530 0.031569 0.144377
H22   H     H_    0.121427 0.251993 0.044585 0.148086
H23   H     H_    0.098199 0.659364 0.861547 0.152656
H24   H     H_    0.683923 0.262480 0.369537 0.107071
H25   H     H_    0.050107 0.604355 0.816749 0.129099
H26   H     H_    0.172128 0.582802 0.915309 0.179354
H27   H     H_    0.126922 0.525157 0.864285 0.173797
H28   H     H_    0.209031 0.554455 0.762451 0.145283
H29   H     H_    0.183193 0.630425 0.761355 0.191725
H30   H     H_    0.137666 0.572266 0.711590 0.188396
H31   H     H_    0.952842 0.362556 0.930338 0.165210
H32   H     H_    0.880696 0.393306 0.959068 0.180703
H33   H     H_    0.938391 0.284067 0.050926 0.165367
H34   H     H_    0.865784 0.314840 0.073879 0.178780
H35   H     H_    0.179231 0.234010 0.370415 0.108346
H36   H     H_    0.834059 0.294634 0.912070 0.144056
H37   H     H_    0.857790 0.227825 0.970475 0.147735
H38   H     H_    0.906771 0.263099 0.889920 0.152251
H39   H     H_    0.819373 0.763998 0.630075 0.099248
H40   H     H_    0.818453 0.234848 0.634966 0.101759
H41   H     H_    0.166332 0.779505 0.399224 0.107410
H42   H     H_    0.363778 0.988826 0.985094 0.344468
H43   H     H_    0.642217 0.015567 0.020945 0.321967
H44   H     H_    0.862083 0.505073 0.985564 0.339119
H45   H     H_    0.796812 0.849657 0.489208 0.097255
H46   H     H_    0.141535 0.492633 0.021576 0.325074
H47   H     H_    0.753807 0.719198 0.745243 0.129110
H48   H     H_    0.717681 0.658490 0.684153 0.125967
H49   H     H_    0.659372 0.737013 0.829701 0.172074
H50   H     H_    0.624477 0.676174 0.769772 0.171737
H51   H     H_    0.701306 0.606013 0.835454 0.155661
H52   H     H_    0.660223 0.644020 0.922864 0.144686
H53   H     H_    0.735056 0.667449 0.896951 0.149230
H54   H     H_    0.316802 0.343263 0.320695 0.134660
H55   H     H_    0.245860 0.310731 0.286245 0.121899
H56   H     H_    0.797960 0.149586 0.492985 0.104467
H57   H     H_    0.366075 0.286669 0.194056 0.181300
H58   H     H_    0.294122 0.257603 0.160283 0.164646
H59   H     H_    0.257406 0.362070 0.132635 0.153635
H60   H     H_    0.321484 0.344399 0.064607 0.145382
H61   H     H_    0.330281 0.390303 0.164573 0.151526
H62   H     H_    0.215598 0.735062 0.266183 0.133111
H63   H     H_    0.274511 0.680671 0.285419 0.131147
H64   H     H_    0.279547 0.787667 0.153758 0.174525
H65   H     H_    0.337614 0.733187 0.172078 0.172620
H66   H     H_    0.268804 0.652634 0.117154 0.157985
H67   H     H_    0.207052 0.845768 0.553864 0.101056
H68   H     H_    0.277394 0.710444 0.032720 0.142022
H69   H     H_    0.210345 0.707238 0.099124 0.165739
H70   H     H_    0.697443 0.343392 0.681685 0.133819
H71   H     H_    0.752216 0.293899 0.734168 0.126622
H72   H     H_    0.619501 0.301354 0.784783 0.172589
H73   H     H_    0.674958 0.253953 0.837461 0.160709
H74   H     H_    0.733048 0.344001 0.886759 0.146293
H75   H     H_    0.658074 0.344608 0.929968 0.151256
H76   H     H_    0.676968 0.391479 0.834428 0.149488
H77   H     H_    0.249016 0.226862 0.754424 0.131895
H78   H     H_    0.703654 0.651256 0.510778 0.106040
H79   H     H_    0.224544 0.162072 0.690131 0.123524
H80   H     H_    0.146613 0.232349 0.823599 0.175035
H81   H     H_    0.125681 0.166334 0.761850 0.170047
H82   H     H_    0.207973 0.109732 0.842560 0.156083
H83   H     H_    0.154992 0.141279 0.920576 0.146558
H84   H     H_    0.226496 0.176313 0.906283 0.148609
H85   H     H_    0.823406 0.845725 0.326815 0.133949
H86   H     H_    0.752217 0.816388 0.286688 0.122881
H87   H     H_    0.873599 0.788990 0.200166 0.181734
H88   H     H_    0.800978 0.765796 0.159582 0.163230
H89   H     H_    0.294791 0.347823 0.487207 0.099087
H90   H     H_    0.772272 0.874128 0.139533 0.145373
H91   H     H_    0.835674 0.853068 0.072143 0.146847
H92   H     H_    0.846742 0.895135 0.175583 0.150365
H93   H     H_    0.752304 0.219691 0.254299 0.138621
H94   H     H_    0.783783 0.157883 0.319143 0.126185
H95   H     H_    0.850962 0.233200 0.177985 0.173951
H96   H     H_    0.880353 0.170746 0.241286 0.170987
H97   H     H_    0.802398 0.104581 0.169540 0.156127
H98   H     H_    0.848848 0.140091 0.085804 0.140001
H99   H     H_    0.774429 0.167628 0.104564 0.156249
H100  H     H_    0.291731 0.655482 0.449299 0.102186
H101  H     H_    0.216200 0.821224 0.715827 0.135304
H102  H     H_    0.279304 0.772203 0.738157 0.127270
H103  H     H_    0.156030 0.760971 0.827327 0.172195
H104  H     H_    0.221453 0.717085 0.852979 0.158750
H105  H     H_    0.275177 0.809002 0.905279 0.148177
H106  H     H_    0.207303 0.797160 0.967509 0.150684
H107  H     H_    0.209548 0.853038 0.879112 0.153781
H108  H     H_    0.404926 0.111334 0.930216 0.158460
H109  H     H_    0.454419 0.164529 0.985324 0.181852
H110  H     H_    0.323486 0.139933 0.033358 0.175073
H111  H     H_    0.704401 0.347828 0.511218 0.103112
H112  H     H_    0.372479 0.190545 0.093121 0.185149
H113  H     H_    0.385103 0.250663 0.951448 0.150679
H114  H     H_    0.307370 0.243372 0.979397 0.139505
H115  H     H_    0.338024 0.199173 0.888747 0.144538
H116  H     H_    0.568881 0.869250 0.062511 0.168105
H117  H     H_    0.638077 0.907308 0.037352 0.165595
H118  H     H_    0.590357 0.796435 0.937851 0.165224
H119  H     H_    0.660257 0.833683 0.917445 0.179308
H120  H     H_    0.692836 0.811274 0.078628 0.146933
H121  H     H_    0.675344 0.744710 0.015656 0.147673
H122  H     H_    0.681889 0.736935 0.368530 0.109119
H123  H     H_    0.623029 0.772939 0.097453 0.153306
H124  H     H_    0.581957 0.168781 0.861855 0.153526
H125  H     H_    0.539719 0.108984 0.817671 0.127007
H126  H     H_    0.664199 0.099059 0.913168 0.175856
H127  H     H_    0.625157 0.038615 0.857986 0.169751
H128  H     H_    0.630316 0.093418 0.708969 0.189274
H129  H     H_    0.703026 0.078769 0.757655 0.145081
H130  H     H_    0.671591 0.152430 0.764595 0.184938
H131  H     H_    0.483504 0.845908 0.951252 0.173456
H132  H     H_    0.410911 0.879940 0.935404 0.179173
N1    N     N_1   0.499980 0.000000 0.274190 -0.180365
N2    N     N_1   0.500020 1.000000 0.725810 -0.190644
N3    N     N_1   0.999980 0.500000 0.274190 -0.180604
N4    N     N_1   0.000020 0.500000 0.725810 -0.191432
O1    O     O_R   0.439540 0.939530 0.576170 -0.490884
O2    O     O_R   0.560470 0.060470 0.576200 -0.512601
O3    O     O_R   0.560470 0.939530 0.576200 -0.482131
O4    O     O_R   0.439530 0.060470 0.423800 -0.478933
O5    O     O_R   0.939530 0.439530 0.423800 -0.483844
O6    O     O_R   0.060470 0.560470 0.576200 -0.512219
O7    O     O_R   0.060470 0.439530 0.576200 -0.483185
O8    O     O_R   0.939530 0.560470 0.423800 -0.480026
O9    O     O_3   0.389814 0.992152 0.931164 -0.717087
O10   O     O_3   0.614481 0.016093 0.072956 -0.695487
O11   O     O_3   0.888227 0.502940 0.931635 -0.723823
O12   O     O_R   0.560460 0.060470 0.423830 -0.483550
O13   O     O_3   0.114865 0.505237 0.071281 -0.690572
O14   O     O_3   0.685897 0.744264 0.655809 -0.554768
O15   O     O_3   0.310088 0.252327 0.341217 -0.552371
O16   O     O_3   0.292768 0.766599 0.330492 -0.552819
O17   O     O_3   0.685123 0.253141 0.656883 -0.573432
O18   O     O_3   0.184014 0.243667 0.656502 -0.554790
O19   O     O_3   0.813048 0.754667 0.341569 -0.553083
O20   O     O_3   0.817910 0.242658 0.348405 -0.554748
O21   O     O_3   0.205762 0.733746 0.672743 -0.576493
O22   O     O_3   0.431482 0.092282 0.065287 -0.551970
O23   O     O_R   0.560460 0.939530 0.423830 -0.497008
O24   O     O_3   0.573291 0.912580 0.935539 -0.582467
O25   O     O_3   0.551791 0.112341 0.959632 -0.562125
O26   O     O_3   0.454003 0.897386 0.059638 -0.575065
O27   O     O_3   0.939631 0.598279 0.066541 -0.553498
O28   O     O_3   0.065232 0.407731 0.935241 -0.582373
O29   O     O_3   0.060021 0.607696 0.958904 -0.559201
O30   O     O_3   0.945969 0.401039 0.059889 -0.576577
O31   O     O_R   0.439540 0.060470 0.576170 -0.498904
O32   O     O_R   0.939540 0.439530 0.576170 -0.490455
O33   O     O_R   0.060460 0.560470 0.423830 -0.484352
O34   O     O_R   0.060460 0.439530 0.423830 -0.495997
O35   O     O_R   0.939540 0.560470 0.576170 -0.497626
O36   O     O_R   0.439530 0.939530 0.423800 -0.483023

loop_
_geom_bond_atom_site_label_1
_geom_bond_atom_site_label_2
_ccdc_geom_bond_type
C22   H22   S    
C12   H128  S    
C4    H108  S    
C20   H16   S    
C109  H69   S    
C112  H74   S    
C40   C93   S    
C51   C85   S    
C39   C41   S    
C110  O17   S    
C78   H39   S    
C56   C79   S    
C9    H123  S    
C34   C96   S    
C14   H131  S    
C58   C82   S    
C5    C6    S    
C95   C99   S    
C1    C68   S    
C108  C109  S    
C109  H68   S    
C110  C111  S    
C7    O24   S    
C3    H107  S    
C91   C96   S    
C15   H4    S    
Cu3   O6    S    
Cu1   N2    S    
C14   O26   S    
C4    H109  S    
C6    H113  S    
C118  H87   S    
C74   C83   S    
C56   H1    S    
C61   H78   S    
C49   O15   S    
C44   O30   S    
C21   C22   S    
C83   C114  S    
C53   C75   S    
C39   C91   S    
C104  C105  S    
Cu1   O31   S    
C44   C46   S    
C5    H110  S    
C42   C97   S    
C92   O7    A    
C60   C86   S    
C17   O27   S    
C122  H97   S    
C62   C88   S    
C29   H38   S    
C62   H89   S    
C100  H47   S    
C117  H85   S    
C124  H104  S    
C57   H45   S    
C33   C73   T    
C22   H20   S    
C43   O29   S    
C112  H76   S    
C30   C69   T    
C56   C83   S    
Cu2   O12   S    
C120  H94   S    
C49   C62   S    
Cu1   O1    S    
C25   H26   S    
C57   C78   S    
C51   C64   S    
C43   C99   S    
C4    C5    S    
C21   H18   S    
C3    H105  S    
C107  H62   S    
C81   O6    A    
C26   H30   S    
C10   H124  S    
C37   O2    A    
C77   H13   S    
C104  H55   S    
H44   O11   S    
C55   C89   S    
C13   C85   S    
C94   C98   S    
C17   H9    S    
C30   C87   S    
C76   C85   S    
C113  C115  S    
C78   C87   S    
C5    H112  S    
C39   O25   S    
C10   H125  S    
C102  H52   S    
C1    O36   A    
C111  C112  S    
C16   H6    S    
C111  H73   S    
C123  C124  S    
C35   N2    T    
C54   C90   S    
C116  H83   S    
C52   C74   S    
C48   O23   A    
C75   C84   S    
C41   C96   S    
C27   H31   S    
C115  C116  S    
C50   O16   S    
C11   H126  S    
Cu3   N4    S    
Cu4   N3    S    
C9    H120  S    
C101  H50   S    
C61   C87   S    
C44   C98   S    
C71   C92   S    
C8    H119  S    
C107  C108  S    
C75   H122  S    
C113  O18   S    
C31   C71   T    
Cu3   O7    S    
C115  H80   S    
Cu1   O3    S    
C50   C63   S    
Cu4   O8    S    
Cu2   O4    S    
C107  O16   S    
C28   H33   S    
C69   C103  S    
C64   C76   S    
C20   O28   S    
C36   N3    T    
C52   C88   S    
C48   O3    A    
C25   C26   S    
Cu2   N1    S    
C113  H77   S    
C105  H58   S    
C93   O9    S    
C111  H72   S    
C46   C94   S    
C63   C89   S    
C54   C58   S    
C17   C18   S    
C45   O27   S    
C53   C87   S    
C20   C21   S    
C43   C45   S    
C119  H92   S    
C12   H129  S    
C45   C95   S    
C93   C97   S    
C120  C121  S    
C60   C80   S    
C34   N1    T    
C91   O10   S    
C2    C66   T    
C50   C80   S    
C7    H117  S    
C14   H132  S    
C117  C118  S    
C59   C65   S    
C123  H102  S    
C37   C67   S    
C100  C101  S    
C121  H96   S    
C10   C11   S    
Cu3   O35   S    
H46   O13   S    
C15   H3    S    
C107  H63   S    
C14   C15   S    
C108  H64   S    
C118  H88   S    
C47   C78   S    
C48   C66   S    
H42   O9    S    
C24   C86   S    
C60   H67   S    
C104  H54   S    
C46   C99   S    
C101  C102  S    
C110  H70   S    
C2    C84   S    
C64   C90   S    
Cu4   O33   S    
C32   C72   T    
C82   H40   S    
C103  O35   A    
C113  H79   S    
C28   C29   S    
C106  H59   S    
C45   C98   S    
C37   O12   A    
C13   C67   T    
C39   C97   S    
C76   H24   S    
C122  H98   S    
C55   O21   S    
C95   O11   S    
C58   H56   S    
C18   C19   S    
Cu4   O5    S    
C29   H37   S    
C80   C89   S    
C18   H10   S    
C116  H82   S    
C41   C93   S    
C7    H116  S    
C100  H48   S    
C119  H90   S    
C11   H127  S    
C40   O26   S    
C72   C81   S    
C22   H21   S    
C8    H118  S    
C55   C60   S    
C29   H36   S    
C80   H41   S    
C40   C96   S    
C104  O15   S    
C79   C88   S    
C53   O19   S    
C115  H81   S    
C7    C8    S    
C53   C57   S    
C70   O5    A    
C4    O22   S    
C49   C79   S    
C92   O34   A    
C32   C89   S    
C70   C73   S    
C57   C84   S    
C46   O28   S    
C47   C84   S    
C121  C122  S    
C19   H14   S    
Cu1   Cu2   S    
Cu3   Cu4   S    
C3    C124  S    
C31   C88   S    
C100  O14   S    
C102  H53   S    
C38   C99   S    
C47   C61   S    
C63   H100  S    
C105  C106  S    
C82   C90   S    
C49   C83   S    
C116  H84   S    
C117  H86   S    
C124  H103  S    
C101  H49   S    
C24   C68   T    
C120  O20   S    
C59   O31   A    
C44   C95   S    
C20   H17   S    
C62   C74   S    
C112  H75   S    
C23   O29   S    
Cu3   O32   S    
C120  H93   S    
Cu1   O2    S    
C25   H27   S    
C65   C114  T    
C26   H28   S    
C43   C94   S    
C28   H34   S    
C61   C75   S    
C59   O4    A    
C21   H19   S    
C3    H106  S    
C55   C77   S    
Cu2   O36   S    
C15   C16   S    
C26   H29   S    
C42   C91   S    
C105  H57   S    
C118  C119  S    
C64   H111  S    
C123  O21   S    
C19   H12   S    
C70   O32   A    
C47   O14   S    
Cu2   O23   S    
C119  H91   S    
C102  H51   S    
C12   H130  S    
C16   H5    S    
C10   O25   S    
C54   O20   S    
C8    C9    S    
C27   H32   S    
C117  O19   S    
C9    H121  S    
C81   O33   A    
C38   N4    T    
C123  H101  S    
C17   H8    S    
C121  H95   S    
C109  H66   S    
C41   O22   S    
C51   C82   S    
C54   C76   S    
C77   C86   S    
C74   H2    S    
C6    H115  S    
C27   O30   S    
C58   C85   S    
C63   C77   S    
C23   H23   S    
C19   H15   S    
C110  H71   S    
C6    H114  S    
C79   H35   S    
C36   C98   S    
C11   C12   S    
Cu4   O34   S    
C103  O8    A    
C23   H25   S    
C106  H60   S    
H43   O10   S    
C33   C90   S    
C94   O13   S    
C122  H99   S    
C40   C42   S    
C23   C25   S    
C18   H11   S    
C50   C86   S    
C52   O18   S    
C1    O1    A    
C27   C28   S    
C51   O17   S    
C106  H61   S    
C108  H65   S    
C35   C97   S    
C16   H7    S    
C42   O24   S    
C52   C56   S    
