data_mof_unit_2518.cif
_audit_creation_date              2012-12-11T16:45:38-0500
_audit_creation_method            fapswitch 2.2
_symmetry_space_group_name_H-M    P1
_symmetry_Int_Tables_number       1
_space_group_crystal_system       triclinic
_cell_length_a                    19.765926
_cell_length_b                    17.115121
_cell_length_c                    15.470185
_cell_angle_alpha                 90.001037
_cell_angle_beta                  52.879328
_cell_angle_gamma                 89.999684
_cell_volume                      4173.0202437

loop_
_atom_site_label
_atom_site_type_symbol
_atom_type_description
_atom_site_fract_x
_atom_site_fract_y
_atom_site_fract_z
_atom_type_partial_charge
C1    C     C_R   0.840051 0.673084 0.045747 -0.069458
C2    C     C_R   0.151318 0.311528 0.069835 0.149206
C3    C     C_R   0.348681 0.811527 0.930166 0.149137
C4    C     C_R   0.651316 0.811527 0.069836 0.149183
C5    C     C_R   0.896437 0.688265 0.295785 -0.192306
C6    C     C_R   0.103509 0.688259 0.704234 -0.192428
C7    C     C_R   0.396433 0.188258 0.295794 -0.192410
C8    C     C_R   0.603549 0.188258 0.704217 -0.192450
C9    C     C_R   0.880516 0.795864 0.410835 0.017065
C10   C     C_R   0.119609 0.796110 0.589423 0.015982
C11   C     C_R   0.380484 0.295952 0.410734 0.016793
C12   C     C_R   0.159948 0.673083 0.954253 -0.069482
C13   C     C_R   0.619558 0.295990 0.589303 0.016482
C14   C     C_R   0.845841 0.734917 0.389840 0.064468
C15   C     C_R   0.154145 0.734857 0.610136 0.064752
C16   C     C_R   0.345837 0.234904 0.389858 0.064591
C17   C     C_R   0.654163 0.234883 0.610142 0.064630
C18   C     C_R   0.258488 0.220798 0.457724 -0.181711
C19   C     C_R   0.741490 0.220701 0.542231 -0.181542
C20   C     C_R   0.758471 0.720921 0.457586 -0.181768
C21   C     C_R   0.241435 0.720486 0.542071 -0.181382
C22   C     C_R   0.207688 0.261451 0.553863 -0.123404
C23   C     C_R   0.340051 0.173084 0.045747 -0.069471
C24   C     C_R   0.792304 0.261345 0.446093 -0.123735
C25   C     C_R   0.707664 0.761553 0.553741 -0.124036
C26   C     C_R   0.292261 0.761132 0.445939 -0.123557
C27   C     C_R   0.244789 0.315648 0.581325 0.169730
C28   C     C_R   0.755237 0.315610 0.418675 0.169531
C29   C     C_R   0.744778 0.815619 0.581337 0.169521
C30   C     C_R   0.255244 0.815583 0.418674 0.169507
C31   C     C_R   0.829742 0.836469 0.507114 -0.013029
C32   C     C_R   0.170404 0.836725 0.493155 -0.013256
C33   C     C_R   0.329716 0.336577 0.507000 -0.013423
C34   C     C_R   0.659947 0.173083 0.954256 -0.069476
C35   C     C_R   0.670340 0.336607 0.493037 -0.013182
C36   C     C_3   0.897242 0.839425 0.522877 -0.551831
C37   C     C_3   0.102754 0.840142 0.477700 -0.552002
C38   C     C_3   0.397269 0.339680 0.522655 -0.551950
C39   C     C_3   0.602761 0.339810 0.477436 -0.551917
C40   C     C_R   0.853401 0.325211 0.220175 0.465514
C41   C     C_R   0.146619 0.325225 0.779826 0.465509
C42   C     C_R   0.353416 0.825199 0.220175 0.465469
C43   C     C_R   0.646610 0.825218 0.779829 0.465578
C44   C     C_3   0.953381 0.794567 0.416662 0.389009
C45   C     C_R   0.809895 0.358629 0.321484 -0.188861
C46   C     C_3   0.046593 0.795267 0.583883 0.389969
C47   C     C_3   0.453401 0.294799 0.416461 0.389408
C48   C     C_3   0.546614 0.294935 0.583627 0.389577
C49   C     C_2   0.784270 0.184652 0.958511 -0.166473
C50   C     C_2   0.215726 0.184651 0.041497 -0.166557
C51   C     C_2   0.284271 0.684652 0.958507 -0.166467
C52   C     C_2   0.715725 0.684650 0.041496 -0.166588
C53   C     C_2   0.309762 0.753114 0.905106 -0.205414
C54   C     C_2   0.690231 0.753113 0.094901 -0.205372
C55   C     C_2   0.809763 0.253113 0.905106 -0.205391
C56   C     C_R   0.190149 0.358666 0.678529 -0.188867
C57   C     C_2   0.190233 0.253115 0.094900 -0.205381
C58   C     C_R   0.865685 0.388629 0.896701 -0.150257
C59   C     C_R   0.134314 0.388631 0.103300 -0.150253
C60   C     C_R   0.365685 0.888630 0.896701 -0.150324
C61   C     C_R   0.634313 0.888630 0.103300 -0.150186
C62   C     C_R   0.913435 0.611296 0.298042 0.546644
C63   C     C_R   0.086527 0.611288 0.701984 0.546446
C64   C     C_R   0.413435 0.111291 0.298043 0.546591
C65   C     C_R   0.586552 0.111290 0.701967 0.546701
C66   C     C_R   0.877549 0.298918 0.990125 -0.063828
C67   C     C_R   0.309919 0.858604 0.321490 -0.188903
C68   C     C_R   0.122451 0.298917 0.009876 -0.063936
C69   C     C_R   0.377549 0.798918 0.990124 -0.063781
C70   C     C_R   0.622450 0.798917 0.009875 -0.063928
C71   C     C_R   0.900790 0.699109 0.204888 0.418958
C72   C     C_R   0.099183 0.699110 0.795116 0.419074
C73   C     C_R   0.400787 0.199107 0.204894 0.419029
C74   C     C_R   0.599202 0.199107 0.795112 0.419030
C75   C     C_R   0.858230 0.420691 0.314196 0.404263
C76   C     C_R   0.141806 0.420722 0.685820 0.404090
C77   C     C_R   0.358247 0.920672 0.314206 0.404382
C78   C     C_R   0.690126 0.858643 0.678527 -0.188806
C79   C     C_R   0.641784 0.920698 0.685811 0.404199
C80   C     C_R   0.830348 0.581088 0.950037 -0.118380
C81   C     C_R   0.169652 0.581089 0.049963 -0.118247
C82   C     C_R   0.330347 0.081088 0.950038 -0.118350
C83   C     C_R   0.669651 0.081089 0.049964 -0.118275
C84   C     C_R   0.789103 0.644498 0.019686 0.106922
C85   C     C_R   0.210895 0.644498 0.980316 0.106922
C86   C     C_R   0.289103 0.144498 0.019687 0.106916
C87   C     C_R   0.710895 0.144499 0.980318 0.106952
C88   C     C_R   0.848681 0.311527 0.930166 0.149151
H1    H     H_    0.970899 0.734920 0.425383 0.142092
H2    H     H_    0.138977 0.415192 0.162969 0.110157
H3    H     H_    0.361020 0.915189 0.837034 0.110153
H4    H     H_    0.638976 0.915190 0.162970 0.110129
H5    H     H_    0.889465 0.242897 0.009860 0.101971
H6    H     H_    0.110533 0.242895 0.990147 0.101915
H7    H     H_    0.389465 0.742897 0.009857 0.101972
H8    H     H_    0.610535 0.742896 0.990139 0.101958
H9    H     H_    0.829910 0.723764 0.093199 0.160547
H10   H     H_    0.170086 0.723760 0.906800 0.160548
H11   H     H_    0.329911 0.223764 0.093199 0.160560
H12   H     H_    0.028791 0.735753 0.575182 0.141459
H13   H     H_    0.670086 0.223762 0.906806 0.160549
H14   H     H_    0.140187 0.249375 0.608078 0.130064
H15   H     H_    0.859788 0.249216 0.391848 0.130117
H16   H     H_    0.640142 0.749560 0.607866 0.130117
H17   H     H_    0.359713 0.748869 0.391587 0.130116
H18   H     H_    0.918705 0.900135 0.519573 0.209592
H19   H     H_    0.081505 0.900968 0.481145 0.209163
H20   H     H_    0.418677 0.400425 0.519287 0.209399
H21   H     H_    0.581406 0.400581 0.480825 0.209323
H22   H     H_    0.880134 0.805032 0.594505 0.234304
H23   H     H_    0.470999 0.235196 0.425194 0.141866
H24   H     H_    0.119593 0.805884 0.406106 0.234936
H25   H     H_    0.380238 0.305340 0.594284 0.234622
H26   H     H_    0.619736 0.305493 0.405817 0.234727
H27   H     H_    0.003538 0.888711 0.325831 0.327545
H28   H     H_    0.996938 0.889350 0.674955 0.327507
H29   H     H_    0.503416 0.388907 0.325523 0.327522
H30   H     H_    0.496718 0.389037 0.674615 0.327516
H31   H     H_    0.805968 0.164607 0.004395 0.143415
H32   H     H_    0.194027 0.164604 0.995614 0.143413
H33   H     H_    0.305971 0.664606 0.004389 0.143427
H34   H     H_    0.528952 0.235360 0.574905 0.141741
H35   H     H_    0.694027 0.664603 0.995612 0.143404
H36   H     H_    0.899904 0.230140 0.141024 0.294837
H37   H     H_    0.100110 0.230159 0.858989 0.294829
H38   H     H_    0.399922 0.730140 0.140999 0.294823
H39   H     H_    0.600109 0.730143 0.858960 0.294861
H40   H     H_    0.977296 0.537352 0.315587 0.341062
H41   H     H_    0.022695 0.537306 0.684438 0.341041
H42   H     H_    0.477312 0.037355 0.315569 0.341044
H43   H     H_    0.522702 0.037332 0.684421 0.341025
H44   H     H_    0.896402 0.811814 0.209162 0.324075
H45   H     H_    0.289765 0.772315 0.857000 0.135646
H46   H     H_    0.103515 0.811814 0.790877 0.324104
H47   H     H_    0.396431 0.311812 0.209151 0.324109
H48   H     H_    0.603567 0.311811 0.790854 0.324098
H49   H     H_    0.789086 0.448230 0.465929 0.323931
H50   H     H_    0.211103 0.448469 0.534175 0.323890
H51   H     H_    0.289134 0.948161 0.465970 0.323887
H52   H     H_    0.710945 0.948206 0.534054 0.323857
H53   H     H_    0.809697 0.547472 0.910680 0.115041
H54   H     H_    0.190304 0.547475 0.089319 0.115047
H55   H     H_    0.309697 0.047473 0.910681 0.115038
H56   H     H_    0.710226 0.772315 0.143010 0.135633
H57   H     H_    0.690303 0.047475 0.089321 0.115042
H58   H     H_    0.230546 0.176389 0.438173 0.127950
H59   H     H_    0.769403 0.176243 0.561753 0.127973
H60   H     H_    0.730514 0.676604 0.437937 0.127962
H61   H     H_    0.269302 0.675895 0.561482 0.127905
H62   H     H_    0.789768 0.272313 0.856997 0.135641
H63   H     H_    0.210228 0.272316 0.143009 0.135646
H64   H     H_    0.861021 0.415187 0.837033 0.110145
N1    N     N_R   0.908660 0.628630 0.995840 -0.040902
N2    N     N_R   0.096530 0.421430 0.063580 -0.049856
N3    N     N_R   0.403470 0.921430 0.936420 -0.049853
N4    N     N_R   0.596530 0.921430 0.063580 -0.049852
N5    N     N_R   0.927500 0.575670 0.211370 -0.140586
N6    N     N_R   0.072500 0.575670 0.788630 -0.140609
N7    N     N_R   0.427500 0.075670 0.211370 -0.140599
N8    N     N_R   0.572500 0.075670 0.788630 -0.140584
N9    N     N_R   0.908660 0.365680 0.995820 -0.060409
N10   N     N_R   0.091340 0.365680 0.004180 -0.060425
N11   N     N_R   0.408660 0.865680 0.995820 -0.060407
N12   N     N_R   0.091340 0.628630 0.004160 -0.040899
N13   N     N_R   0.591340 0.865680 0.004180 -0.060403
N14   N     N_R   0.922310 0.631420 0.151980 -0.104413
N15   N     N_R   0.077690 0.631420 0.848020 -0.104418
N16   N     N_R   0.422310 0.131420 0.151980 -0.104413
N17   N     N_R   0.577690 0.131420 0.848020 -0.104410
N18   N     N_R   0.927500 0.426330 0.211360 -0.103796
N19   N     N_R   0.072500 0.426330 0.788640 -0.103772
N20   N     N_R   0.427500 0.926330 0.211360 -0.103815
N21   N     N_R   0.572500 0.926330 0.788640 -0.103803
N22   N     N_R   0.903470 0.570760 0.936440 -0.062525
N23   N     N_R   0.408660 0.128630 0.995840 -0.040903
N24   N     N_R   0.096530 0.570760 0.063560 -0.062538
N25   N     N_R   0.403470 0.070760 0.936440 -0.062531
N26   N     N_R   0.596530 0.070760 0.063560 -0.062541
N27   N     N_R   0.591340 0.128630 0.004160 -0.040900
N28   N     N_R   0.922310 0.368460 0.151950 -0.138839
N29   N     N_R   0.077690 0.368460 0.848050 -0.138839
N30   N     N_R   0.422310 0.868460 0.151950 -0.138839
N31   N     N_R   0.577690 0.868460 0.848050 -0.138844
N32   N     N_R   0.903470 0.421430 0.936420 -0.049851
Ni1   Ni    Ni4+2 0.000000 0.630300 0.000000 0.295824
Ni2   Ni    Ni4+2 0.500000 0.130300 0.000000 0.295830
Ni3   Ni    Ni4+2 1.000000 0.369700 0.000000 0.163222
Ni4   Ni    Ni4+2 0.500000 0.869700 0.000000 0.163236
Ni5   Ni    Ni4+2 0.988090 0.497570 0.863760 0.211620
Ni6   Ni    Ni4+2 0.011910 0.497570 0.136240 0.211641
Ni7   Ni    Ni4+2 0.488090 0.997570 0.863760 0.211622
Ni8   Ni    Ni4+2 0.511910 0.997570 0.136240 0.211639
O1    O     O_3   0.023754 0.837628 0.332767 -0.734486
O2    O     O_3   0.056072 0.585315 0.647265 -0.708809
O3    O     O_3   0.443882 0.085336 0.352777 -0.708973
O4    O     O_3   0.556104 0.085328 0.647235 -0.708944
O5    O     O_3   0.907083 0.769836 0.158148 -0.740460
O6    O     O_3   0.092907 0.769838 0.841846 -0.740487
O7    O     O_3   0.407073 0.269836 0.158162 -0.740493
O8    O     O_3   0.592919 0.269836 0.841845 -0.740492
O9    O     O_3   0.845729 0.461821 0.399037 -0.739234
O10   O     O_3   0.154331 0.461856 0.600970 -0.739256
O11   O     O_3   0.345760 0.961796 0.399042 -0.739181
O12   O     O_3   0.976453 0.838468 0.667915 -0.734290
O13   O     O_3   0.654304 0.961839 0.600967 -0.739199
O14   O     O_3   0.523706 0.337886 0.332503 -0.734445
O15   O     O_3   0.476362 0.338064 0.667601 -0.734392
O16   O     O_3   0.842884 0.249291 0.201746 -0.744967
O17   O     O_3   0.157131 0.249292 0.798220 -0.744954
O18   O     O_3   0.342904 0.749283 0.201728 -0.744959
O19   O     O_3   0.657127 0.749295 0.798244 -0.745019
O20   O     O_3   0.943877 0.585341 0.352782 -0.709050

loop_
_geom_bond_atom_site_label_1
_geom_bond_atom_site_label_2
_ccdc_geom_bond_type
C54   H56   S    
C21   C26   A    
C40   O16   S    
N25   Ni7   S    
N14   Ni1   S    
H50   O10   S    
C79   N21   A    
C83   C87   A    
H43   O4    S    
C67   C77   A    
C80   C84   A    
H52   O13   S    
C51   C85   S    
C4    C70   A    
H41   O2    S    
C75   O9    S    
C2    C57   S    
N23   N25   A    
N27   Ni2   S    
N20   Ni8   S    
C43   C78   A    
C6    C72   A    
N12   Ni1   S    
C44   O1    S    
N1    Ni1   S    
C12   C85   A    
C56   C76   A    
C3    C69   A    
N17   Ni2   S    
C13   C35   A    
C2    C68   A    
C10   C15   A    
C73   N16   A    
C48   H34   S    
N10   Ni3   S    
C52   H35   S    
C76   O10   S    
C23   N23   A    
C20   C25   A    
N15   Ni1   S    
C64   O3    S    
C73   O7    S    
N7    N16   A    
N19   Ni5   S    
C58   N32   A    
C55   C88   S    
C52   C84   S    
C49   C87   S    
N5    Ni6   S    
C74   N17   A    
C6    C15   S    
C83   H57   S    
C11   C47   S    
C29   C78   S    
C28   C35   A    
C58   H64   S    
C37   H24   S    
C23   C86   A    
C82   N25   A    
C10   C46   S    
N8    N17   A    
C20   H60   S    
C71   O5    S    
N9    Ni3   S    
C21   H61   S    
C43   O19   S    
C12   H10   S    
C30   C67   S    
C42   O18   S    
C61   H4    S    
C65   O4    S    
C41   O17   S    
C3    C60   A    
C46   O12   S    
N2    Ni6   S    
C8    C65   A    
C40   N28   A    
H36   O16   S    
C38   H20   S    
C41   N29   A    
C34   N27   A    
C65   N8    A    
C77   O11   S    
C26   H17   S    
H28   O12   S    
C59   N2    A    
C52   C54   D    
N6    N15   A    
N26   N27   A    
C9    C31   A    
N1    N22   A    
C23   H11   S    
C25   C29   A    
C40   C45   A    
C28   C45   S    
C63   O2    S    
C34   H13   S    
N16   Ni2   S    
C36   H18   S    
N13   Ni4   S    
C81   N24   A    
C14   C20   A    
C11   C33   A    
C53   H45   S    
C7    C73   A    
H42   O3    S    
H38   O18   S    
C70   N13   A    
C1    H9    S    
C38   H25   S    
H37   O17   S    
C78   C79   A    
C18   H58   S    
C82   C86   A    
C4    C61   A    
C71   N14   A    
C19   H59   S    
C66   N9    A    
N18   N28   A    
N11   Ni4   S    
C1    C84   A    
C59   H2    S    
C6    C63   A    
C76   N19   A    
C70   H8    S    
C9    C14   A    
C41   C56   A    
N28   Ni3   S    
N20   N30   A    
C12   N12   A    
N26   Ni8   S    
C11   C16   A    
N24   Ni6   S    
C39   H21   S    
C39   H26   S    
C75   N18   A    
C8    C74   A    
C38   C47   S    
C62   N5    A    
C16   C18   A    
N30   Ni4   S    
C32   C37   S    
C27   C56   S    
C66   C88   A    
C1    N1    A    
C5    C14   S    
N3    Ni7   S    
C83   N26   A    
C66   H5    S    
N4    Ni8   S    
H39   O19   S    
C7    C16   S    
C74   O8    S    
H29   O14   S    
C4    C54   S    
C22   C27   A    
C36   H22   S    
C42   C67   A    
C51   H33   S    
C72   N15   A    
C50   H32   S    
N6    Ni5   S    
C61   N4    A    
N2    N10   A    
H47   O7    S    
H46   O6    S    
C55   H62   S    
C60   H3    S    
N29   Ni3   S    
C46   H12   S    
C81   H54   S    
C9    C44   S    
C47   O14   S    
C69   N11   A    
C2    C59   A    
C50   C57   D    
N7    Ni8   S    
N19   N29   A    
C24   C28   A    
N8    Ni7   S    
C82   H55   S    
C69   H7    S    
C58   C88   A    
N5    N14   A    
C13   C48   S    
C25   H16   S    
C37   H19   S    
C68   N10   A    
N18   Ni6   S    
N12   N24   A    
C33   C38   S    
C22   H14   S    
C13   C17   A    
C45   C75   A    
C24   H15   S    
N3    N11   A    
N9    N32   A    
C18   C22   A    
C19   C24   A    
C60   N3    A    
C80   N22   A    
C29   C31   A    
C49   C55   D    
N31   Ni4   S    
H40   O20   S    
C8    C17   S    
C30   C32   A    
C3    C53   S    
C49   H31   S    
H49   O9    S    
N4    N13   A    
C42   N30   A    
C77   N20   A    
C47   H23   S    
C35   C39   S    
C57   H63   S    
C64   N7    A    
C43   N31   A    
H44   O5    S    
C17   C19   A    
N21   Ni7   S    
C5    C62   A    
H30   O15   S    
C34   C87   A    
H27   O1    S    
C68   H6    S    
C7    C64   A    
H48   O8    S    
C36   C44   S    
C50   C86   S    
N22   Ni5   S    
C72   O6    S    
C10   C32   A    
C15   C21   A    
N21   N31   A    
C5    C71   A    
C80   H53   S    
C27   C33   A    
C62   O20   S    
C31   C36   S    
C39   C48   S    
H51   O11   S    
C63   N6    A    
C51   C53   D    
C37   C46   S    
C48   O15   S    
N32   Ni5   S    
C81   C85   A    
C44   H1    S    
C79   O13   S    
N23   Ni2   S    
C26   C30   A    
