data_mof_unit_2396.cif
_audit_creation_date              2012-12-10T17:19:55-0500
_audit_creation_method            fapswitch 2.2
_symmetry_space_group_name_H-M    P1
_symmetry_Int_Tables_number       1
_space_group_crystal_system       triclinic
_cell_length_a                    9.613317
_cell_length_b                    10.770599
_cell_length_c                    15.589302
_cell_angle_alpha                 87.58823
_cell_angle_beta                  73.496703
_cell_angle_gamma                 89.967677
_cell_volume                      1546.1576973

loop_
_atom_site_label
_atom_site_type_symbol
_atom_type_description
_atom_site_fract_x
_atom_site_fract_y
_atom_site_fract_z
_atom_type_partial_charge
C1    C     C_R   0.998639 0.262642 0.503022 0.783147
C2    C     C_R   0.678392 0.495773 0.910759 0.045056
C3    C     C_R   0.783351 0.492983 0.958396 0.144367
C4    C     C_R   0.533395 0.526252 0.956203 0.055971
C5    C     C_R   0.486921 0.518517 0.050965 0.071300
C6    C     C_R   0.592605 0.502315 0.097713 -0.220077
C7    C     C_R   0.739154 0.494292 0.051700 -0.223526
C8    C     C_R   0.437808 0.574274 0.909400 -0.244636
C9    C     C_R   0.294975 0.601428 0.954149 -0.241805
C10   C     C_R   0.242287 0.577511 0.046383 0.173297
C11   C     C_R   0.337206 0.532718 0.095310 0.088462
C12   C     C_R   0.917050 0.494103 0.672114 0.775673
C13   C     C_R   0.095875 0.598592 0.090562 -0.221925
C14   C     C_R   0.040940 0.570338 0.182085 -0.213015
C15   C     C_R   0.278725 0.501832 0.186718 -0.254256
C16   C     C_R   0.073861 0.120577 0.647403 -0.194368
C17   C     C_R   0.111860 0.051461 0.714795 -0.135435
C18   C     C_R   0.112185 0.922306 0.714669 -0.134605
C19   C     C_R   0.074439 0.861450 0.647166 -0.172755
C20   C     C_R   0.037504 0.929613 0.577351 0.102041
C21   C     C_R   0.037317 0.060946 0.577460 0.097027
C22   C     C_R   0.995566 0.128468 0.509130 -0.102337
C23   C     C_R   0.998693 0.737049 0.502771 0.770476
C24   C     C_R   0.948385 0.067479 0.445102 -0.189891
C25   C     C_R   0.948446 0.939413 0.445016 -0.206982
C26   C     C_R   0.995675 0.870490 0.508974 -0.089832
C27   C     C_R   0.698724 0.665309 0.381460 -0.155545
C28   C     C_R   0.653797 0.745903 0.323071 -0.223749
C29   C     C_R   0.510419 0.746478 0.323166 -0.199525
C30   C     C_R   0.411074 0.666418 0.381611 -0.142546
C31   C     C_R   0.451980 0.582105 0.442154 0.206735
C32   C     C_R   0.601453 0.581924 0.442179 0.216743
C33   C     C_R   0.549235 0.419689 0.553171 -0.079283
C34   C     C_R   0.082862 0.503747 0.328185 0.780992
C35   C     C_R   0.401239 0.420480 0.553818 -0.063606
C36   C     C_R   0.870208 0.484733 0.770977 -0.053153
C37   C     C_R   0.132361 0.521666 0.230473 -0.044370
C38   C     C_R   0.930844 0.489447 0.911673 -0.217207
C39   C     C_R   0.973811 0.494502 0.818410 -0.253516
C40   C     C_R   0.722369 0.465511 0.819680 0.098408
Cu1   Cu    Cu3+1 0.140660 0.499990 0.500010 0.923423
Cu2   Cu    Cu3+1 0.859340 0.500010 0.499990 0.930605
H1    H     H_    0.817790 0.487889 0.089436 0.150691
H2    H     H_    0.024148 0.637937 0.054421 0.134584
H3    H     H_    0.914458 0.119544 0.393624 0.152454
H4    H     H_    0.139454 0.098320 0.767949 0.134479
H5    H     H_    0.140035 0.868927 0.767736 0.132581
H6    H     H_    0.071931 0.761043 0.651504 0.152351
H7    H     H_    0.914612 0.893803 0.393453 0.137848
H8    H     H_    0.584442 0.352297 0.595607 0.148449
H9    H     H_    0.811175 0.671725 0.375382 0.191556
H10   H     H_    0.731242 0.808187 0.277221 0.148357
H11   H     H_    0.345088 0.459466 0.224963 0.156149
H12   H     H_    0.475630 0.809316 0.277425 0.155238
H13   H     H_    0.304179 0.674579 0.375751 0.199381
H14   H     H_    0.325865 0.355168 0.597986 0.134307
H15   H     H_    0.928182 0.588943 0.215128 0.151293
H16   H     H_    0.224857 0.638791 0.916105 0.140502
H17   H     H_    0.012845 0.487859 0.946889 0.146716
H18   H     H_    0.088499 0.502190 0.783629 0.163828
H19   H     H_    0.566292 0.504425 0.169694 0.152071
H20   H     H_    0.474344 0.594787 0.837934 0.153562
N1    N     N_R   0.648320 0.501210 0.499140 -0.196795
N2    N     N_R   0.352470 0.501290 0.499110 -0.197540
O1    O     O_R   0.118810 0.319640 0.500010 -0.574176
O2    O     O_R   0.881240 0.319660 0.500000 -0.574393
O3    O     O_R   0.055570 0.499980 0.629840 -0.597297
O4    O     O_R   0.818000 0.500010 0.629830 -0.570755
O5    O     O_R   0.118760 0.680340 0.500000 -0.600057
O6    O     O_R   0.881190 0.680360 0.499990 -0.588009
O7    O     O_R   0.182000 0.499990 0.370170 -0.597583
O8    O     O_R   0.944430 0.500020 0.370160 -0.596687
H21   H     H_    0.070787 0.220470 0.651916 0.136134
C41   C     C_3   0.619864 0.389007 0.782871 -0.411580
C42   C     C_3   0.682703 0.262202 0.752329 -0.806595
H22   H     H_    0.779159 0.271392 0.693204 0.246373
H23   H     H_    0.713552 0.211347 0.807553 0.254350
H24   H     H_    0.599714 0.206149 0.733637 0.230126
H25   H     H_    0.516810 0.367080 0.835383 0.208481
H26   H     H_    0.589000 0.441693 0.728784 0.213823

loop_
_geom_bond_atom_site_label_1
_geom_bond_atom_site_label_2
_ccdc_geom_bond_type
C8    C9    A    
C16   C21   A    
C34   C37   S    
Cu1   Cu2   S    
C23   O5    A    
C19   C20   A    
C4    C8    A    
C18   H5    S    
Cu1   O3    S    
C12   O4    A    
C24   H3    S    
C15   H11   S    
C6    H19   S    
C28   C29   A    
C5    C11   A    
C3    C7    A    
C5    C6    A    
C29   H12   S    
Cu2   O6    S    
C9    H16   S    
C23   C26   S    
C15   C37   A    
C11   C15   A    
C3    C38   A    
C16   C17   A    
C1    O1    A    
C35   N2    A    
C7    H1    S    
C12   C36   S    
C9    C10   A    
Cu1   O7    S    
C27   C32   A    
C1    C22   S    
C41   H26   S    
C21   C22   A    
Cu2   O4    S    
C23   O6    A    
C27   H9    S    
C17   C18   A    
C38   C39   A    
C12   O3    A    
C41   C42   S    
C16   H21   S    
C36   C40   A    
C17   H4    S    
C19   H6    S    
C18   C19   A    
Cu1   O1    S    
C33   H8    S    
C2    C4    A    
C42   H22   S    
C29   C30   A    
C31   C32   A    
C33   N1    A    
Cu2   O8    S    
C1    O2    A    
C24   C25   A    
C42   H23   S    
C41   H25   S    
C22   C24   A    
C34   O8    A    
Cu1   O5    S    
C14   H15   S    
C35   H14   S    
C31   N2    A    
C36   C39   A    
C32   N1    A    
C4    C5    A    
C10   C13   A    
C6    C7    A    
C30   H13   S    
C2    C3    A    
C25   C26   A    
C14   C37   A    
C28   H10   S    
C30   C31   A    
C20   C26   A    
C39   H18   S    
C34   O7    A    
C33   C35   A    
C40   C41   S    
C42   H24   S    
C25   H7    S    
C10   C11   A    
C38   H17   S    
C2    C40   A    
C20   C21   A    
C27   C28   A    
Cu2   O2    S    
Cu1   N2    S    
C13   C14   A    
Cu2   N1    S    
C13   H2    S    
C8    H20   S    
