data_mof_unit_1023.cif
_audit_creation_date              2012-12-10T20:34:14-0500
_audit_creation_method            fapswitch 2.2
_symmetry_space_group_name_H-M    P1
_symmetry_Int_Tables_number       1
_space_group_crystal_system       triclinic
_cell_length_a                    9.878802
_cell_length_b                    10.758465
_cell_length_c                    13.60417
_cell_angle_alpha                 89.964688
_cell_angle_beta                  83.054519
_cell_angle_gamma                 89.302586
_cell_volume                      1435.14425955

loop_
_atom_site_label
_atom_site_type_symbol
_atom_type_description
_atom_site_fract_x
_atom_site_fract_y
_atom_site_fract_z
_atom_type_partial_charge
C1    C     C_R   0.498935 0.739799 0.503552 0.856610
C2    C     C_3   0.223961 0.930203 0.546392 -0.092837
C3    C     C_R   0.915728 0.461024 0.580893 0.225062
C4    C     C_R   0.475620 0.500002 0.685697 0.877839
C5    C     C_R   0.941636 0.528115 0.416436 -0.147848
C6    C     C_R   0.085387 0.528300 0.416471 -0.066449
C7    C     C_R   0.058295 0.460799 0.580866 0.229362
C8    C     C_3   0.045062 0.517750 0.681205 -0.516765
C9    C     C_3   0.891841 0.516475 0.681765 -0.494307
C10   C     C_R   0.500069 0.260473 0.504065 0.850494
C11   C     C_R   0.524329 0.499981 0.314287 0.904457
C12   C     C_1   0.456938 0.500105 0.789466 -0.210522
C13   C     C_1   0.542802 0.499765 0.210449 -0.208871
C14   C     C_2   0.558440 0.499377 0.018654 -0.155806
C15   C     C_2   0.440672 0.499902 0.981223 -0.170880
C16   C     C_1   0.444626 0.500076 0.877317 -0.018565
C17   C     C_1   0.554762 0.499552 0.122577 -0.012248
C18   C     C_3   0.236673 0.189165 0.703626 0.131253
C19   C     C_3   0.294445 0.101230 0.777258 -0.368470
C20   C     C_3   0.372104 0.172497 0.849034 -0.963289
C21   C     C_R   0.167899 0.139251 0.460612 0.134738
C22   C     C_R   0.248117 0.157367 0.368487 -0.129605
C23   C     C_R   0.377855 0.939927 0.537539 -0.057012
C24   C     C_R   0.191093 0.209105 0.288499 -0.113398
C25   C     C_R   0.053078 0.241530 0.298183 -0.118477
C26   C     C_R   0.971768 0.222187 0.387883 -0.159253
C27   C     C_R   0.028386 0.171502 0.468561 -0.149538
C28   C     C_R   0.164210 0.871649 0.646263 0.183755
C29   C     C_R   0.028849 0.899916 0.687237 -0.111256
C30   C     C_R   0.976751 0.857603 0.781203 -0.168579
C31   C     C_R   0.059360 0.789199 0.837948 -0.127659
C32   C     C_R   0.194163 0.762519 0.800612 -0.186656
C33   C     C_R   0.245931 0.801803 0.705569 -0.155701
C34   C     C_R   0.498327 0.871194 0.516618 -0.106697
C35   C     C_R   0.172362 0.874503 0.452419 0.118613
C36   C     C_R   0.260410 0.859257 0.362580 -0.094419
C37   C     C_R   0.210755 0.822343 0.275419 -0.148226
C38   C     C_R   0.072070 0.802222 0.274571 -0.143235
C39   C     C_R   0.983063 0.817429 0.361266 -0.132475
C40   C     C_R   0.032422 0.851518 0.449370 -0.143369
C41   C     C_R   0.623044 0.934343 0.508070 -0.211288
C42   C     C_R   0.623917 0.063087 0.508621 -0.201350
C43   C     C_R   0.500003 0.129697 0.518215 -0.117650
C44   C     C_R   0.379079 0.064697 0.539736 -0.051613
C45   C     C_3   0.225054 0.077749 0.549001 0.384474
H1    H     H_    0.343032 0.500288 0.027715 0.148154
H2    H     H_    0.898518 0.552109 0.349481 0.146599
H3    H     H_    0.167524 0.256121 0.747215 0.149433
H4    H     H_    0.317393 0.245699 0.663652 0.155202
H5    H     H_    0.209458 0.050533 0.820091 0.247830
H6    H     H_    0.365345 0.032433 0.737428 0.232771
H7    H     H_    0.460312 0.220684 0.807901 0.268235
H8    H     H_    0.410869 0.106643 0.902262 0.267379
H9    H     H_    0.303999 0.241883 0.891210 0.266897
H10   H     H_    0.354484 0.130122 0.357123 0.108614
H11   H     H_    0.253925 0.223099 0.218594 0.124776
H12   H     H_    0.149717 0.552833 0.349524 0.159361
H13   H     H_    0.008995 0.281489 0.236118 0.122255
H14   H     H_    0.864805 0.247558 0.394910 0.156663
H15   H     H_    0.962717 0.156723 0.537085 0.145871
H16   H     H_    0.964751 0.960954 0.649248 0.136338
H17   H     H_    0.872945 0.880711 0.811047 0.136517
H18   H     H_    0.019348 0.757914 0.911244 0.131279
H19   H     H_    0.258683 0.710785 0.845260 0.151541
H20   H     H_    0.351178 0.779714 0.681099 0.133789
H21   H     H_    0.367649 0.879743 0.357280 0.111303
H22   H     H_    0.279956 0.811559 0.207859 0.127837
H23   H     H_    0.082151 0.456144 0.737863 0.194083
H24   H     H_    0.033523 0.774754 0.206762 0.122768
H25   H     H_    0.875302 0.801435 0.360357 0.133732
H26   H     H_    0.958793 0.861159 0.513566 0.105928
H27   H     H_    0.086393 0.612478 0.678008 0.242980
H28   H     H_    0.840328 0.450887 0.736923 0.203872
H29   H     H_    0.845066 0.611092 0.682110 0.219591
H30   H     H_    0.656030 0.499010 0.972082 0.153109
H31   H     H_    0.719693 0.885264 0.496439 0.159359
H32   H     H_    0.721017 0.109325 0.496955 0.156930
N1    N     N_R   0.857130 0.500860 0.500650 -0.114179
N2    N     N_R   0.142770 0.500820 0.500650 -0.108897
O1    O     O_R   0.385310 0.683210 0.499990 -0.608887
O2    O     O_R   0.614650 0.683240 0.500000 -0.623324
O3    O     O_R   0.368820 0.499950 0.640340 -0.624639
O4    O     O_R   0.598170 0.499990 0.640350 -0.608494
O5    O     O_R   0.385350 0.316760 0.500000 -0.621452
O6    O     O_R   0.614690 0.316790 0.500010 -0.626076
O7    O     O_R   0.401830 0.500010 0.359650 -0.611437
O8    O     O_R   0.631180 0.500050 0.359660 -0.620884
O9    O     O_3   0.156860 0.124545 0.641008 -0.671027
Zn1   Zn    Zn3+2 0.346870 0.499980 0.499990 0.950616
Zn2   Zn    Zn3+2 0.653130 0.500020 0.500010 0.925340

loop_
_geom_bond_atom_site_label_1
_geom_bond_atom_site_label_2
_ccdc_geom_bond_type
C2    C35   S    
C10   O6    A    
C40   H26   S    
C41   C42   A    
C19   C20   S    
C14   C17   S    
C33   H20   S    
C7    C8    S    
N1    Zn2   S    
C5    H2    S    
C26   C27   A    
C29   C30   A    
O3    Zn1   S    
C5    C6    A    
C28   C29   A    
C3    C7    A    
C27   H15   S    
C30   C31   A    
C36   H21   S    
C11   O7    A    
C1    O2    A    
C15   C16   S    
C18   C19   S    
O1    Zn1   S    
C12   C16   T    
C42   C43   A    
C11   O8    A    
C8    C9    S    
C4    C12   S    
C26   H14   S    
C21   C27   A    
C38   H24   S    
C21   C22   A    
C6    H12   S    
C34   C41   A    
C9    H28   S    
C1    C34   S    
C21   C45   S    
C2    C45   S    
C29   H16   S    
C8    H27   S    
C31   H18   S    
C45   O9    S    
C24   C25   A    
C32   H19   S    
C20   H9    S    
C39   C40   A    
C25   C26   A    
C18   O9    S    
C23   C44   A    
C35   C36   A    
C43   C44   A    
C37   C38   A    
C3    C9    S    
C31   C32   A    
C23   C34   A    
O2    Zn2   S    
C28   C33   A    
C8    H23   S    
C30   H17   S    
C22   C24   A    
C25   H13   S    
C44   C45   S    
C7    N2    A    
O4    Zn2   S    
C36   C37   A    
C10   C43   S    
C20   H8    S    
O7    Zn1   S    
C18   H3    S    
O6    Zn2   S    
C22   H10   S    
C24   H11   S    
C13   C17   T    
C32   C33   A    
C35   C40   A    
C20   H7    S    
C14   H30   S    
C41   H31   S    
C11   C13   S    
C19   H5    S    
C6    N2    A    
C38   C39   A    
C4    O4    A    
C37   H22   S    
C10   O5    A    
C39   H25   S    
N2    Zn1   S    
C9    H29   S    
C19   H6    S    
C4    O3    A    
C42   H32   S    
O5    Zn1   S    
O8    Zn2   S    
C2    C23   S    
C1    O1    A    
C14   C15   D    
C2    C28   S    
C15   H1    S    
C5    N1    A    
C3    N1    A    
C18   H4    S    
