data_mof_unit_4914.cif
_audit_creation_date              2012-12-10T18:43:41-0500
_audit_creation_method            fapswitch 2.2
_symmetry_space_group_name_H-M    P1
_symmetry_Int_Tables_number       1
_space_group_crystal_system       triclinic
_cell_length_a                    10.553274
_cell_length_b                    10.609075
_cell_length_c                    9.935208
_cell_angle_alpha                 88.589241
_cell_angle_beta                  102.66148
_cell_angle_gamma                 92.036602
_cell_volume                      1084.45347228

loop_
_atom_site_label
_atom_site_type_symbol
_atom_type_description
_atom_site_fract_x
_atom_site_fract_y
_atom_site_fract_z
_atom_type_partial_charge
C1    C     C_R   0.500925 0.260803 0.501367 0.907007
C2    C     C_R   0.499224 0.739224 0.498396 0.903860
C3    C     C_R   0.257886 0.502232 0.443160 0.828351
C4    C     C_R   0.742458 0.504669 0.557180 0.814346
C5    C     C_R   0.592902 0.567684 0.088726 0.097878
C6    C     C_R   0.406148 0.432702 0.911176 0.083243
C7    C     C_R   0.593147 0.565418 0.946256 -0.159062
C8    C     C_R   0.407045 0.434315 0.054052 -0.163662
C9    C     C_2   0.118192 0.514398 0.413036 -0.208549
C10   C     C_2   0.882527 0.527195 0.590061 -0.183304
C11   C     C_2   0.071509 0.588846 0.497590 -0.121630
C12   C     C_2   0.934641 0.592040 0.496719 -0.047605
C13   C     C_R   0.379101 0.062228 0.460248 -0.093472
C14   C     C_R   0.620817 0.937918 0.537515 -0.091167
C15   C     C_R   0.381152 0.930916 0.454702 0.189383
C16   C     C_R   0.619449 0.069310 0.538029 0.180360
C17   C     C_R   0.500992 0.872093 0.495560 -0.166514
C18   C     C_R   0.499160 0.127983 0.502273 -0.176565
H1    H     H_    0.873691 0.631450 0.404945 0.197737
H2    H     H_    0.137184 0.641526 0.578024 0.207465
H3    H     H_    0.666715 0.618558 0.906053 0.131866
H4    H     H_    0.333696 0.381410 0.094848 0.130352
N1    N     N_R   0.499970 0.499970 0.857200 -0.083147
N2    N     N_R   0.500030 0.500030 0.142800 -0.086469
O1    O     O_R   0.499990 0.316750 0.614620 -0.543836
O2    O     O_R   0.500010 0.683250 0.385380 -0.551150
O3    O     O_R   0.499990 0.316780 0.385290 -0.630978
O4    O     O_R   0.500010 0.683220 0.614710 -0.634663
O5    O     O_R   0.317810 0.500000 0.571850 -0.555273
O6    O     O_R   0.682190 0.500000 0.428150 -0.571672
O7    O     O_R   0.317810 0.500030 0.342520 -0.636077
O8    O     O_R   0.682190 0.499970 0.657480 -0.628365
Zn1   Zn    Zn3+2 0.500000 0.499980 0.653120 1.002347
Zn2   Zn    Zn3+2 0.500000 0.500020 0.346880 0.991959
C19   C     C_2   0.695663 0.647082 0.172700 0.437646
H5    H     H_    0.794171 0.642997 0.157497 0.065169
O9    O     O_2   0.670784 0.726954 0.247960 -0.558415
C20   C     C_2   0.299422 0.355273 0.827985 0.474880
H6    H     H_    0.209248 0.341496 0.862696 0.063643
O10   O     O_2   0.312214 0.296950 0.728500 -0.566279
C21   C     C_2   0.958683 0.480963 0.724984 0.393821
H7    H     H_    0.918807 0.404914 0.779705 0.074890
O11   O     O_2   0.062660 0.530905 0.779258 -0.596583
C22   C     C_2   0.038378 0.438966 0.298426 0.395281
H8    H     H_    0.086876 0.383629 0.235410 0.088899
O12   O     O_2   0.919864 0.435610 0.273689 -0.598091
C23   C     C_2   0.255211 0.133069 0.424879 0.423629
H9    H     H_    0.253119 0.229299 0.458083 0.081578
O13   O     O_2   0.154697 0.087298 0.356377 -0.583851
C24   C     C_2   0.743928 0.867309 0.581351 0.437643
H10   H     H_    0.741500 0.771997 0.622622 0.052586
O14   O     O_2   0.848794 0.912388 0.568964 -0.567898
N3    N     N_2   0.264324 0.855211 0.419285 -0.319980
H11   H     H_    0.190177 0.880447 0.464624 0.277214
C25   C     C_3   0.222725 0.825158 0.274494 -0.650163
H12   H     H_    0.133934 0.763131 0.258824 0.224542
H13   H     H_    0.299086 0.774735 0.238669 0.253481
H14   H     H_    0.200621 0.912061 0.210443 0.271923
N4    N     N_2   0.735880 0.144106 0.582394 -0.330892
H15   H     H_    0.799335 0.109964 0.668497 0.257825
C26   C     C_3   0.798644 0.188719 0.473478 -0.602891
H16   H     H_    0.830210 0.108542 0.420493 0.288897
H17   H     H_    0.885279 0.248778 0.518019 0.223105
H18   H     H_    0.731858 0.245941 0.395977 0.255397

loop_
_geom_bond_atom_site_label_1
_geom_bond_atom_site_label_2
_ccdc_geom_bond_type
C26   H18   S    
C24   O14   D    
C11   C12   S    
C6    C20   S    
C15   C17   A    
C3    C9    S    
O5    Zn1   S    
C21   O11   D    
C21   H7    S    
C8    H4    S    
C19   H5    S    
C13   C15   A    
C25   H12   S    
C8    N2    A    
O8    Zn1   S    
N3    C25   S    
C24   H10   S    
O7    Zn2   S    
N4    H15   S    
C2    O2    A    
C14   C24   S    
N3    H11   S    
O2    Zn2   S    
C2    C17   S    
C3    O7    A    
C9    C11   D    
C14   C17   A    
C3    O5    A    
C1    C18   S    
C4    O8    A    
C5    N2    A    
C10   C12   D    
C13   C18   A    
C7    N1    A    
C6    N1    A    
C5    C19   S    
C12   H1    S    
C16   C18   A    
C20   O10   D    
C22   O12   D    
O4    Zn1   S    
C6    C8    A    
C5    C7    A    
C25   H13   S    
O3    Zn2   S    
C26   H16   S    
C14   C16   A    
C11   H2    S    
N4    C26   S    
O6    Zn2   S    
C4    C10   S    
C15   N3    S    
C20   H6    S    
C22   H8    S    
N1    Zn1   S    
C23   O13   D    
C25   H14   S    
C1    O3    A    
C9    C22   S    
C2    O4    A    
C19   O9    D    
C7    H3    S    
C13   C23   S    
C1    O1    A    
C26   H17   S    
C4    O6    A    
C23   H9    S    
O1    Zn1   S    
C10   C21   S    
C16   N4    S    
N2    Zn2   S    
