data_mof_unit_1348.cif
_audit_creation_date              2012-12-10T16:48:47-0500
_audit_creation_method            fapswitch 2.2
_symmetry_space_group_name_H-M    P1
_symmetry_Int_Tables_number       1
_space_group_crystal_system       triclinic
_cell_length_a                    17.296123
_cell_length_b                    8.74794
_cell_length_c                    7.404094
_cell_angle_alpha                 101.955271
_cell_angle_beta                  88.506529
_cell_angle_gamma                 92.262505
_cell_volume                      1094.94275686

loop_
_atom_site_label
_atom_site_type_symbol
_atom_type_description
_atom_site_fract_x
_atom_site_fract_y
_atom_site_fract_z
_atom_type_partial_charge
C1    C     C_R   0.495611 0.201078 0.456990 0.806637
C2    C     C_R   0.504376 0.798954 0.542983 0.871613
C3    C     C_2   0.481044 0.037891 0.444621 0.064496
C4    C     C_2   0.519446 0.962098 0.554840 0.010833
C5    C     C_R   0.351092 0.505327 0.529651 0.876903
C6    C     C_R   0.649068 0.495823 0.470150 0.815589
C7    C     C_R   0.266664 0.507790 0.553695 -0.122541
C8    C     C_R   0.733718 0.503525 0.446912 -0.139009
C9    C     C_R   0.222333 0.417699 0.411458 -0.203539
C10   C     C_R   0.775265 0.595244 0.593686 -0.135071
C11   C     C_R   0.142275 0.419272 0.420359 -0.121220
C12   C     C_R   0.855307 0.606572 0.586941 -0.115344
C13   C     C_R   0.104903 0.511592 0.572004 0.111371
C14   C     C_R   0.895754 0.525587 0.433040 0.096613
C15   C     C_R   0.148052 0.597047 0.717813 -0.222941
C16   C     C_R   0.855457 0.439513 0.282654 -0.197265
C17   C     C_R   0.228881 0.599121 0.709509 0.334579
C18   C     C_R   0.774636 0.424941 0.287213 0.345185
C19   C     C_2   0.020663 0.522859 0.579936 -0.171051
C20   C     C_2   0.980359 0.522942 0.428018 -0.170830
Cu1   Cu    Cu3+1 0.508700 0.517250 0.683000 1.133276
Cu2   Cu    Cu3+1 0.491300 0.482750 0.317000 1.083457
H1    H     H_    0.249736 0.345834 0.291976 0.192837
H2    H     H_    0.745691 0.658876 0.715396 0.207715
H3    H     H_    0.009616 0.510893 0.294397 0.149691
H4    H     H_    0.991860 0.534994 0.714017 0.152384
H5    H     H_    0.118256 0.666936 0.834965 0.173900
H6    H     H_    0.887954 0.378013 0.164597 0.172716
H7    H     H_    0.440414 0.381112 0.959186 0.230706
H8    H     H_    0.559451 0.619147 0.040895 0.247660
N1    N     N_2   0.478180 0.456750 0.041980 -0.148543
N2    N     N_2   0.521820 0.543250 0.958020 -0.129019
O1    O     O_R   0.505650 0.286040 0.618880 -0.552857
O2    O     O_R   0.494350 0.713960 0.381120 -0.560178
O3    O     O_R   0.490960 0.256910 0.309800 -0.593488
O4    O     O_R   0.509040 0.743090 0.690200 -0.537224
O5    O     O_R   0.394600 0.516230 0.672450 -0.554473
O6    O     O_R   0.605400 0.483770 0.327550 -0.585242
O7    O     O_R   0.379910 0.487100 0.363380 -0.564760
O8    O     O_R   0.620090 0.512900 0.636620 -0.537191
S1    S     S_3+6 0.730096 0.297503 0.097425 0.091940
O9    O     O_2   0.675074 0.385395 0.006500 -0.227563
O10   O     O_2   0.789955 0.229534 0.955703 -0.228127
O11   O     O_3   0.683082 0.148627 0.170048 -0.447097
H9    H     H_    0.636048 0.193243 0.235261 0.354223
S2    S     S_3+6 0.279150 0.724049 0.890642 0.070001
O12   O     O_2   0.339812 0.819897 0.810732 -0.237607
O13   O     O_2   0.225023 0.832689 0.012126 -0.256508
O14   O     O_3   0.321609 0.614625 0.018790 -0.452229
H10   H     H_    0.278410 0.556419 0.067685 0.331094
H11   H     H_    0.885338 0.678553 0.702444 0.154499
H12   H     H_    0.109749 0.347867 0.308742 0.152152
S3    S     S_3+6 0.403635 0.953946 0.297509 0.073737
O15   O     O_2   0.437826 0.860663 0.122297 -0.236523
O16   O     O_2   0.352264 0.848444 0.388706 -0.216916
O17   O     O_3   0.349234 0.094324 0.246636 -0.510163
H13   H     H_    0.365399 0.104103 0.120063 0.371716
S4    S     S_3+6 0.596791 0.046229 0.702572 0.083799
O18   O     O_2   0.646046 0.921223 0.746304 -0.260250
O19   O     O_2   0.647390 0.154170 0.613171 -0.229806
O20   O     O_3   0.558336 0.147024 0.900127 -0.453119
H14   H     H_    0.525954 0.069179 0.950459 0.356370

loop_
_geom_bond_atom_site_label_1
_geom_bond_atom_site_label_2
_ccdc_geom_bond_type
C16   H6    S    
C2    C4    S    
C17   S2    S    
C6    O6    A    
C15   C17   A    
C5    O5    A    
S1    O10   D    
S1    O9    D    
S3    O16   D    
C15   H5    S    
C19   C20   D    
C9    C11   A    
C2    O2    A    
S4    O20   S    
C13   C15   A    
C1    O1    A    
H7    N1    S    
Cu1   O4    S    
Cu1   Cu2   S    
C3    S3    S    
H8    N2    S    
Cu2   O3    S    
C11   C13   A    
S2    O14   S    
Cu1   O8    S    
C10   C12   A    
Cu2   O7    S    
C8    C10   A    
S1    O11   S    
C12   C14   A    
C6    O8    A    
C2    O4    A    
C5    O7    A    
O20   H14   S    
Cu2   O2    S    
Cu1   N2    S    
C14   C16   A    
C18   S1    S    
Cu1   O1    S    
C20   H3    S    
C13   C19   S    
S4    O19   D    
C3    C4    D    
Cu2   O6    S    
S2    O13   D    
C14   C20   S    
C12   H11   S    
Cu1   O5    S    
O17   H13   S    
C1    O3    A    
C7    C9    A    
O14   H10   S    
Cu2   N1    S    
S3    O17   S    
C4    S4    S    
C5    C7    S    
C19   H4    S    
S2    O12   D    
C9    H1    S    
C6    C8    S    
C11   H12   S    
C10   H2    S    
S4    O18   D    
S3    O15   D    
C16   C18   A    
C8    C18   A    
O11   H9    S    
N1    N2    D    
C1    C3    S    
C7    C17   A    
