data_mof_unit_4037.cif
_audit_creation_date              2012-12-11T15:52:23-0500
_audit_creation_method            fapswitch 2.2
_symmetry_space_group_name_H-M    P1
_symmetry_Int_Tables_number       1
_space_group_crystal_system       triclinic
_cell_length_a                    11.225163
_cell_length_b                    11.22105
_cell_length_c                    18.768645
_cell_angle_alpha                 90.211652
_cell_angle_beta                  90.052201
_cell_angle_gamma                 119.931377
_cell_volume                      2048.72866645

loop_
_atom_site_label
_atom_site_type_symbol
_atom_type_description
_atom_site_fract_x
_atom_site_fract_y
_atom_site_fract_z
_atom_type_partial_charge
C1    C     C_R   0.521002 0.453244 0.146351 0.538982
C2    C     C_3   0.163486 0.726533 0.445327 -0.239904
C3    C     C_3   0.557709 0.866071 0.441123 -0.234274
C4    C     C_3   0.295476 0.499131 0.451122 -0.292485
C5    C     C_R   0.524843 0.459894 0.354583 0.569336
C6    C     C_R   0.567117 0.112402 0.361719 0.557942
C7    C     C_R   0.934911 0.475819 0.354169 0.566629
C8    C     C_R   0.460048 0.519101 0.647421 0.595385
C9    C     C_R   0.060002 0.540391 0.647269 0.584765
C10   C     C_R   0.481234 0.941971 0.648719 0.588130
C11   C     C_R   0.501240 0.005013 0.920975 0.019327
C12   C     C_R   0.549302 0.073079 0.144700 0.542241
C13   C     C_R   0.994085 0.496156 0.920520 0.018732
C14   C     C_R   0.494137 0.505984 0.924338 0.017082
C15   C     C_R   0.953273 0.483785 0.068446 0.019700
C16   C     C_R   0.530328 0.045075 0.068838 0.014923
C17   C     C_R   0.500657 0.474980 0.072506 0.024393
C18   C     C_R   0.388191 0.977763 0.963971 0.010097
C19   C     C_R   0.018035 0.407477 0.963089 0.007888
C20   C     C_R   0.539637 0.618705 0.970869 0.011657
C21   C     C_R   0.996150 0.400056 0.035880 -0.001449
C22   C     C_R   0.402972 0.999601 0.036748 -0.000057
C23   C     C_R   0.926000 0.475569 0.144467 0.538192
C24   C     C_R   0.542328 0.603849 0.043681 -0.007225
C25   C     C_R   0.647296 0.093054 0.024924 -0.158899
C26   C     C_R   0.907711 0.555123 0.024677 -0.150384
C27   C     C_R   0.442953 0.359121 0.026758 -0.147942
C28   C     C_R   0.927305 0.560894 0.951162 -0.157723
C29   C     C_R   0.632980 0.074376 0.951295 -0.163711
C30   C     C_R   0.439661 0.374475 0.953432 -0.160423
C31   C     C_3   0.253135 0.848282 0.972531 -0.242848
C32   C     C_3   0.145424 0.398007 0.971947 -0.243768
C33   C     C_3   0.670823 0.753494 0.972594 -0.260724
C34   C     C_R   0.457202 0.520953 0.852404 0.536941
C35   C     C_3   0.120362 0.388847 0.051581 -0.275933
C36   C     C_3   0.269457 0.873280 0.052260 -0.276313
C37   C     C_3   0.670096 0.739195 0.053179 -0.276469
C38   C     C_R   0.498803 0.005109 0.579524 0.004225
C39   C     C_R   0.006579 0.500544 0.575021 0.002388
C40   C     C_R   0.498947 0.507358 0.574252 0.003345
C41   C     C_R   0.988688 0.477951 0.425307 -0.048643
C42   C     C_R   0.517711 0.063120 0.433823 -0.050849
C43   C     C_R   0.522391 0.520132 0.424284 -0.037092
C44   C     C_R   0.572750 0.972410 0.533415 0.068624
C45   C     C_R   0.063231 0.542911 0.852333 0.534407
C46   C     C_R   0.046278 0.610808 0.530391 0.063666
C47   C     C_R   0.387703 0.445815 0.528853 0.079342
C48   C     C_R   0.034936 0.598703 0.459105 0.032161
C49   C     C_R   0.582917 0.002518 0.463440 0.052944
C50   C     C_R   0.399557 0.457329 0.456595 0.058370
C51   C     C_R   0.414256 0.073170 0.475247 0.151878
C52   C     C_R   0.959476 0.358156 0.466662 0.145979
C53   C     C_R   0.641785 0.607292 0.467072 0.155656
C54   C     C_R   0.957211 0.367601 0.543654 0.156474
C55   C     C_R   0.417087 0.058624 0.551475 0.166731
C56   C     C_R   0.479514 0.936642 0.852443 0.540836
C57   C     C_R   0.631260 0.593464 0.543818 0.157485
C58   C     C_3   0.555015 0.834537 0.518968 -0.238613
C59   C     C_3   0.178456 0.742567 0.525245 -0.215503
C60   C     C_3   0.269731 0.469146 0.528896 -0.232602
Cr1   Cr    Cr6+3 0.769160 0.541570 0.250690 1.073264
Cr2   Cr    Cr6+3 0.458430 0.227590 0.250690 1.076423
Cr3   Cr    Cr6+3 0.772410 0.230840 0.250690 1.079842
Cr4   Cr    Cr6+3 0.541570 0.769160 0.749310 1.085028
Cr5   Cr    Cr6+3 0.227590 0.458430 0.749310 1.087319
Cr6   Cr    Cr6+3 0.230840 0.772410 0.749310 1.084388
H1    H     H_    0.749683 0.140670 0.047554 0.149531
H2    H     H_    0.093422 0.286920 0.074013 0.147775
H3    H     H_    0.192963 0.897748 0.075353 0.146026
H4    H     H_    0.758060 0.731369 0.074330 0.145613
H5    H     H_    0.644742 0.831502 0.538838 0.254516
H6    H     H_    0.166905 0.826087 0.547600 0.265103
H7    H     H_    0.179650 0.371789 0.542165 0.252661
H8    H     H_    0.238486 0.710256 0.416257 0.102600
H9    H     H_    0.460755 0.812035 0.411108 0.106821
H10   H     H_    0.344432 0.607525 0.439088 0.102160
H11   H     H_    0.166569 0.857306 0.949733 0.151462
H12   H     H_    0.861263 0.610492 0.047410 0.135793
H13   H     H_    0.134452 0.301925 0.948481 0.154957
H14   H     H_    0.756915 0.748531 0.946210 0.133001
H15   H     H_    0.200508 0.478968 0.081661 0.140440
H16   H     H_    0.282101 0.794342 0.081645 0.139746
H17   H     H_    0.649887 0.814293 0.081737 0.152243
H18   H     H_    0.140122 0.993049 0.338670 0.351847
H19   H     H_    0.058404 0.180589 0.330575 0.359185
H20   H     H_    0.842512 0.867062 0.328645 0.356072
H21   H     H_    0.804824 0.165573 0.702833 0.368348
H22   H     H_    0.371386 0.204337 0.715853 0.365797
H23   H     H_    0.405485 0.256481 0.047293 0.149309
H24   H     H_    0.831321 0.637603 0.704589 0.367188
H25   H     H_    0.458374 0.749733 0.538170 0.076753
H26   H     H_    0.265398 0.736952 0.547601 0.081349
H27   H     H_    0.283846 0.555142 0.562998 0.090034
H28   H     H_    0.137747 0.794708 0.417397 0.272767
H29   H     H_    0.643261 0.875405 0.410418 0.272363
H30   H     H_    0.215144 0.435638 0.413725 0.235433
H31   H     H_    0.901918 0.625943 0.919691 0.133056
H32   H     H_    0.723471 0.102075 0.919412 0.141284
H33   H     H_    0.393699 0.283810 0.919633 0.139786
H34   H     H_    0.257159 0.755092 0.955999 0.143547
H35   H     H_    0.239343 0.494315 0.956108 0.145766
H36   H     H_    0.655960 0.839488 0.955218 0.163413
O1    O     O_R   0.911480 0.572650 0.170990 -0.530801
O2    O     O_R   0.528970 0.640340 0.824320 -0.497863
O3    O     O_R   0.111370 0.471030 0.824320 -0.499103
O4    O     O_R   0.359660 0.888630 0.824320 -0.497420
O5    O     O_R   0.909980 0.572450 0.331530 -0.453329
O6    O     O_R   0.427550 0.337530 0.331530 -0.449198
O7    O     O_R   0.662470 0.090020 0.331530 -0.454946
O8    O     O_R   0.572450 0.909980 0.668470 -0.473838
O9    O     O_R   0.337530 0.427550 0.668470 -0.464884
O10   O     O_R   0.090020 0.662470 0.668470 -0.477678
O11   O     O_R   0.638950 0.528780 0.324500 -0.439435
O12   O     O_R   0.427350 0.338830 0.170990 -0.529158
O13   O     O_R   0.471220 0.110170 0.324500 -0.430219
O14   O     O_R   0.889830 0.361050 0.324500 -0.447477
O15   O     O_R   0.528780 0.638950 0.675500 -0.465793
O16   O     O_R   0.110170 0.471220 0.675500 -0.467276
O17   O     O_R   0.361050 0.889830 0.675500 -0.468804
O18   O     O_3   0.666667 0.333333 0.250560 -0.325855
O19   O     O_3   0.333333 0.666667 0.749440 -0.315026
O20   O     O_2   0.138978 0.982018 0.480564 -0.165423
O21   O     O_2   0.281421 0.201341 0.429772 -0.219120
O22   O     O_3   0.225394 0.993189 0.352508 -0.537333
O23   O     O_R   0.661170 0.088520 0.170990 -0.526101
O24   O     O_2   0.051638 0.176631 0.472628 -0.136746
O25   O     O_2   0.836095 0.098696 0.414705 -0.236777
O26   O     O_3   0.050325 0.261286 0.344964 -0.545662
O27   O     O_2   0.837261 0.878689 0.472233 -0.154410
O28   O     O_2   0.901513 0.724256 0.422491 -0.242375
O29   O     O_3   0.755017 0.786809 0.344293 -0.545012
O30   O     O_2   0.837639 0.089084 0.561797 -0.165347
O31   O     O_2   0.031473 0.228697 0.636822 -0.222150
O32   O     O_3   0.802883 0.224145 0.664014 -0.515770
O33   O     O_2   0.271085 0.189621 0.577086 -0.170950
O34   O     O_R   0.572650 0.911480 0.829010 -0.530299
O35   O     O_2   0.202205 0.982200 0.643484 -0.233002
O36   O     O_3   0.431189 0.199024 0.678689 -0.513882
O37   O     O_2   0.909627 0.739811 0.565431 -0.177218
O38   O     O_2   0.773789 0.806407 0.636258 -0.226188
O39   O     O_3   0.766095 0.577691 0.667342 -0.513539
O40   O     O_R   0.338830 0.427350 0.829010 -0.531367
O41   O     O_R   0.088520 0.661170 0.829010 -0.531210
O42   O     O_R   0.640340 0.528970 0.175680 -0.505715
O43   O     O_R   0.471030 0.111370 0.175680 -0.498175
O44   O     O_R   0.888630 0.359660 0.175680 -0.500743
S1    S     S_3+6 0.263324 0.062478 0.434890 0.057701
S2    S     S_3+6 0.973335 0.220398 0.425267 0.061424
S3    S     S_3+6 0.786727 0.751994 0.427136 0.054274
S4    S     S_3+6 0.908684 0.222580 0.601070 0.083953
S5    S     S_3+6 0.323975 0.106096 0.612162 0.086376
S6    S     S_3+6 0.775382 0.685417 0.602675 0.085858

loop_
_geom_bond_atom_site_label_1
_geom_bond_atom_site_label_2
_ccdc_geom_bond_type
C44   C49   A    
C28   H31   S    
C40   C47   A    
Cr4   O34   S    
C11   C18   A    
Cr5   O40   S    
C46   C59   S    
O30   S4    D    
C60   H7    S    
C25   H1    S    
C3    C49   S    
C54   S4    S    
O27   S3    D    
C26   H12   S    
C29   H32   S    
Cr1   O1    S    
C14   C30   A    
Cr2   O12   S    
H20   O29   S    
C39   C54   A    
Cr2   O6    S    
Cr4   O19   S    
O32   S4    S    
C57   S6    S    
O37   S6    D    
C9    C39   S    
Cr5   O9    S    
C10   O17   A    
C56   O34   A    
C47   C60   S    
C4    H30   S    
C43   C53   A    
C23   O1    A    
C38   C55   A    
C20   C24   A    
C44   C58   S    
Cr2   O43   S    
C32   H35   S    
Cr5   O16   S    
C13   C28   A    
C10   O8    A    
Cr5   O19   S    
C3    H9    S    
C58   H25   S    
O38   S6    D    
C41   C52   A    
Cr2   O18   S    
C2    H8    S    
O25   S2    D    
C5    O11   A    
C60   H27   S    
C9    O10   A    
C15   C23   S    
C5    C43   S    
C52   S2    S    
C37   H4    S    
C27   C30   A    
C53   S3    S    
C9    O16   A    
H21   O32   S    
Cr6   O4    S    
Cr1   O5    S    
C19   C32   S    
Cr5   O3    S    
O22   S1    S    
C52   C54   A    
C8    O15   A    
C31   H11   S    
C47   C50   A    
C25   C29   A    
C23   O44   A    
C46   C48   A    
C17   C24   A    
C13   C19   A    
C33   H36   S    
C17   C27   A    
C32   C35   S    
C12   C16   S    
C2    H28   S    
C8    O9    A    
C36   H16   S    
O24   S2    D    
C2    C59   S    
O26   S2    S    
C15   C26   A    
Cr6   O41   S    
C2    C48   S    
O20   S1    D    
C30   H33   S    
C33   C37   S    
Cr4   O15   S    
C4    C50   S    
C7    O14   A    
Cr3   O7    S    
O28   S3    D    
C38   C44   A    
C14   C20   A    
Cr1   O42   S    
Cr4   O8    S    
C51   S1    S    
H22   O36   S    
C4    C60   S    
C12   O43   A    
C24   C37   S    
Cr6   O19   S    
C33   H14   S    
C31   H34   S    
C56   O4    A    
Cr3   O23   S    
C39   C46   A    
C21   C35   S    
C20   C33   S    
O21   S1    D    
Cr6   O17   S    
Cr1   O11   S    
C6    O7    A    
C7    O5    A    
O29   S3    S    
C1    O12   A    
Cr3   O14   S    
C36   H3    S    
C16   C25   A    
Cr4   O2    S    
C34   O40   A    
C16   C22   A    
C40   C57   A    
Cr3   O44   S    
C19   C21   A    
C18   C22   A    
C26   C28   A    
C37   H17   S    
O31   S4    D    
C53   C57   A    
C14   C34   S    
C43   C50   A    
C55   S5    S    
C12   O23   A    
C42   C51   A    
O36   S5    S    
H18   O22   S    
C22   C36   S    
C59   H6    S    
C1    C17   S    
C35   H15   S    
C10   C38   S    
Cr2   O13   S    
C1    O42   A    
C32   H13   S    
C13   C45   S    
Cr3   O18   S    
C35   H2    S    
O33   S5    D    
C41   C48   A    
C27   H23   S    
C51   C55   A    
C59   H26   S    
C7    C41   S    
C58   H5    S    
C34   O2    A    
C6    O13   A    
C4    H10   S    
H24   O39   S    
C42   C49   A    
C3    C58   S    
C15   C21   A    
C11   C29   A    
C6    C42   S    
C45   O3    A    
C45   O41   A    
C31   C36   S    
O35   S5    D    
H19   O26   S    
C3    H29   S    
C18   C31   S    
C8    C40   S    
Cr6   O10   S    
C11   C56   S    
O39   S6    S    
Cr1   O18   S    
C5    O6    A    
