data_mof_unit_459.cif
_audit_creation_date              2012-12-11T15:43:46-0500
_audit_creation_method            fapswitch 2.2
_symmetry_space_group_name_H-M    P1
_symmetry_Int_Tables_number       1
_space_group_crystal_system       triclinic
_cell_length_a                    14.580049
_cell_length_b                    16.221889
_cell_length_c                    6.922182
_cell_angle_alpha                 90.000077
_cell_angle_beta                  98.78007
_cell_angle_gamma                 90.000051
_cell_volume                      1618.02081598

loop_
_atom_site_label
_atom_site_type_symbol
_atom_type_description
_atom_site_fract_x
_atom_site_fract_y
_atom_site_fract_z
_atom_type_partial_charge
O1    O     O_R   0.831700 0.662810 0.581550 -0.544358
O2    O     O_R   0.168300 0.337190 0.418450 -0.544358
O3    O     O_R   0.168300 0.162810 0.418450 -0.544359
O4    O     O_R   0.831700 0.837190 0.581550 -0.544358
O5    O     O_R   0.842890 0.834390 0.255500 -0.541597
O6    O     O_R   0.157110 0.165610 0.744500 -0.541594
O7    O     O_R   0.157110 0.334390 0.744500 -0.541596
O8    O     O_R   0.842890 0.665610 0.255500 -0.541596
O9    O     O_R   0.661690 0.835580 0.024130 -0.522770
O10   O     O_R   0.338310 0.164420 0.975870 -0.522759
O11   O     O_R   0.338310 0.335580 0.975870 -0.522764
O12   O     O_R   0.661690 0.664420 0.024130 -0.522768
C1    C     C_R   0.865903 0.864388 0.431510 0.670723
C2    C     C_R   0.134096 0.135613 0.568489 0.670705
C3    C     C_R   0.134096 0.364388 0.568490 0.670711
C4    C     C_R   0.865903 0.635612 0.431510 0.670716
C5    C     C_R   0.064952 0.066479 0.534258 -0.042258
C6    C     C_R   0.935046 0.933522 0.465741 -0.042256
C7    C     C_R   0.935046 0.566478 0.465741 -0.042256
C8    C     C_R   0.064953 0.433521 0.534258 -0.042257
H1    H     H_    0.957018 0.944268 0.164366 0.113967
H2    H     H_    0.042980 0.055733 0.835633 0.113968
H3    H     H_    0.042980 0.444267 0.835633 0.113967
H4    H     H_    0.957019 0.555732 0.164366 0.113967
H5    H     H_    0.068147 0.057414 0.222307 0.117768
H6    H     H_    0.931851 0.942587 0.777692 0.117767
H7    H     H_    0.931851 0.557413 0.777692 0.117767
H8    H     H_    0.068148 0.442586 0.222308 0.117768
C9    C     C_R   0.975077 0.967806 0.311619 -0.158661
C10   C     C_R   0.024921 0.032195 0.688380 -0.158662
C11   C     C_R   0.024921 0.467805 0.688380 -0.158662
C12   C     C_R   0.975078 0.532194 0.311620 -0.158661
O13   O     O_3   0.687240 0.750000 0.366320 -0.376074
O14   O     O_3   0.312760 0.250000 0.633680 -0.376059
V1    V     V_3+5 0.757720 0.750000 0.115230 1.393410
V2    V     V_3+5 0.242280 0.250000 0.884770 1.393421
O15   O     O_R   0.650500 0.664000 0.690740 -0.552555
O16   O     O_R   0.349500 0.336000 0.309260 -0.552558
O17   O     O_R   0.349500 0.164000 0.309260 -0.552559
O18   O     O_R   0.650500 0.836000 0.690740 -0.552555
C13   C     C_R   0.629457 0.635524 0.854196 0.754042
C14   C     C_R   0.370543 0.364475 0.145804 0.754044
C15   C     C_R   0.370544 0.135525 0.145804 0.754048
C16   C     C_R   0.629458 0.864476 0.854197 0.754036
C17   C     C_R   0.038968 0.033108 0.345319 -0.145084
C18   C     C_R   0.961030 0.966893 0.654680 -0.145088
C19   C     C_R   0.961030 0.533107 0.654680 -0.145087
C20   C     C_R   0.038969 0.466892 0.345320 -0.145086
V3    V     V_3+5 0.735670 0.750000 0.607790 1.362301
V4    V     V_3+5 0.264330 0.250000 0.392210 1.362298
O19   O     O_3   0.806150 0.750000 0.906560 -0.371451
O20   O     O_3   0.193850 0.250000 0.093440 -0.371451
C21   C     C_2   0.553443 0.924777 0.847399 -0.390022
C22   C     C_2   0.446563 0.075228 0.152604 -0.390059
C23   C     C_2   0.446561 0.424774 0.152604 -0.390051
C24   C     C_2   0.553440 0.575225 0.847398 -0.390033
C25   C     C_2   0.544583 0.977001 0.997520 0.292250
C26   C     C_2   0.455428 0.023005 0.002484 0.292203
C27   C     C_2   0.455425 0.476998 0.002484 0.292219
C28   C     C_2   0.544579 0.523000 0.997517 0.292239
H9    H     H_    0.501107 0.080909 0.276742 0.140903
H10   H     H_    0.498898 0.919096 0.723266 0.140892
H11   H     H_    0.498894 0.580908 0.723267 0.140897
H12   H     H_    0.501106 0.419093 0.276739 0.140900
N1    N     N_2   0.377574 0.006831 0.854693 -0.540448
H13   H     H_    0.313015 0.007748 0.898442 0.246726
C29   C     C_3   0.380238 0.041949 0.663250 -0.479272
H14   H     H_    0.325376 0.089217 0.631385 0.222549
H15   H     H_    0.366428 0.992884 0.550881 0.171371
H16   H     H_    0.448498 0.070817 0.652603 0.182701
N2    N     N_2   0.622444 0.993180 0.145293 -0.540432
H17   H     H_    0.687001 0.992252 0.101538 0.246729
C30   C     C_3   0.619785 0.958085 0.336761 -0.479423
H18   H     H_    0.674574 0.910747 0.368555 0.222627
H19   H     H_    0.551487 0.929309 0.347506 0.182674
H20   H     H_    0.633709 0.007146 0.449116 0.171414
N3    N     N_2   0.622440 0.506820 0.145289 -0.540438
H21   H     H_    0.686997 0.507743 0.101531 0.246727
C31   C     C_3   0.619785 0.541920 0.336754 -0.479382
H22   H     H_    0.674590 0.589247 0.368558 0.222609
H23   H     H_    0.633692 0.492858 0.449108 0.171406
H24   H     H_    0.551493 0.570712 0.347490 0.182678
N4    N     N_2   0.377567 0.493174 0.854702 -0.540442
H25   H     H_    0.313009 0.492254 0.898455 0.246728
C32   C     C_3   0.380227 0.458063 0.663249 -0.479339
H26   H     H_    0.325394 0.410767 0.631416 0.222581
H27   H     H_    0.448500 0.429232 0.652561 0.182692
H28   H     H_    0.366369 0.507124 0.550885 0.171390

loop_
_geom_bond_atom_site_label_1
_geom_bond_atom_site_label_2
_ccdc_geom_bond_type
C23   C27   D    
C30   H19   S    
O7    V2    S    
N3    H21   S    
C1    C6    S    
O11   V2    S    
C27   N4    S    
O16   C14   A    
C7    C19   A    
O13   V3    S    
O18   V3    S    
O11   C14   A    
C30   H18   S    
O4    C1    A    
O2    V4    S    
C16   C21   S    
N1    C29   S    
V4    O20   S    
O5    C1    A    
V2    O20   S    
O7    C3    A    
C27   C28   S    
O8    C4    A    
C11   C19   A    
C5    C10   A    
C12   C20   A    
C2    C5    S    
C7    C12   A    
C6    C18   A    
O3    V4    S    
N3    C31   S    
C3    C8    S    
C28   N3    S    
O14   V4    S    
C32   H27   S    
C29   H14   S    
N2    C30   S    
C21   C25   D    
O17   C15   A    
V3    O19   S    
C32   H26   S    
H1    C9    S    
C24   C28   D    
C9    C17   A    
C29   H15   S    
O8    V1    S    
H3    C11   S    
H4    C12   S    
C13   C24   S    
O12   C13   A    
C14   C23   S    
O6    C2    A    
O15   V3    S    
C21   H10   S    
C26   N1    S    
N4    H25   S    
C23   H12   S    
C24   H11   S    
O1    C4    A    
C25   N2    S    
O12   V1    S    
O2    C3    A    
C8    C20   A    
O3    C2    A    
N4    C32   S    
V1    O19   S    
C30   H20   S    
H5    C17   S    
C31   H23   S    
C22   C26   D    
C32   H28   S    
H7    C19   S    
H8    C20   S    
O9    C16   A    
H2    C10   S    
O10   C15   A    
C10   C18   A    
C5    C17   A    
C31   H24   S    
O16   V4    S    
C22   H9    S    
O4    V3    S    
C29   H16   S    
N2    H17   S    
C25   C26   S    
C4    C7    S    
O5    V1    S    
O13   V1    S    
O6    V2    S    
O14   V2    S    
O15   C13   A    
C15   C22   S    
H6    C18   S    
C6    C9    A    
C31   H22   S    
O18   C16   A    
O17   V4    S    
N1    H13   S    
O9    V1    S    
O10   V2    S    
O1    V3    S    
C8    C11   A    
