data_mof_unit_2500.cif
_audit_creation_date              2012-12-10T16:53:28-0500
_audit_creation_method            fapswitch 2.2
_symmetry_space_group_name_H-M    P1
_symmetry_Int_Tables_number       1
_space_group_crystal_system       triclinic
_cell_length_a                    7.948526
_cell_length_b                    8.579943
_cell_length_c                    13.551437
_cell_angle_alpha                 92.949706
_cell_angle_beta                  78.925322
_cell_angle_gamma                 92.078748
_cell_volume                      905.439128662

loop_
_atom_site_label
_atom_site_type_symbol
_atom_type_description
_atom_site_fract_x
_atom_site_fract_y
_atom_site_fract_z
_atom_type_partial_charge
C1    C     C_R   0.543582 0.793008 0.494707 0.940059
C2    C     C_1   0.559160 0.475136 0.120280 -0.064103
C3    C     C_2   0.559278 0.951920 0.472261 -0.070982
C4    C     C_2   0.440715 0.048060 0.527627 -0.072576
C5    C     C_3   0.685294 0.995458 0.375434 -0.411746
C6    C     C_3   0.688514 0.875255 0.287670 -0.884460
C7    C     C_3   0.314866 0.004432 0.624499 -0.413326
C8    C     C_3   0.310559 0.125195 0.712065 -0.873821
C9    C     C_3   0.036318 0.381755 0.380162 -0.108499
C10   C     C_3   0.070022 0.494845 0.294185 -0.818488
C11   C     C_3   0.963696 0.614697 0.621050 -0.122052
C12   C     C_R   0.456429 0.206983 0.505228 0.940321
C13   C     C_3   0.929952 0.497522 0.704923 -0.787615
C14   C     C_R   0.471650 0.507657 0.686558 0.883779
C15   C     C_R   0.528658 0.493867 0.313352 0.887524
C16   C     C_1   0.547418 0.483254 0.208732 -0.211483
C17   C     C_1   0.455925 0.531014 0.790506 -0.221787
C18   C     C_2   0.560621 0.471173 0.015878 0.075159
C19   C     C_2   0.457079 0.566006 0.981077 0.105257
C20   C     C_1   0.450163 0.551405 0.878058 0.052618
H1    H     H_    0.262450 0.618601 0.097167 0.187164
H2    H     H_    0.442796 0.158378 0.722187 0.256935
H3    H     H_    0.241965 0.230085 0.699102 0.279088
H4    H     H_    0.239891 0.075163 0.782686 0.246259
H5    H     H_    0.183863 0.988929 0.607463 0.216089
H6    H     H_    0.348610 0.894432 0.654637 0.218912
H7    H     H_    0.954498 0.508993 0.261735 0.252313
H8    H     H_    0.112903 0.612012 0.319914 0.262341
H9    H     H_    0.169953 0.446550 0.232742 0.220522
H10   H     H_    0.152583 0.321902 0.388105 0.195499
H11   H     H_    0.948263 0.287269 0.359983 0.146518
H12   H     H_    0.427744 0.751314 0.081903 0.186582
H13   H     H_    0.885957 0.381979 0.677222 0.262438
H14   H     H_    0.045970 0.480079 0.736218 0.247674
H15   H     H_    0.831111 0.543388 0.767916 0.232796
H16   H     H_    0.051887 0.707823 0.642852 0.149284
H17   H     H_    0.847681 0.675936 0.613934 0.194903
H18   H     H_    0.793967 0.385477 0.957330 0.188332
H19   H     H_    0.633198 0.249788 0.975590 0.188656
H20   H     H_    0.756585 0.769852 0.300304 0.282513
H21   H     H_    0.555990 0.842955 0.277688 0.251445
H22   H     H_    0.759223 0.925338 0.217074 0.244572
H23   H     H_    0.652484 0.105968 0.345534 0.217900
H24   H     H_    0.816430 0.009785 0.392401 0.215763
N1    N     N_2   0.954190 0.457600 0.473930 -0.026280
N2    N     N_2   0.045810 0.542400 0.526070 -0.026966
N3    N     N_3   0.350607 0.678224 0.043938 -0.466136
N4    N     N_3   0.666748 0.361829 0.950253 -0.464656
O1    O     O_R   0.388300 0.738660 0.506400 -0.634288
O2    O     O_R   0.611700 0.261340 0.493600 -0.634148
O3    O     O_R   0.679920 0.711490 0.489690 -0.631822
O4    O     O_R   0.320080 0.288510 0.510310 -0.633158
O5    O     O_R   0.333200 0.515510 0.649910 -0.625359
O6    O     O_R   0.666800 0.484490 0.350090 -0.623892
O7    O     O_R   0.624820 0.488340 0.633200 -0.615315
O8    O     O_R   0.375180 0.511660 0.366800 -0.617396
Zn1   Zn    Zn3+2 0.305280 0.518140 0.511160 0.914715
Zn2   Zn    Zn3+2 0.694720 0.481860 0.488840 0.916426

loop_
_geom_bond_atom_site_label_1
_geom_bond_atom_site_label_2
_ccdc_geom_bond_type
C10   H7    S    
C12   O2    A    
C9    N1    S    
C2    C18   S    
C2    C16   T    
C9    C10   S    
C8    H2    S    
C19   C20   S    
C7    H5    S    
C3    C5    S    
C15   O8    A    
C14   O5    A    
C14   O7    A    
C5    H23   S    
C7    C8    S    
O3    Zn2   S    
N1    N2    D    
C13   H13   S    
C1    O3    A    
C14   C17   S    
C7    H6    S    
C1    O1    A    
C9    H10   S    
C4    C7    S    
C11   H16   S    
C12   O4    A    
C5    H24   S    
C13   H15   S    
C6    H20   S    
N2    Zn1   S    
C6    H22   S    
C5    C6    S    
H12   N3    S    
C19   N3    S    
N1    Zn2   S    
C4    C12   S    
O4    Zn1   S    
C9    H11   S    
C3    C4    D    
O2    Zn2   S    
C15   O6    A    
C10   H9    S    
C11   C13   S    
C8    H3    S    
O1    Zn1   S    
O8    Zn1   S    
C18   C19   D    
O6    Zn2   S    
O7    Zn2   S    
C10   H8    S    
C11   H17   S    
H1    N3    S    
O5    Zn1   S    
C11   N2    S    
C13   H14   S    
C8    H4    S    
H18   N4    S    
C17   C20   T    
C15   C16   S    
H19   N4    S    
C1    C3    S    
C6    H21   S    
C18   N4    S    
