data_mof_unit_3425.cif
_audit_creation_date              2012-12-10T16:47:56-0500
_audit_creation_method            fapswitch 2.2
_symmetry_space_group_name_H-M    P1
_symmetry_Int_Tables_number       1
_space_group_crystal_system       triclinic
_cell_length_a                    7.872395
_cell_length_b                    8.5663
_cell_length_c                    10.559189
_cell_angle_alpha                 91.675302
_cell_angle_beta                  84.351549
_cell_angle_gamma                 93.616551
_cell_volume                      707.024360628

loop_
_atom_site_label
_atom_site_type_symbol
_atom_type_description
_atom_site_fract_x
_atom_site_fract_y
_atom_site_fract_z
_atom_type_partial_charge
C1    C     C_R   0.545451 0.794337 0.496677 0.937097
C2    C     C_2   0.569374 0.958023 0.495572 -0.368596
C3    C     C_3   0.916452 0.649113 0.141728 -0.611088
C4    C     C_3   0.783864 0.852635 0.845067 -0.647152
C5    C     C_2   0.341297 0.654564 0.924025 0.924134
C6    C     C_2   0.022871 0.703966 0.538392 1.141411
C7    C     C_2   0.431372 0.041935 0.501695 -0.351331
C8    C     C_R   0.501722 0.520525 0.737169 0.882908
C9    C     C_R   0.454685 0.205668 0.502531 0.955397
C10   C     C_R   0.501640 0.502178 0.261750 0.927387
C11   C     C_2   0.635373 0.607890 0.063277 0.201252
C12   C     C_2   0.511799 0.514833 0.126673 -0.387635
C13   C     C_2   0.643759 0.611884 0.923216 0.117995
C14   C     C_2   0.499553 0.582093 0.867268 -0.270502
H1    H     H_    0.419379 0.441939 0.078227 0.129147
H2    H     H_    0.910733 0.910672 0.860286 0.236952
H3    H     H_    0.689241 0.901564 0.918456 0.257744
H4    H     H_    0.748695 0.882336 0.749819 0.230239
H5    H     H_    0.240339 0.850898 0.001662 0.334904
H6    H     H_    0.047646 0.906924 0.637363 0.308527
H7    H     H_    0.699910 0.008936 0.490878 0.192388
H8    H     H_    0.301221 0.991016 0.505331 0.195853
H9    H     H_    0.998781 0.352772 0.436894 0.185862
H10   H     H_    0.698867 0.766916 0.208424 0.239438
H11   H     H_    0.927026 0.619590 0.241804 0.271072
H12   H     H_    0.016703 0.741205 0.115083 0.237343
H13   H     H_    0.938701 0.542177 0.081795 0.244963
H14   H     H_    0.903440 0.649634 0.878600 0.296256
N1    N     N_2   0.950320 0.457950 0.466680 -0.214634
N2    N     N_2   0.049680 0.542050 0.533320 -0.152920
N3    N     N_2   0.751243 0.708636 0.128507 -0.297720
N4    N     N_2   0.789311 0.683850 0.852482 -0.260513
O1    O     O_R   0.389250 0.738570 0.508180 -0.610115
O2    O     O_R   0.354638 0.803767 0.981056 -0.813273
O3    O     O_2   0.000046 0.771599 0.441633 -0.679377
O4    O     O_R   0.056885 0.790555 0.647694 -0.814146
O5    O     O_R   0.678390 0.711630 0.486820 -0.614460
O6    O     O_R   0.355470 0.513470 0.691600 -0.574773
O7    O     O_R   0.644610 0.486520 0.670240 -0.600742
O8    O     O_R   0.321610 0.288370 0.513180 -0.635549
O9    O     O_R   0.610750 0.261430 0.491820 -0.615854
O10   O     O_R   0.355390 0.513480 0.329760 -0.621373
O11   O     O_R   0.644530 0.486530 0.308400 -0.610662
O12   O     O_2   0.201392 0.586576 0.917137 -0.650502
Zn1   Zn    Zn3+2 0.306940 0.517990 0.514260 0.994016
Zn2   Zn    Zn3+2 0.693060 0.482010 0.485740 0.960629

loop_
_geom_bond_atom_site_label_1
_geom_bond_atom_site_label_2
_ccdc_geom_bond_type
C4    H2    S    
C11   C12   D    
N1    N2    D    
C8    O7    A    
C10   O10   A    
C7    H8    S    
O1    Zn1   S    
N2    Zn1   S    
C9    O9    A    
C2    C7    D    
C12   H1    S    
C1    O5    A    
N1    Zn2   S    
O9    Zn2   S    
C4    H4    S    
C5    O2    S    
C2    H7    S    
C3    H13   S    
O5    Zn2   S    
H10   N3    S    
C1    O1    A    
C13   C14   D    
C3    N3    S    
C11   C13   S    
C5    C14   S    
C4    N4    S    
C8    O6    A    
O7    Zn2   S    
C4    H3    S    
H9    N1    S    
C6    N2    S    
C5    O12   D    
C6    O4    S    
C10   C12   S    
C9    O8    A    
O8    Zn1   S    
O11   Zn2   S    
C11   N3    S    
H6    O4    S    
H14   N4    S    
C3    H11   S    
C6    O3    D    
C1    C2    S    
C7    C9    S    
O6    Zn1   S    
C8    C14   S    
C13   N4    S    
C10   O11   A    
O10   Zn1   S    
C3    H12   S    
H5    O2    S    
