data_mof_unit_765.cif
_audit_creation_date              2013-03-05T16:48:16-0500
_audit_creation_method            fapswitch 2.2
_symmetry_space_group_name_H-M    P1
_symmetry_Int_Tables_number       1
_space_group_crystal_system       triclinic
_cell_length_a                    23.253377
_cell_length_b                    8.901643
_cell_length_c                    8.08974
_cell_angle_alpha                 90.084766
_cell_angle_beta                  90.098652
_cell_angle_gamma                 88.54014
_cell_volume                      1673.97393396

loop_
_atom_site_label
_atom_site_type_symbol
_atom_site_description
_atom_site_fract_x
_atom_site_fract_y
_atom_site_fract_z
_atom_type_partial_charge
O1    O     O_R   0.500000 0.285350 0.636850 -0.612660
O2    O     O_R   0.500000 0.714650 0.363150 -0.617988
O3    O     O_R   0.500000 0.714650 0.636850 -0.615340
O4    O     O_R   0.500000 0.285350 0.363150 -0.618150
H1    H     H_    0.965190 0.091869 0.561183 0.175902
H2    H     H_    0.034303 0.870538 0.611751 0.169643
H3    H     H_    0.930815 0.844327 0.646199 0.191253
H4    H     H_    0.069247 0.115947 0.587194 0.197310
C1    C     C_R   0.499303 0.218032 0.499934 0.933430
C2    C     C_R   0.500792 0.781961 0.500093 0.925234
O5    O     O_R   0.416160 0.500000 0.636910 -0.592359
O6    O     O_R   0.583840 0.500000 0.363090 -0.626050
O7    O     O_R   0.583840 0.500000 0.636910 -0.592307
O8    O     O_R   0.416160 0.500000 0.363090 -0.620609
C3    C     C_R   0.207313 0.531955 0.544964 -0.013253
C4    C     C_R   0.791948 0.438182 0.549750 -0.021684
C5    C     C_R   0.388805 0.505522 0.500082 1.010965
C6    C     C_R   0.611170 0.493501 0.500392 1.010718
Zn1   Zn    Zn3+2 0.500000 0.500000 0.682780 1.009729
Zn2   Zn    Zn3+2 0.500000 0.500000 0.317220 0.982112
C7    C     C_R   0.300974 0.619351 0.625395 0.372840
C8    C     C_R   0.696104 0.365568 0.625591 0.379776
C9    C     C_R   0.292136 0.447093 0.391722 0.287323
C10   C     C_R   0.709574 0.538462 0.395354 0.292158
C11   C     C_R   0.326247 0.526746 0.502557 -0.392478
C12   C     C_R   0.673308 0.463857 0.504205 -0.394763
C13   C     C_R   0.874235 0.583596 0.622759 0.606109
C14   C     C_R   0.125386 0.377514 0.599642 0.591320
C15   C     C_R   0.886965 0.322290 0.559675 0.446004
C16   C     C_R   0.111650 0.642480 0.565245 0.460940
N1    N     N_R   0.852086 0.446635 0.584827 -0.302546
N2    N     N_R   0.147102 0.517584 0.576126 -0.297886
C17   C     C_R   0.946224 0.330730 0.583969 -0.011864
C18   C     C_R   0.052956 0.631388 0.596755 -0.021236
C19   C     C_R   0.933702 0.601313 0.624312 -0.065350
C20   C     C_R   0.065907 0.358947 0.601326 -0.067316
C21   C     C_R   0.969787 0.472941 0.607420 -0.018470
C22   C     C_R   0.029643 0.487714 0.604949 -0.019422
C23   C     C_R   0.982569 0.202464 0.577541 -0.172703
C24   C     C_R   0.016872 0.759227 0.613136 -0.178133
C25   C     C_R   0.957778 0.744056 0.633082 -0.176174
C26   C     C_R   0.041971 0.216149 0.592251 -0.189388
C27   C     C_1   0.499656 0.065263 0.499919 -0.209828
C28   C     C_1   0.500284 0.934742 0.500139 -0.212455
C29   C     C_R   0.242055 0.609841 0.658616 0.335555
C30   C     C_R   0.755090 0.364771 0.660819 0.328931
C31   C     C_R   0.232127 0.456429 0.406844 0.365043
C32   C     C_R   0.769317 0.518156 0.411381 0.368364
N3    N     N_1   0.500000 0.500000 0.073640 -0.043989
N4    N     N_1   0.500000 0.500000 0.926360 -0.029423
O9    O     O_2   0.838748 0.703054 0.651703 -0.563523
O10   O     O_2   0.161172 0.256611 0.615977 -0.559196
O11   O     O_2   0.864496 0.192390 0.506877 -0.609754
O12   O     O_2   0.132822 0.775743 0.519203 -0.611644
O13   O     O_3   0.224931 0.627162 0.822277 -0.656746
C33   C     C_3   0.191510 0.759512 0.849531 0.124167
H5    H     H_    0.145881 0.727942 0.863265 0.159009
H6    H     H_    0.194451 0.843983 0.749024 0.183276
C34   C     C_3   0.210508 0.831946 0.011801 -0.389854
H7    H     H_    0.209527 0.747982 0.112952 0.221332
H8    H     H_    0.255432 0.870050 0.000530 0.222367
C35   C     C_3   0.171433 0.965872 0.057677 -0.903908
H9    H     H_    0.173088 0.053598 0.960399 0.277232
H10   H     H_    0.185957 0.014653 0.176597 0.293455
H11   H     H_    0.126341 0.929885 0.072443 0.269200
O14   O     O_3   0.771040 0.338804 0.824257 -0.653888
C36   C     C_3   0.806971 0.209836 0.843492 0.114064
H12   H     H_    0.852228 0.245423 0.851111 0.160371
H13   H     H_    0.802600 0.126308 0.742005 0.184424
C37   C     C_3   0.792528 0.133660 0.007204 -0.375602
H14   H     H_    0.793554 0.216998 0.109273 0.224931
H15   H     H_    0.748423 0.088926 0.001526 0.215744
C38   C     C_3   0.835229 0.005553 0.045905 -0.915050
H16   H     H_    0.823796 0.953143 0.165540 0.294534
H17   H     H_    0.879527 0.048597 0.056008 0.267594
H18   H     H_    0.834042 0.918876 0.947085 0.279577
O15   O     O_3   0.199559 0.361115 0.311194 -0.588285
C39   C     C_3   0.163319 0.443281 0.201309 0.051559
H19   H     H_    0.185057 0.447567 0.079437 0.194066
H20   H     H_    0.153942 0.561555 0.240273 0.125429
C40   C     C_3   0.105874 0.363156 0.184136 -0.317460
H21   H     H_    0.110694 0.243960 0.223901 0.262506
H22   H     H_    0.073106 0.418989 0.264541 0.204301
C41   C     C_3   0.083819 0.365781 0.007013 -0.934539
H23   H     H_    0.079086 0.483312 0.962019 0.258247
H24   H     H_    0.041503 0.311212 0.000161 0.271186
H25   H     H_    0.114448 0.301891 0.927119 0.286244
O16   O     O_3   0.804735 0.605537 0.315223 -0.590537
C42   C     C_3   0.837543 0.513894 0.205532 0.028167
H26   H     H_    0.812803 0.496656 0.090038 0.180373
H27   H     H_    0.849234 0.401474 0.257198 0.160516
C43   C     C_3   0.892827 0.593764 0.161304 -0.293154
H28   H     H_    0.881932 0.697397 0.090452 0.234059
H29   H     H_    0.915696 0.626411 0.275960 0.234745
C44   C     C_3   0.932835 0.493124 0.057997 -0.953491
H30   H     H_    0.947031 0.393025 0.130734 0.269420
H31   H     H_    0.971272 0.556687 0.021650 0.275712
H32   H     H_    0.910541 0.455661 0.944428 0.260484
O17   O     O_3   0.336144 0.700494 0.729014 -0.594885
C45   C     C_3   0.329445 0.856727 0.697459 0.097810
H33   H     H_    0.355947 0.915132 0.790814 0.141075
H34   H     H_    0.284965 0.897962 0.719400 0.138224
C46   C     C_3   0.350404 0.904694 0.524784 -0.410373
H35   H     H_    0.372887 0.012949 0.536449 0.211052
H36   H     H_    0.381614 0.820481 0.474421 0.223183
C47   C     C_3   0.300919 0.928584 0.401936 -0.820548
H37   H     H_    0.277199 0.823472 0.382586 0.235271
H38   H     H_    0.318389 0.964330 0.281016 0.256213
H39   H     H_    0.270576 0.017868 0.447140 0.296897
O18   O     O_3   0.658742 0.287009 0.724694 -0.592180
C48   C     C_3   0.665117 0.130054 0.696791 0.108068
H40   H     H_    0.635292 0.074536 0.783199 0.142622
H41   H     H_    0.708361 0.087053 0.731679 0.139226
C49   C     C_3   0.649183 0.080577 0.519689 -0.429870
H42   H     H_    0.626072 0.972974 0.526519 0.212513
H43   H     H_    0.619845 0.165062 0.460966 0.225074
C50   C     C_3   0.702010 0.053887 0.409966 -0.806055
H44   H     H_    0.726047 0.158680 0.392896 0.233900
H45   H     H_    0.688027 0.014579 0.286413 0.256577
H46   H     H_    0.731087 0.966319 0.464778 0.293509
O19   O     O_3   0.317631 0.336323 0.293858 -0.610969
C51   C     C_3   0.315090 0.375958 0.124798 0.197719
H47   H     H_    0.357502 0.419363 0.087243 0.165306
H48   H     H_    0.282158 0.464968 0.095049 0.138868
C52   C     C_3   0.303199 0.234100 0.024782 -0.386403
H49   H     H_    0.339964 0.152793 0.038696 0.213892
H50   H     H_    0.264030 0.181156 0.073613 0.261051
C53   C     C_3   0.294161 0.268371 0.842155 -0.883460
H51   H     H_    0.254746 0.339241 0.825768 0.305905
H52   H     H_    0.288356 0.162554 0.772614 0.257188
H53   H     H_    0.331939 0.326184 0.791340 0.273243
O20   O     O_3   0.687203 0.654515 0.299060 -0.611977
C54   C     C_3   0.686162 0.613436 0.130260 0.189785
H54   H     H_    0.642053 0.578495 0.097401 0.166646
H55   H     H_    0.716165 0.518427 0.097911 0.139274
C55   C     C_3   0.700785 0.751514 0.027873 -0.383859
H56   H     H_    0.667510 0.841451 0.048316 0.212011
H57   H     H_    0.742943 0.793742 0.069144 0.261684
C56   C     C_3   0.704052 0.715864 0.844048 -0.879476
H58   H     H_    0.739415 0.633010 0.820977 0.308147
H59   H     H_    0.713284 0.819244 0.773722 0.259508
H60   H     H_    0.662678 0.670971 0.799927 0.270114

loop_
_geom_bond_atom_site_label_1
_geom_bond_atom_site_label_2
_geom_bond_distance
_ccdc_geom_bond_type
O13   C33   1.411997 S    
C14   O10   1.350034 S    
C38   H16   1.110654 S    
C20   C26   1.402342 A    
C44   H30   1.111339 S    
C6    C12   1.462469 S    
C41   H25   1.108293 S    
C3    C31   1.419025 A    
C53   H51   1.107235 S    
C4    C32   1.420553 A    
C49   H42   1.111666 S    
C44   H32   1.109194 S    
C3    N2    1.432024 S    
C9    O19   1.385645 S    
O15   C39   1.415377 S    
C4    N1    1.430288 S    
C16   O12   1.349079 S    
O5    Zn1   1.983939 S    
C17   C23   1.404070 A    
C15   O11   1.349471 S    
O7    C6    1.275640 A    
C18   C24   1.402818 A    
C19   C21   1.407010 A    
C21   C22   1.401566 A    
H4    C26   1.081997 S    
C30   O14   1.390671 S    
C50   H45   1.109423 S    
C7    O17   1.385346 S    
C56   H60   1.109380 S    
C39   H20   1.114853 S    
C47   H37   1.108951 S    
C15   C17   1.395471 A    
C33   H5    1.110312 S    
O18   C48   1.419019 S    
C43   H28   1.110349 S    
C35   H10   1.110514 S    
C35   H9    1.110874 S    
C48   H40   1.110862 S    
O20   C54   1.413471 S    
C8    O18   1.386224 S    
C52   C53   1.522159 S    
C32   O16   1.387475 S    
O3    Zn1   1.947068 S    
C37   H14   1.109833 S    
C42   H27   1.112221 S    
C48   H41   1.103213 S    
C9    C11   1.400053 A    
O14   C36   1.411190 S    
C34   H7    1.109724 S    
C38   H17   1.110983 S    
O8    C5    1.279011 A    
C48   C49   1.545493 S    
C55   C56   1.521737 S    
C43   H29   1.110386 S    
C40   H22   1.110038 S    
C31   O15   1.385959 S    
C13   O9    1.349730 S    
C40   H21   1.112059 S    
C23   C26   1.394627 A    
C7    C29   1.401309 A    
C1    C27   1.359707 S    
C34   H8    1.110449 S    
C16   C18   1.394861 A    
C2    C28   1.359757 S    
C36   H12   1.108326 S    
C10   C32   1.402155 A    
O8    Zn2   1.985194 S    
C14   N2    1.370743 A    
C9    C31   1.401331 A    
C41   H23   1.110998 S    
C55   H57   1.109547 S    
C50   H46   1.111103 S    
C4    C30   1.414863 A    
O7    Zn1   1.985192 S    
C39   H19   1.109867 S    
C13   C19   1.395774 A    
O1    Zn1   1.945990 S    
O2    Zn2   1.945989 S    
C45   C46   1.544633 S    
C17   C21   1.404646 A    
C36   H13   1.113096 S    
C27   C28   1.161572 T    
Zn2   N3    1.970499 S    
C54   C55   1.528943 S    
C10   O20   1.385023 S    
O17   C45   1.418952 S    
O6    Zn2   1.983936 S    
C37   C38   1.525344 S    
C45   H34   1.103230 S    
O1    C1    1.258825 A    
C46   H36   1.107712 S    
C42   C43   1.528076 S    
C29   O13   1.390437 S    
O19   C51   1.413692 S    
C24   C25   1.393842 A    
C8    C30   1.400282 A    
H1    C23   1.081538 S    
C13   N1    1.369734 A    
C54   H54   1.111081 S    
C38   H18   1.111011 S    
H2    C24   1.080152 S    
C43   C44   1.524639 S    
C51   H48   1.114069 S    
O2    C2    1.259042 A    
C53   H53   1.109243 S    
Zn1   N4    1.970499 S    
C40   C41   1.521072 S    
C52   H50   1.109681 S    
C7    C11   1.409720 A    
O5    C5    1.276091 A    
C34   C35   1.526193 S    
C35   H11   1.110847 S    
C18   C22   1.403441 A    
C10   C12   1.400162 A    
C55   H56   1.111517 S    
C53   H52   1.107528 S    
C49   H43   1.109266 S    
C56   H58   1.106438 S    
C44   H31   1.110235 S    
C33   C34   1.531062 S    
C36   C37   1.530491 S    
C5    C11   1.462300 S    
C51   C52   1.529608 S    
C20   C22   1.405884 A    
C51   H47   1.111310 S    
C15   N1    1.370597 A    
O3    C2    1.259325 A    
C50   H44   1.108547 S    
C16   N2    1.369941 A    
C56   H59   1.108451 S    
C39   C40   1.536209 S    
C52   H49   1.111649 S    
C47   H38   1.109979 S    
C45   H33   1.110853 S    
C33   H6    1.111664 S    
C46   C47   1.530099 S    
H3    C25   1.082812 S    
C19   C25   1.403163 A    
C49   C50   1.530220 S    
O4    Zn2   1.947069 S    
O16   C42   1.415414 S    
C14   C20   1.397211 A    
N3    N4    1.191456 T    
C8    C12   1.409940 A    
O6    C6    1.279389 A    
C46   H35   1.111786 S    
C54   H55   1.113740 S    
C3    C29   1.415190 A    
C41   H24   1.109652 S    
C37   H15   1.110443 S    
O4    C1    1.259489 A    
C42   H26   1.108898 S    
C47   H39   1.111174 S    
