data_mof_unit_1126.cif
_audit_creation_date              2012-12-10T18:11:07-0500
_audit_creation_method            fapswitch 2.2
_symmetry_space_group_name_H-M    P1
_symmetry_Int_Tables_number       1
_space_group_crystal_system       triclinic
_cell_length_a                    11.318175
_cell_length_b                    9.910697
_cell_length_c                    11.276638
_cell_angle_alpha                 90.177819
_cell_angle_beta                  89.475221
_cell_angle_gamma                 90.904464
_cell_volume                      1264.69560655

loop_
_atom_site_label
_atom_site_type_symbol
_atom_type_description
_atom_site_fract_x
_atom_site_fract_y
_atom_site_fract_z
_atom_type_partial_charge
C1    C     C_R   0.262263 0.499238 0.501609 0.778304
C2    C     C_3   0.481836 0.496967 0.119341 -0.088170
C3    C     C_3   0.082853 0.643033 0.532682 -0.372107
C4    C     C_3   0.077025 0.411600 0.606848 -0.354646
C5    C     C_3   0.944534 0.652493 0.544074 0.335593
C6    C     C_3   0.938847 0.393933 0.604022 0.290000
C7    C     C_3   0.075592 0.450526 0.375859 -0.029766
C8    C     C_3   0.126068 0.498718 0.501828 -0.106227
C9    C     C_3   0.883720 0.503027 0.508409 0.054810
C10   C     C_3   0.931923 0.462128 0.376708 0.150619
C11   C     C_3   0.609444 0.084155 0.552879 0.027855
C12   C     C_3   0.612950 0.923273 0.545452 0.087084
C13   C     C_3   0.396736 0.079572 0.572417 0.144772
C14   C     C_3   0.401070 0.917522 0.578673 0.097052
C15   C     C_3   0.488395 0.083211 0.377079 0.048692
C16   C     C_3   0.479011 0.914485 0.378200 0.082631
C17   C     C_R   0.493066 0.499375 0.259347 0.811831
C18   C     C_R   0.740599 0.501262 0.506609 0.722763
C19   C     C_R   0.498571 0.499848 0.738859 0.809696
C20   C     C_3   0.429334 0.606110 0.034337 0.129398
C21   C     C_3   0.429059 0.385495 0.033166 0.142995
C22   C     C_3   0.379085 0.495256 0.950853 0.014026
C23   C     C_3   0.493280 0.498558 0.874676 -0.285793
C24   C     C_3   0.542709 0.609109 0.957619 -0.029575
C25   C     C_3   0.543179 0.389023 0.957044 -0.048697
C26   C     C_3   0.595049 0.500266 0.039377 -0.130005
Cu1   Cu    Cu3+1 0.499860 0.642410 0.500060 0.948681
Cu2   Cu    Cu3+1 0.499860 0.357590 0.500060 0.941724
H1    H     H_    0.682736 0.120111 0.499544 0.182422
H2    H     H_    0.683189 0.903300 0.480857 0.191895
H3    H     H_    0.315778 0.098866 0.523442 0.179683
H4    H     H_    0.315929 0.883391 0.543404 0.139795
H5    H     H_    0.122326 0.718525 0.472334 0.226348
H6    H     H_    0.122897 0.314046 0.614398 0.219832
H7    H     H_    0.126869 0.676344 0.615750 0.175880
H8    H     H_    0.104655 0.460004 0.690630 0.177786
N1    N     N_3   0.500250 0.143650 0.502780 -0.204728
N2    N     N_3   0.500250 0.856350 0.502780 -0.183621
O1    O     O_R   0.317570 0.620260 0.500070 -0.616764
O2    O     O_R   0.317570 0.379740 0.500070 -0.578966
O3    O     O_R   0.499850 0.620240 0.316900 -0.575870
O4    O     O_R   0.499850 0.379760 0.316900 -0.573425
O5    O     O_R   0.682190 0.620260 0.500030 -0.562045
O6    O     O_R   0.682190 0.379740 0.500030 -0.610855
O7    O     O_R   0.499910 0.620280 0.683200 -0.594976
O8    O     O_R   0.499910 0.379720 0.683200 -0.608282
C27   C     C_2   0.256208 0.503142 0.901929 0.833795
O9    O     O_2   0.177484 0.426124 0.935336 -0.572110
O10   O     O_R   0.230966 0.607908 0.825162 -0.835147
H9    H     H_    0.143936 0.627488 0.824608 0.309534
C28   C     C_3   0.889640 0.564029 0.283326 -0.728569
H10   H     H_    0.791967 0.568682 0.284394 0.243704
H11   H     H_    0.921526 0.666648 0.284574 0.258683
H12   H     H_    0.923693 0.532707 0.195743 0.261593
C29   C     C_3   0.868965 0.331732 0.324509 -0.739740
H13   H     H_    0.886291 0.234392 0.363744 0.232637
H14   H     H_    0.772230 0.341990 0.316325 0.268871
H15   H     H_    0.899190 0.313147 0.233050 0.278766
C30   C     C_3   0.645190 0.142580 0.672846 -0.719871
H16   H     H_    0.732343 0.105766 0.700790 0.202428
H17   H     H_    0.659419 0.251278 0.669220 0.299406
H18   H     H_    0.582650 0.113651 0.742064 0.251960
C31   C     C_3   0.663548 0.861800 0.657283 -0.763517
H19   H     H_    0.659263 0.753266 0.659025 0.304896
H20   H     H_    0.757156 0.891881 0.664011 0.188131
H21   H     H_    0.622920 0.899665 0.738175 0.244651
C32   C     C_3   0.352798 0.149565 0.688005 -0.752046
H22   H     H_    0.406106 0.134156 0.767664 0.238699
H23   H     H_    0.332807 0.256283 0.675889 0.269862
H24   H     H_    0.263384 0.109753 0.711596 0.173857
C33   C     C_3   0.376190 0.856766 0.702442 -0.709611
H25   H     H_    0.344071 0.752253 0.693620 0.295502
H26   H     H_    0.447269 0.866942 0.766167 0.266682
H27   H     H_    0.298395 0.902639 0.745561 0.188514
C34   C     C_3   0.373594 0.135725 0.316201 -0.712613
H28   H     H_    0.290699 0.091649 0.346636 0.212394
H29   H     H_    0.353119 0.241898 0.322970 0.294491
H30   H     H_    0.373817 0.102959 0.224527 0.212966
C35   C     C_3   0.355664 0.858703 0.330271 -0.814275
H31   H     H_    0.273425 0.890254 0.374146 0.198643
H32   H     H_    0.341135 0.891100 0.238815 0.218142
H33   H     H_    0.345639 0.749947 0.331997 0.294392
C36   C     C_2   0.594830 0.130615 0.294502 0.911188
O11   O     O_2   0.577047 0.191463 0.202528 -0.528227
O12   O     O_R   0.709088 0.081505 0.310105 -0.854757
H34   H     H_    0.762632 0.097459 0.238745 0.357758
C37   C     C_2   0.566765 0.862941 0.282803 0.945004
O13   O     O_2   0.553264 0.895483 0.179574 -0.574430
O14   O     O_R   0.665351 0.787909 0.309338 -0.763477
H35   H     H_    0.719642 0.777109 0.238203 0.349569
C38   C     C_3   0.350515 0.724004 0.062791 -0.778916
H36   H     H_    0.399201 0.819753 0.065924 0.298337
H37   H     H_    0.281205 0.739948 0.996474 0.241808
H38   H     H_    0.308022 0.700018 0.146970 0.241712
C39   C     C_3   0.353257 0.258368 0.045419 -0.711884
H39   H     H_    0.307947 0.234847 0.960942 0.224925
H40   H     H_    0.408117 0.170552 0.059465 0.281681
H41   H     H_    0.286762 0.271359 0.116273 0.286497
C40   C     C_2   0.610415 0.734370 0.924134 0.916655
O15   O     O_2   0.569194 0.844778 0.944339 -0.599878
O16   O     O_R   0.723890 0.724444 0.876488 -0.774387
H42   H     H_    0.767700 0.814476 0.874793 0.331113
C41   C     C_2   0.615651 0.268926 0.926078 0.932436
O17   O     O_2   0.709264 0.287121 0.875549 -0.647258
O18   O     O_R   0.583948 0.139077 0.962143 -0.719197
H43   H     H_    0.649762 0.073058 0.946629 0.368497
C42   C     C_2   0.723827 0.505044 0.066566 0.862014
O19   O     O_2   0.775413 0.613761 0.071876 -0.609204
O20   O     O_R   0.787322 0.385961 0.070100 -0.741402
H44   H     H_    0.873652 0.400057 0.048027 0.347288
C43   C     C_3   0.916803 0.694589 0.674077 -0.811669
H45   H     H_    0.929719 0.803636 0.692847 0.217056
H46   H     H_    0.826911 0.662736 0.698814 0.265573
H47   H     H_    0.979711 0.656648 0.737629 0.209575
C44   C     C_3   0.887022 0.408859 0.732485 -0.712339
H48   H     H_    0.793871 0.441150 0.730396 0.238916
H49   H     H_    0.892038 0.314679 0.784335 0.276170
H50   H     H_    0.937870 0.471955 0.794282 0.225000
C45   C     C_3   0.908031 0.779937 0.471139 -0.790439
H51   H     H_    0.973140 0.813565 0.403218 0.236799
H52   H     H_    0.824514 0.763922 0.428197 0.288562
H53   H     H_    0.899208 0.874770 0.522433 0.211818
C46   C     C_3   0.916207 0.241800 0.577780 -0.840697
H54   H     H_    0.827433 0.226690 0.548470 0.255047
H55   H     H_    0.976059 0.195727 0.514501 0.259811
H56   H     H_    0.930668 0.174241 0.654509 0.213577
C47   C     C_2   0.135566 0.538501 0.277426 0.774558
O21   O     O_2   0.195009 0.487304 0.198777 -0.579050
O22   O     O_R   0.120842 0.678016 0.274729 -0.828870
H57   H     H_    0.126504 0.717285 0.192135 0.333332
C48   C     C_2   0.111200 0.303565 0.347491 0.801372
O23   O     O_2   0.149903 0.230358 0.423607 -0.671342
O24   O     O_R   0.097212 0.250896 0.232886 -0.745065
H58   H     H_    0.118407 0.152099 0.226642 0.325484

loop_
_geom_bond_atom_site_label_1
_geom_bond_atom_site_label_2
_ccdc_geom_bond_type
C7    C10   S    
C15   C34   S    
C29   H13   S    
C31   H20   S    
O16   H42   S    
C24   C40   S    
C14   C33   S    
C43   H45   S    
C4    C8    S    
C6    C9    S    
C4    H8    S    
C19   O8    A    
C46   H54   S    
C27   O10   S    
O12   H34   S    
Cu2   O8    S    
C5    C45   S    
C24   C26   S    
C46   H55   S    
C38   H37   S    
C3    H5    S    
Cu1   N2    S    
C15   C16   S    
C1    C8    S    
C11   N1    S    
C17   O4    A    
C15   N1    S    
C41   O17   D    
C1    O2    A    
C43   H46   S    
C20   C24   S    
Cu1   O1    S    
C44   H49   S    
C16   C37   S    
C23   C24   S    
C9    C10   S    
C7    C48   S    
Cu1   O7    S    
C22   C27   S    
C31   H21   S    
C30   H16   S    
C21   C22   S    
C2    C17   S    
C42   O20   S    
C6    C46   S    
C11   C30   S    
C10   C28   S    
C45   H52   S    
C20   C38   S    
C4    H6    S    
C30   H17   S    
C2    C20   S    
C32   H22   S    
C27   O9    D    
C7    C8    S    
C41   O18   S    
C3    C8    S    
C38   H36   S    
C35   H32   S    
C12   C31   S    
C25   C41   S    
C46   H56   S    
C15   C36   S    
C5    C43   S    
C3    C5    S    
C25   C26   S    
Cu2   O6    S    
C28   H10   S    
C28   H11   S    
C19   C23   S    
C34   H28   S    
C47   O22   S    
C5    C9    S    
C18   O6    A    
C14   N2    S    
Cu1   O3    S    
C36   O11   D    
C3    H7    S    
C42   O19   D    
C44   H50   S    
C2    C21   S    
C19   O7    A    
C2    C26   S    
C45   H51   S    
C10   C29   S    
C34   H29   S    
C33   H27   S    
C4    C6    S    
C36   O12   S    
C20   C22   S    
C29   H14   S    
O24   H58   S    
C48   O23   D    
Cu1   Cu2   S    
C33   H26   S    
O22   H57   S    
C13   C32   S    
C45   H53   S    
C21   C25   S    
C30   H18   S    
C12   H2    S    
C13   N1    S    
C13   H3    S    
C14   H4    S    
C31   H19   S    
C48   O24   S    
C26   C42   S    
C35   H33   S    
C11   C12   S    
C39   H40   S    
C47   O21   D    
C21   C39   S    
O18   H43   S    
C40   O15   D    
C16   C35   S    
C7    C47   S    
C28   H12   S    
C37   O14   S    
C33   H25   S    
C18   O5    A    
C38   H38   S    
Cu2   N1    S    
Cu2   O4    S    
C43   H47   S    
C23   C25   S    
C12   N2    S    
C34   H30   S    
C17   O3    A    
C6    C44   S    
C1    O1    A    
C35   H31   S    
Cu1   O5    S    
C9    C18   S    
C11   H1    S    
C37   O13   D    
O10   H9    S    
C29   H15   S    
O20   H44   S    
C39   H39   S    
Cu2   O2    S    
C22   C23   S    
C32   H24   S    
C32   H23   S    
O14   H35   S    
C13   C14   S    
C39   H41   S    
C40   O16   S    
C44   H48   S    
C16   N2    S    
