data_mof_unit_1823.cif
_audit_creation_date              2013-03-05T15:44:36-0500
_audit_creation_method            fapswitch 2.2
_symmetry_space_group_name_H-M    P1
_symmetry_Int_Tables_number       1
_space_group_crystal_system       triclinic
_cell_length_a                    19.017116
_cell_length_b                    11.216628
_cell_length_c                    18.817351
_cell_angle_alpha                 89.385654
_cell_angle_beta                  90.813118
_cell_angle_gamma                 91.395281
_cell_volume                      4012.07953748

loop_
_atom_site_label
_atom_site_type_symbol
_atom_site_description
_atom_site_fract_x
_atom_site_fract_y
_atom_site_fract_z
_atom_type_partial_charge
O1    O     O_R   0.787540 0.042690 0.170470 -0.485263
O2    O     O_R   0.212460 0.042690 0.829530 -0.515328
O3    O     O_R   0.287540 0.542690 0.170470 -0.484475
O4    O     O_R   0.712460 0.542690 0.829530 -0.492653
O5    O     O_R   0.765660 0.292160 0.175050 -0.483834
O6    O     O_R   0.234340 0.292160 0.824950 -0.437982
O7    O     O_R   0.265660 0.792160 0.175050 -0.477963
O8    O     O_R   0.734340 0.792160 0.824950 -0.452373
C1    C     C_R   0.731378 0.376734 0.146769 0.578477
C2    C     C_R   0.288793 0.332515 0.862318 0.549324
C3    C     C_R   0.231027 0.875509 0.146152 0.589987
C4    C     C_R   0.787028 0.837236 0.862754 0.534694
O9    O     O_R   0.670190 0.408980 0.168550 -0.484391
O10   O     O_R   0.329810 0.408980 0.831450 -0.374641
O11   O     O_R   0.170190 0.908980 0.168550 -0.478522
O12   O     O_R   0.829810 0.908980 0.831450 -0.389080
O13   O     O_R   0.556580 0.251450 0.175160 -0.546354
O14   O     O_R   0.443420 0.251450 0.824840 -0.498252
O15   O     O_R   0.056580 0.751450 0.175160 -0.543027
O16   O     O_R   0.943420 0.751450 0.824840 -0.489976
C5    C     C_R   0.531649 0.156945 0.147019 0.549357
C6    C     C_R   0.464317 0.153405 0.854744 0.522593
C7    C     C_R   0.029680 0.657206 0.148305 0.568563
C8    C     C_R   0.964446 0.653215 0.854987 0.515869
O17   O     O_R   0.545920 0.049510 0.170320 -0.442017
O18   O     O_R   0.454080 0.049510 0.829680 -0.457454
O19   O     O_R   0.045920 0.549510 0.170320 -0.416539
O20   O     O_R   0.954080 0.549510 0.829680 -0.464850
O21   O     O_R   0.681390 0.957840 0.176710 -0.432407
O22   O     O_R   0.318610 0.957840 0.823290 -0.432243
O23   O     O_R   0.181390 0.457840 0.176710 -0.420430
O24   O     O_R   0.818610 0.457840 0.823290 -0.413049
C9    C     C_R   0.740626 0.966224 0.148606 0.590574
C10   C     C_R   0.261268 0.980530 0.855681 0.574315
C11   C     C_R   0.240276 0.467473 0.147687 0.593333
C12   C     C_R   0.770373 0.509772 0.859965 0.542677
O25   O     O_R   0.787500 0.044280 0.330990 -0.424181
O26   O     O_R   0.212500 0.044280 0.669010 -0.410600
O27   O     O_R   0.287500 0.544280 0.330990 -0.424296
O28   O     O_R   0.712500 0.544280 0.669010 -0.406398
O29   O     O_R   0.765610 0.293630 0.323860 -0.446832
O30   O     O_R   0.234390 0.293630 0.676140 -0.428237
O31   O     O_R   0.265610 0.793630 0.323860 -0.446099
O32   O     O_R   0.734390 0.793630 0.676140 -0.431287
C13   C     C_R   0.729980 0.374493 0.353491 0.574733
C14   C     C_R   0.286117 0.336311 0.639443 0.523294
C15   C     C_R   0.230096 0.874699 0.353398 0.572758
C16   C     C_R   0.786026 0.836634 0.639432 0.522060
O33   O     O_R   0.670140 0.410570 0.329080 -0.459312
O34   O     O_R   0.329860 0.410570 0.670920 -0.436963
O35   O     O_R   0.170140 0.910570 0.329080 -0.462733
O36   O     O_R   0.829860 0.910570 0.670920 -0.440482
O37   O     O_R   0.556540 0.252920 0.323970 -0.451531
O38   O     O_R   0.443460 0.252920 0.676030 -0.493158
O39   O     O_R   0.056540 0.752920 0.323970 -0.454306
O40   O     O_R   0.943460 0.752920 0.676030 -0.491475
C17   C     C_R   0.531470 0.157695 0.352560 0.575738
C18   C     C_R   0.466043 0.156823 0.645375 0.563523
C19   C     C_R   0.031379 0.657672 0.352495 0.573157
C20   C     C_R   0.965898 0.656750 0.645281 0.564234
O41   O     O_R   0.545870 0.051100 0.330840 -0.477922
O42   O     O_R   0.454130 0.051100 0.669160 -0.460435
O43   O     O_R   0.045870 0.551100 0.330840 -0.479373
O44   O     O_R   0.954130 0.551100 0.669160 -0.460445
O45   O     O_R   0.681340 0.959300 0.325510 -0.509858
O46   O     O_R   0.318660 0.959300 0.674490 -0.477117
O47   O     O_R   0.181340 0.459300 0.325510 -0.514435
O48   O     O_R   0.818660 0.459300 0.674490 -0.480467
C21   C     C_R   0.744240 0.960690 0.349073 0.587588
C22   C     C_R   0.269519 0.014445 0.637048 0.494862
C23   C     C_R   0.244247 0.460666 0.349078 0.582237
C24   C     C_R   0.770344 0.517212 0.638652 0.504762
Cr1   Cr    Cr6+3 0.772000 0.169640 0.250110 1.166683
Cr2   Cr    Cr6+3 0.228000 0.169640 0.749890 1.180782
Cr3   Cr    Cr6+3 0.272000 0.669640 0.250110 1.178334
Cr4   Cr    Cr6+3 0.728000 0.669640 0.749890 1.179421
Cr5   Cr    Cr6+3 0.614960 0.323350 0.249260 1.124382
Cr6   Cr    Cr6+3 0.385040 0.323350 0.750740 1.159334
Cr7   Cr    Cr6+3 0.114960 0.823350 0.249260 1.122796
Cr8   Cr    Cr6+3 0.885040 0.823350 0.750740 1.150219
Cr9   Cr    Cr6+3 0.616670 0.010620 0.250840 1.143559
Cr10  Cr    Cr6+3 0.383330 0.010620 0.749160 1.161226
Cr11  Cr    Cr6+3 0.116670 0.510620 0.250840 1.153747
Cr12  Cr    Cr6+3 0.883330 0.510620 0.749160 1.159388
O49   O     O_3   0.667880 0.167870 0.250070 -0.312296
O50   O     O_3   0.332120 0.167870 0.749930 -0.403004
O51   O     O_3   0.167880 0.667870 0.250070 -0.312675
O52   O     O_3   0.832120 0.667870 0.749930 -0.410396
H1    H     H_    0.426202 0.029686 0.083450 0.185399
H2    H     H_    0.407036 0.017233 0.955340 0.149860
H3    H     H_    0.933168 0.515801 0.082801 0.183009
H4    H     H_    0.915381 0.504071 0.954594 0.167492
C25   C     C_R   0.484007 0.156786 0.929325 0.056346
C26   C     C_R   0.500053 0.177665 0.076250 0.014537
C27   C     C_R   0.984699 0.655268 0.929950 0.044413
C28   C     C_R   0.996230 0.677202 0.077902 0.020156
C29   C     C_R   0.528236 0.247437 0.956069 0.055343
C30   C     C_R   0.529485 0.267270 0.029948 0.016979
C31   C     C_R   0.025044 0.749488 0.958154 0.061088
C32   C     C_R   0.022356 0.770439 0.031940 0.022464
C33   C     C_R   0.452620 0.093199 0.048723 -0.082144
C34   C     C_R   0.444244 0.083485 0.975729 -0.086034
C35   C     C_R   0.956042 0.584199 0.048770 -0.066229
C36   C     C_R   0.948844 0.575067 0.975618 -0.079885
C37   C     C_R   0.565670 0.325749 0.910228 -0.028580
C38   C     C_R   0.556731 0.378730 0.053691 -0.046119
C39   C     C_R   0.062831 0.829169 0.913608 -0.048568
C40   C     C_R   0.043391 0.885243 0.055785 -0.052027
C41   C     C_R   0.083905 0.940283 0.938602 -0.064602
C42   C     C_R   0.071762 0.969611 0.008637 -0.039058
C43   C     C_R   0.592216 0.433644 0.935417 -0.057285
C44   C     C_R   0.586883 0.460510 0.006635 -0.056767
H5    H     H_    0.569410 0.309012 0.853898 0.163016
H6    H     H_    0.547885 0.412034 0.106160 0.191042
H7    H     H_    0.070355 0.810634 0.857938 0.148129
H8    H     H_    0.031836 0.915912 0.108419 0.169753
H9    H     H_    0.104964 0.006676 0.902386 0.197467
H10   H     H_    0.081115 0.059958 0.025189 0.215480
H11   H     H_    0.612561 0.500002 0.899101 0.199090
H12   H     H_    0.604184 0.546664 0.025334 0.210709
C45   C     C_R   0.692484 0.868701 0.035831 0.222200
C46   C     C_R   0.281790 0.843868 0.958090 0.177126
C47   C     C_R   0.192374 0.373542 0.032904 0.260906
C48   C     C_R   0.781729 0.359026 0.958276 0.216648
C49   C     C_R   0.705273 0.863005 0.962778 0.143792
C50   C     C_R   0.289813 0.833236 0.032065 0.148768
C51   C     C_R   0.207033 0.353031 0.961873 0.142512
C52   C     C_R   0.788788 0.340760 0.031493 0.146172
C53   C     C_R   0.774937 0.867707 0.937422 -0.041062
C54   C     C_R   0.256889 0.914997 0.076681 -0.017361
C55   C     C_R   0.277329 0.355995 0.938086 -0.047696
C56   C     C_R   0.758293 0.420566 0.078718 -0.032305
C57   C     C_R   0.831836 0.895869 0.985642 0.156556
C58   C     C_R   0.237664 0.024597 0.049900 0.146418
C59   C     C_R   0.333549 0.383270 0.987762 0.156087
C60   C     C_R   0.744530 0.535288 0.055771 0.148711
C61   C     C_R   0.818087 0.898212 0.057707 -0.096498
C62   C     C_R   0.237511 0.042729 0.976766 -0.232132
C63   C     C_R   0.317702 0.386815 0.059584 -0.108973
C64   C     C_R   0.747361 0.561335 0.983257 -0.239480
H13   H     H_    0.861327 0.918230 0.094199 0.182153
H14   H     H_    0.222677 0.127776 0.955624 0.150594
H15   H     H_    0.359973 0.402657 0.097860 0.181449
H16   H     H_    0.736093 0.649080 0.964972 0.121315
C65   C     C_R   0.749718 0.900806 0.082266 0.019416
C66   C     C_R   0.256248 0.950861 0.930630 -0.093202
C67   C     C_R   0.249174 0.400674 0.081174 0.025454
C68   C     C_R   0.763337 0.473021 0.934148 -0.089320
C69   C     C_R   0.471021 0.069580 0.454517 0.102627
C70   C     C_R   0.474515 0.059595 0.528260 0.111602
C71   C     C_R   0.970563 0.569422 0.454237 0.104365
C72   C     C_R   0.973878 0.559294 0.528022 0.113828
C73   C     C_R   0.488979 0.161607 0.570570 -0.053860
C74   C     C_R   0.498068 0.172649 0.422058 -0.059325
C75   C     C_R   0.988561 0.661334 0.570375 -0.053461
C76   C     C_R   0.997720 0.672531 0.421871 -0.058680
C77   C     C_R   0.509022 0.270108 0.538058 0.127694
C78   C     C_R   0.512513 0.277035 0.463376 0.137152
C79   C     C_R   0.008619 0.769858 0.537861 0.128017
C80   C     C_R   0.012011 0.776908 0.463191 0.136376
C81   C     C_R   0.823352 0.891822 0.447038 -0.097324
C82   C     C_R   0.234429 0.055210 0.515736 -0.127891
C83   C     C_R   0.323510 0.391196 0.446914 -0.101091
C84   C     C_R   0.736787 0.558008 0.515089 -0.130148
H17   H     H_    0.869133 0.914133 0.416073 0.199368
H18   H     H_    0.217227 0.138512 0.532409 0.145345
H19   H     H_    0.369294 0.413729 0.415979 0.197775
H20   H     H_    0.721060 0.642411 0.530462 0.136888
C85   C     C_R   0.830750 0.871487 0.519763 -0.155539
C86   C     C_R   0.232682 0.027173 0.444616 -0.124430
C87   C     C_R   0.330909 0.370717 0.519662 -0.159933
C88   C     C_R   0.734137 0.528251 0.443957 -0.123581
H21   H     H_    0.882807 0.872276 0.542964 0.161706
H22   H     H_    0.211809 0.090895 0.406653 0.159253
H23   H     H_    0.382972 0.371733 0.542903 0.159969
H24   H     H_    0.714266 0.592201 0.405284 0.156489
C89   C     C_R   0.771794 0.856559 0.563219 0.014005
C90   C     C_R   0.253190 0.914437 0.423935 0.027920
C91   C     C_R   0.271948 0.355508 0.563097 0.010910
C92   C     C_R   0.752919 0.414288 0.424088 0.031803
C93   C     C_R   0.703614 0.849677 0.530672 0.198929
C94   C     C_R   0.279794 0.834772 0.477088 0.251506
C95   C     C_R   0.203793 0.348255 0.530458 0.201905
C96   C     C_R   0.777765 0.334405 0.477951 0.250255
C97   C     C_R   0.697820 0.866204 0.457405 -0.091151
C98   C     C_R   0.273986 0.861433 0.547867 -0.037785
C99   C     C_R   0.198023 0.365054 0.457200 -0.088510
C100  C     C_R   0.772533 0.363004 0.548725 -0.035679
H25   H     H_    0.646071 0.866324 0.432979 0.199003
H26   H     H_    0.287000 0.796886 0.589143 0.218060
H27   H     H_    0.146290 0.365311 0.432766 0.202496
H28   H     H_    0.784497 0.298300 0.590020 0.216326
C101  C     C_R   0.756452 0.895655 0.416175 0.010569
C102  C     C_R   0.256816 0.974098 0.566432 -0.003043
C103  C     C_R   0.256599 0.395050 0.416027 0.009294
C104  C     C_R   0.758312 0.477830 0.566745 -0.002567
S1    S     S_3+6 0.623497 0.813340 0.574498 0.064361
O53   O     O_2   0.626754 0.703608 0.620547 -0.219404
O54   O     O_2   0.604552 0.916859 0.619826 -0.193968
O55   O     O_3   0.560670 0.785793 0.512901 -0.494959
H29   H     H_    0.557903 0.696125 0.508305 0.396464
S2    S     S_3+6 0.308971 0.692848 0.463797 0.033178
O56   O     O_2   0.241586 0.624215 0.451845 -0.297912
O57   O     O_2   0.358003 0.690936 0.401882 -0.240395
O58   O     O_3   0.350706 0.637499 0.536135 -0.496718
H30   H     H_    0.393194 0.599089 0.517331 0.396068
S3    S     S_3+6 0.123319 0.314128 0.574354 0.062037
O59   O     O_2   0.126053 0.205416 0.621373 -0.224343
O60   O     O_2   0.104694 0.419088 0.618673 -0.193563
O61   O     O_3   0.060572 0.286055 0.512658 -0.506169
H31   H     H_    0.050082 0.198972 0.515503 0.404333
S4    S     S_3+6 0.805663 0.191582 0.465074 0.030147
O62   O     O_2   0.738038 0.125006 0.450886 -0.295510
O63   O     O_2   0.856259 0.189045 0.404497 -0.242477
O64   O     O_3   0.844965 0.134595 0.538289 -0.504586
H32   H     H_    0.891063 0.106091 0.522052 0.394530
S5    S     S_3+6 0.602549 0.848660 0.061038 0.119704
O65   O     O_2   0.569187 0.962912 0.040731 -0.264189
O66   O     O_2   0.567499 0.751530 0.018179 -0.207477
O67   O     O_3   0.586697 0.815606 0.146872 -0.438262
H33   H     H_    0.536061 0.792954 0.148429 0.380516
S6    S     S_3+6 0.302719 0.725165 0.900742 0.119646
O68   O     O_2   0.380572 0.729421 0.887584 -0.135850
O69   O     O_2   0.282644 0.608103 0.934514 -0.248264
O70   O     O_3   0.259011 0.733984 0.822424 -0.480925
H34   H     H_    0.213745 0.689974 0.829901 0.362890
S7    S     S_3+6 0.103445 0.400611 0.052594 0.101332
O71   O     O_2   0.105103 0.533866 0.051776 -0.308881
O72   O     O_2   0.049581 0.359184 0.998283 -0.188114
O73   O     O_3   0.078746 0.340830 0.131401 -0.443629
H35   H     H_    0.039774 0.283209 0.120504 0.379195
S8    S     S_3+6 0.795009 0.239129 0.899235 0.123188
O74   O     O_2   0.869714 0.245612 0.874143 -0.150520
O75   O     O_2   0.781778 0.122056 0.936171 -0.250191
O76   O     O_3   0.739444 0.247437 0.828854 -0.491198
H36   H     H_    0.717800 0.166098 0.823621 0.384004
N1    N     N_R   0.646852 0.869446 0.913573 0.146389
O77   O     O_R   0.615434 0.772872 0.890112 -0.251858
O78   O     O_R   0.627469 0.972851 0.889420 -0.281671
N2    N     N_R   0.342724 0.758310 0.061090 0.132651
O79   O     O_R   0.335199 0.643752 0.058818 -0.235482
O80   O     O_R   0.399977 0.805457 0.088944 -0.323981
N3    N     N_R   0.149458 0.348837 0.911624 0.143926
O81   O     O_R   0.117535 0.247571 0.897223 -0.289067
O82   O     O_R   0.131963 0.445096 0.876971 -0.252268
N4    N     N_R   0.842731 0.264744 0.056632 0.115818
O83   O     O_R   0.827964 0.151909 0.064718 -0.254847
O84   O     O_R   0.908355 0.299317 0.048466 -0.301837
N5    N     N_R   0.897932 0.952427 0.964900 0.113710
O85   O     O_R   0.929671 0.928596 0.906812 -0.296119
O86   O     O_R   0.926340 0.035539 0.004380 -0.248217
N6    N     N_R   0.223891 0.118811 0.097853 0.059320
O87   O     O_R   0.269219 0.142972 0.148532 -0.367492
O88   O     O_R   0.160005 0.155133 0.103996 -0.340730
N7    N     N_R   0.401683 0.435384 0.969332 0.109719
O89   O     O_R   0.429374 0.426467 0.907504 -0.282232
O90   O     O_R   0.433881 0.506956 0.013747 -0.258983
N8    N     N_R   0.735816 0.626533 0.107034 0.059253
O91   O     O_R   0.674138 0.639835 0.133965 -0.279172
O92   O     O_R   0.790790 0.661543 0.143919 -0.384446
N9    N     N_R   0.440703 0.975993 0.411413 -0.176018
O93   O     O_R   0.470216 0.873016 0.407217 -0.000449
O94   O     O_R   0.470197 0.872700 0.407132 -0.000449
N10   N     N_R   0.474438 0.944038 0.560890 -0.029173
O95   O     O_R   0.422280 0.867805 0.552056 -0.000442
O96   O     O_R   0.422410 0.867992 0.552068 -0.000442
N11   N     N_R   0.940186 0.476060 0.410994 -0.175986
O97   O     O_R   0.969212 0.372628 0.406328 -0.002146
O98   O     O_R   0.969917 0.373003 0.406987 -0.002146
N12   N     N_R   0.973101 0.443555 0.560627 -0.039496
O99   O     O_R   0.921136 0.367588 0.551325 -0.000956
O100  O     O_R   0.920959 0.367935 0.551102 -0.000954
N13   N     N_R   0.529159 0.371050 0.580995 0.124874
O101  O     O_R   0.574985 0.358986 0.632438 -0.266594
O102  O     O_R   0.501834 0.474788 0.569382 -0.293448
N14   N     N_R   0.532196 0.389041 0.430377 0.119338
O103  O     O_R   0.493249 0.434047 0.379921 -0.333041
O104  O     O_R   0.586179 0.450710 0.453971 -0.286920
N15   N     N_R   0.028778 0.870784 0.580800 0.125725
O105  O     O_R   0.074931 0.858865 0.631955 -0.270289
O106  O     O_R   0.001048 0.974301 0.569550 -0.300870
N16   N     N_R   0.031364 0.889074 0.430162 0.120114
O107  O     O_R   0.992547 0.933345 0.379365 -0.333703
O108  O     O_R   0.085009 0.951439 0.453877 -0.282316

loop_
_geom_bond_atom_site_label_1
_geom_bond_atom_site_label_2
_geom_bond_distance
_ccdc_geom_bond_type
C41   C42   1.385640 A    
C18   O42   1.279181 A    
Cr11  O51   1.993959 S    
O4    C12   1.294085 A    
C57   C61   1.385345 A    
C77   C78   1.409040 A    
O39   C19   1.276150 A    
C89   C93   1.426816 A    
O20   Cr12  2.055244 S    
C79   N15   1.439119 S    
O29   C13   1.282259 A    
O15   C7    1.269765 A    
C43   C44   1.382407 A    
C58   N6    1.428372 S    
C95   S3    1.780866 S    
C60   C64   1.393891 A    
C19   C76   1.474901 S    
C93   S1    1.779258 S    
O1    Cr1   2.107045 S    
C64   C68   1.403494 A    
N7    O90   1.301476 A    
C29   C30   1.410029 A    
C41   H9    1.077823 S    
C38   C44   1.387692 A    
O58   H30   0.996001 S    
S5    O67   1.683060 S    
O7    C3    1.269810 A    
C48   C68   1.402930 A    
C63   C67   1.383404 A    
N5    O85   1.289723 A    
C33   C34   1.385662 A    
S2    O57   1.503224 D    
C38   H6    1.076252 S    
C81   H17   1.077406 S    
C80   N16   1.439367 S    
O24   C12   1.307548 A    
C37   H5    1.082096 S    
C74   C78   1.431317 A    
C15   C90   1.462851 S    
O25   C21   1.278750 A    
C93   C97   1.392296 A    
O61   H31   0.993203 S    
C94   C98   1.374728 A    
N9    O93   1.300069 A    
C10   C66   1.449537 S    
C27   C31   1.395786 A    
O47   C23   1.269749 A    
C47   S7    1.770511 S    
C5    C26   1.471692 S    
C50   C54   1.413257 A    
N3    O81   1.304037 A    
O21   C9    1.252275 A    
O8    Cr4   1.981619 S    
O23   Cr11  1.978150 S    
C7    C28   1.478751 S    
C71   C76   1.392825 A    
O32   Cr4   1.957053 S    
O30   C14   1.289561 A    
C69   N9    1.437966 S    
O45   Cr9   1.945824 S    
S1    O54   1.501958 D    
S7    O71   1.494155 D    
C1    O9    1.300020 A    
C2    C55   1.472863 S    
H2    C34   1.083003 S    
C5    O17   1.311215 A    
C13   C92   1.463243 S    
C21   C101  1.469909 S    
C82   H18   1.050036 S    
C63   H15   1.084380 S    
O3    Cr3   2.107045 S    
C12   C68   1.458322 S    
O11   Cr7   2.072957 S    
C4    O12   1.275955 A    
C26   C33   1.391123 A    
C72   N12   1.429753 S    
N10   O95   1.303732 A    
N3    O82   1.303033 A    
S2    O58   1.686261 S    
S3    O61   1.679609 S    
O76   H36   0.996981 S    
S4    O64   1.685358 S    
C96   S4    1.720447 S    
O27   Cr3   2.083730 S    
S1    O53   1.499642 D    
C83   C87   1.391357 A    
Cr4   O52   1.980634 S    
C99   H27   1.080078 S    
O2    Cr2   2.075361 S    
O8    C4    1.314706 A    
C48   C52   1.395799 A    
C81   C85   1.390676 A    
C22   C102  1.423851 S    
C88   C92   1.392000 A    
N15   O106  1.300950 A    
C83   C103  1.392818 A    
C37   C43   1.385599 A    
C71   C72   1.392519 A    
Cr5   O49   2.034434 S    
O18   Cr10  2.055244 S    
C94   S2    1.720485 S    
Cr7   O51   2.034434 S    
O17   Cr9   2.062242 S    
S2    O56   1.494286 D    
C39   C41   1.384925 A    
C87   C91   1.402891 A    
C54   C58   1.379233 A    
C3    O11   1.302109 A    
C31   C39   1.409814 A    
O34   Cr6   2.070753 S    
C85   C89   1.402736 A    
O67   H33   0.990663 S    
O6    Cr2   1.981619 S    
C91   C95   1.427256 A    
O31   Cr3   1.982246 S    
O4    Cr4   2.075361 S    
O24   Cr12  1.951074 S    
N4    O84   1.308462 A    
N5    O86   1.300683 A    
C32   C40   1.414835 A    
C4    C53   1.472118 S    
O22   C10   1.288842 A    
C75   C79   1.403431 A    
S3    O59   1.500355 D    
O48   Cr12  1.936998 S    
O14   Cr6   1.950074 S    
Cr12  O52   2.035749 S    
C84   H20   1.044771 S    
C51   N3    1.436730 S    
C6    O18   1.271428 A    
C2    O10   1.284932 A    
C8    C27   1.457240 S    
C97   C101  1.398360 A    
N9    O94   1.303211 A    
O16   Cr8   1.950074 S    
O55   H29   1.010443 S    
C46   C66   1.396838 A    
C15   O35   1.294181 A    
S6    O70   1.684840 S    
C49   C53   1.414053 A    
S5    O65   1.487634 D    
Cr10  O50   2.035749 S    
C87   H23   1.076538 S    
C70   C73   1.420134 A    
S8    O76   1.685750 S    
O13   C5    1.268578 A    
C96   C100  1.378736 A    
O43   Cr11  2.094549 S    
O48   C24   1.312658 A    
O12   Cr8   2.111388 S    
C29   C37   1.411800 A    
O41   Cr9   2.094549 S    
C46   C50   1.402313 A    
S1    O55   1.678362 S    
N8    O92   1.301592 A    
C69   C74   1.392461 A    
C45   C49   1.401815 A    
C18   C73   1.479595 S    
C95   C99   1.392489 A    
O46   Cr10  1.936998 S    
N14   O103  1.301077 A    
O39   Cr7   1.952569 S    
O3    C11   1.289714 A    
C61   C65   1.387100 A    
C25   C29   1.397112 A    
C23   C103  1.471097 S    
C79   C80   1.408776 A    
C82   C86   1.377778 A    
C72   C75   1.421547 A    
C13   O33   1.293579 A    
C83   H19   1.077659 S    
C56   C60   1.382774 A    
C39   H7    1.082329 S    
C28   C35   1.390827 A    
C82   C102  1.381221 A    
N2    O80   1.304443 A    
O70   H34   0.992854 S    
N16   O107  1.301088 A    
C81   C101  1.392438 A    
C11   C67   1.479458 S    
O47   Cr11  1.945824 S    
Cr2   O50   1.980634 S    
C17   O41   1.304297 A    
C42   H10   1.073316 S    
O35   Cr7   2.061806 S    
Cr1   O49   1.979668 S    
C90   C94   1.429443 A    
O30   Cr2   1.957053 S    
C9    C65   1.469210 S    
N16   O108  1.299326 A    
C53   C57   1.433733 A    
C43   H11   1.073898 S    
Cr3   O51   1.979668 S    
O26   C22   1.299990 A    
S7    O72   1.505635 D    
N14   O104  1.299452 A    
O21   Cr9   1.978150 S    
C16   C89   1.471384 S    
C7    O19   1.315310 A    
C61   H13   1.084618 S    
N1    O78   1.300945 A    
O9    Cr5   2.072957 S    
C60   N8    1.428073 S    
O37   Cr5   1.952569 S    
O38   C18   1.312225 A    
C6    C25   1.448013 S    
C45   C65   1.427774 A    
C84   C88   1.382899 A    
N7    O89   1.289705 A    
C3    C54   1.463647 S    
C57   N5    1.450699 S    
C47   C51   1.391927 A    
C49   N1    1.438804 S    
C27   C36   1.408134 A    
C8    O20   1.271518 A    
C44   H12   1.074444 S    
C86   H22   1.083302 S    
C1    C56   1.461614 S    
C71   N11   1.438053 S    
O25   Cr1   2.083730 S    
N4    O83   1.297527 A    
S6    O69   1.496087 D    
O37   C17   1.275822 A    
O22   Cr10  1.951074 S    
O28   C24   1.290895 A    
H1    C33   1.081139 S    
S8    O75   1.496686 D    
O14   C6    1.298329 A    
H4    C36   1.081919 S    
C19   O43   1.304064 A    
C14   C91   1.472430 S    
C98   C102  1.363256 A    
O5    Cr1   1.964612 S    
C64   H16   1.064847 S    
H3    C35   1.081214 S    
C100  H28   1.083155 S    
O40   Cr8   1.986366 S    
C25   C34   1.408316 A    
C24   C104  1.441330 S    
O7    Cr3   1.964612 S    
N11   O97   1.301196 A    
C84   C104  1.381689 A    
C98   H26   1.086219 S    
C97   H25   1.080255 S    
O42   Cr10  2.073227 S    
N6    O88   1.297869 A    
C58   C62   1.388937 A    
S5    O66   1.499959 D    
C45   S5    1.789591 S    
O26   Cr2   2.096031 S    
C17   C74   1.474917 S    
C14   O34   1.303639 A    
C55   C59   1.439539 A    
C30   C38   1.415968 A    
C31   C32   1.412548 A    
O44   Cr12  2.073227 S    
C20   O44   1.278596 A    
C59   C63   1.390070 A    
C52   N4    1.422420 S    
C40   H8    1.079235 S    
O19   Cr11  2.062242 S    
N8    O91   1.296883 A    
C47   C67   1.430564 A    
N15   O105  1.301455 A    
O15   Cr7   1.940055 S    
Cr8   O52   1.992264 S    
O32   C16   1.289614 A    
O36   Cr8   2.070753 S    
C69   C70   1.391749 A    
C77   N13   1.439144 S    
O13   Cr5   1.940055 S    
N11   O98   1.302491 A    
C85   H21   1.076169 S    
O2    C10   1.265306 A    
O46   C22   1.323801 A    
C40   C42   1.394435 A    
C62   C66   1.410087 A    
O45   C21   1.269597 A    
C28   C32   1.433889 A    
O23   C11   1.254674 A    
C62   H14   1.072212 S    
N2    O79   1.290532 A    
N13   O102  1.300954 A    
O38   Cr6   1.986366 S    
O33   Cr5   2.061806 S    
N12   O100  1.300801 A    
O10   Cr6   2.111388 S    
O64   H32   0.993701 S    
C73   C77   1.403128 A    
O73   H35   0.992086 S    
C51   C55   1.415296 A    
C20   C75   1.479802 S    
C70   N10   1.428250 S    
O6    C2    1.317194 A    
S4    O63   1.503043 D    
O29   Cr1   1.982246 S    
C92   C96   1.428629 A    
C16   O36   1.302532 A    
S7    O73   1.688925 S    
O40   C20   1.312739 A    
S4    O62   1.493512 D    
C100  C104  1.369640 A    
N10   O96   1.300527 A    
Cr6   O50   1.992264 S    
C46   S6    1.778907 S    
O28   Cr4   2.096031 S    
C48   S8    1.778537 S    
C35   C36   1.386017 A    
S3    O60   1.502239 D    
C52   C56   1.408642 A    
C26   C30   1.431864 A    
N12   O99   1.300226 A    
C99   C103  1.398208 A    
O1    C9    1.288707 A    
C76   C80   1.430776 A    
O5    C1    1.271843 A    
C59   N7    1.453400 S    
C50   N2    1.425770 S    
N1    O77   1.302499 A    
C78   N14   1.439116 S    
O31   C15   1.281928 A    
S6    O68   1.504105 D    
O16   C8    1.302847 A    
Cr9   O49   1.993959 S    
C88   H24   1.086790 S    
S8    O74   1.503261 D    
N6    O87   1.302603 A    
C86   C90   1.393357 A    
O27   C23   1.278891 A    
N13   O101  1.301481 A    
