data_mof_unit_1309.cif
_audit_creation_date              2012-12-10T17:04:00-0500
_audit_creation_method            fapswitch 2.2
_symmetry_space_group_name_H-M    P1
_symmetry_Int_Tables_number       1
_space_group_crystal_system       triclinic
_cell_length_a                    18.688581
_cell_length_b                    19.080299
_cell_length_c                    19.055739
_cell_angle_alpha                 110.383986
_cell_angle_beta                  110.032464
_cell_angle_gamma                 109.964628
_cell_volume                      5099.75298033

loop_
_atom_site_label
_atom_site_type_symbol
_atom_type_description
_atom_site_fract_x
_atom_site_fract_y
_atom_site_fract_z
_atom_type_partial_charge
C1    C     C_R   0.992421 0.112926 0.619745 0.895806
C2    C     C_R   0.189248 0.181583 0.431556 -0.021271
C3    C     C_R   0.336302 0.311634 0.519841 -0.152013
C4    C     C_R   0.327560 0.335509 0.595306 -0.022507
C5    C     C_R   0.245910 0.282016 0.585359 0.038510
C6    C     C_R   0.184822 0.198326 0.507501 -0.116973
C7    C     C_R   0.396822 0.410494 0.680552 -0.026683
C8    C     C_R   0.378976 0.438214 0.747262 -0.224901
C9    C     C_R   0.294112 0.394162 0.732769 0.219472
C10   C     C_R   0.225590 0.317625 0.650228 0.161561
C11   C     C_R   0.039620 0.134686 0.798214 -0.078167
C12   C     C_R   0.120733 0.124784 0.504386 0.842064
C13   C     C_R   0.099422 0.166359 0.886957 0.130763
C14   C     C_R   0.144487 0.255465 0.948867 -0.127967
C15   C     C_R   0.123306 0.310964 0.926467 0.096303
C16   C     C_R   0.052771 0.275697 0.840562 0.041758
C17   C     C_R   0.025790 0.193687 0.773853 -0.075659
C18   C     C_R   0.984048 0.173462 0.685687 -0.244339
C19   C     C_R   0.945821 0.221540 0.663965 -0.027205
C20   C     C_R   0.957140 0.293631 0.730698 0.074883
C21   C     C_R   0.007200 0.317508 0.818307 -0.087388
C22   C     C_R   0.697652 0.703840 0.304035 0.122556
C23   C     C_R   0.996108 0.876828 0.379853 0.887386
C24   C     C_R   0.624297 0.619745 0.230149 0.285423
C25   C     C_R   0.559689 0.567355 0.240397 0.206350
C26   C     C_R   0.574897 0.592607 0.324037 -0.229805
C27   C     C_R   0.655315 0.666561 0.399975 0.023123
C28   C     C_R   0.720060 0.724763 0.392382 0.045688
C29   C     C_R   0.802868 0.797137 0.474482 -0.130468
C30   C     C_R   0.811769 0.810334 0.554158 -0.176458
C31   C     C_R   0.739462 0.767634 0.558387 -0.052726
C32   C     C_R   0.667971 0.686907 0.483878 -0.156784
C33   C     C_R   0.130566 0.933751 0.342329 -0.164504
C34   C     C_R   0.877862 0.869375 0.486458 0.940374
C35   C     C_R   0.207256 0.963819 0.339609 -0.154963
C36   C     C_R   0.228310 0.905373 0.297943 0.157803
C37   C     C_R   0.168594 0.813622 0.254968 -0.020196
C38   C     C_R   0.082608 0.780938 0.247887 -0.031997
C39   C     C_R   0.069760 0.843216 0.300173 0.086578
C40   C     C_R   0.999092 0.813957 0.314409 -0.145563
C41   C     C_R   0.934385 0.724896 0.269465 -0.077712
C42   C     C_R   0.928523 0.668750 0.194988 0.083665
C43   C     C_R   0.006853 0.691507 0.190524 -0.116052
C44   C     C_R   0.623640 0.503538 0.620974 0.925924
C45   C     C_R   0.112823 0.125203 0.344532 -0.116589
C46   C     C_R   0.391733 0.380533 0.510271 0.853035
C47   C     C_R   0.375091 0.494720 0.379339 0.862677
C48   C     C_R   0.614186 0.620349 0.495031 0.932684
C49   C     C_R   0.878405 0.494260 0.876428 0.855165
C50   C     C_R   0.004844 0.380833 0.884624 0.894625
C51   C     C_R   0.121805 0.509091 0.127773 0.885010
C52   C     C_R   0.003519 0.621731 0.122860 0.896409
C53   C     C_R   0.792988 0.671596 0.789626 -0.130008
C54   C     C_R   0.864546 0.745357 0.875246 0.141715
C55   C     C_R   0.902080 0.730943 0.942654 0.238475
C56   C     C_R   0.124879 0.089950 0.273591 -0.033002
C57   C     C_R   0.872315 0.645987 0.923093 -0.182650
C58   C     C_R   0.813442 0.573890 0.836075 0.015243
C59   C     C_R   0.764010 0.583135 0.769818 -0.076894
C60   C     C_R   0.690453 0.503236 0.688209 -0.141875
C61   C     C_R   0.676285 0.419116 0.672532 0.240967
C62   C     C_R   0.738909 0.415296 0.734943 0.149659
C63   C     C_R   0.807790 0.493609 0.814871 -0.107986
C64   C     C_R   0.169879 0.371683 0.286844 0.081318
C65   C     C_R   0.077111 0.334529 0.256326 0.021237
C66   C     C_R   0.038960 0.384552 0.247615 -0.268059
C67   C     C_R   0.211926 0.119450 0.290362 -0.239453
C68   C     C_R   0.083889 0.459858 0.248093 -0.032887
C69   C     C_R   0.163928 0.478780 0.247420 0.018820
C70   C     C_R   0.215169 0.447663 0.284260 0.043290
C71   C     C_R   0.307269 0.492927 0.312410 -0.078451
C72   C     C_R   0.340167 0.553503 0.289969 -0.255084
C73   C     C_R   0.282913 0.564757 0.232507 0.003011
C74   C     C_R   0.191471 0.522207 0.206013 -0.142248
C75   C     C_R   0.284809 0.188626 0.373346 -0.180528
C76   C     C_R   0.272281 0.227149 0.442732 0.069484
H1    H     H_    0.196388 0.282218 0.015387 0.154219
H2    H     H_    0.872697 0.862193 0.614694 0.263368
H3    H     H_    0.521399 0.553066 0.328532 0.172066
H4    H     H_    0.120114 0.982795 0.379212 0.145732
H5    H     H_    0.253134 0.033831 0.374908 0.164097
H6    H     H_    0.901279 0.636909 0.976654 0.147110
H7    H     H_    0.411265 0.590625 0.315609 0.148496
H8    H     H_    0.972330 0.362778 0.236591 0.232595
H9    H     H_    0.223441 0.091649 0.238169 0.177388
H10   H     H_    0.350572 0.209332 0.382770 0.179375
H11   H     H_    0.432584 0.494224 0.812267 0.183876
O1    O     O_R   0.051710 0.091600 0.643330 -0.614789
O2    O     O_R   0.591640 0.448340 0.539940 -0.621823
O3    O     O_R   0.408370 0.460150 0.551730 -0.610505
O4    O     O_R   0.408410 0.356720 0.448320 -0.643893
O5    O     O_R   0.408360 0.551760 0.460120 -0.589912
O6    O     O_R   0.408400 0.448330 0.356700 -0.644555
O7    O     O_R   0.591600 0.643380 0.551740 -0.541244
O8    O     O_R   0.591640 0.539950 0.448320 -0.615634
O9    O     O_R   0.960070 0.551730 0.908390 -0.610625
O10   O     O_R   0.856640 0.448280 0.908400 -0.619055
O11   O     O_R   0.051720 0.460120 0.908370 -0.623047
O12   O     O_R   0.948270 0.091620 0.539910 -0.598348
O13   O     O_R   0.948290 0.356670 0.908380 -0.612923
O14   O     O_R   0.143340 0.551720 0.091580 -0.594554
O15   O     O_R   0.039910 0.448270 0.091590 -0.628050
O16   O     O_R   0.051690 0.643330 0.091600 -0.632560
O17   O     O_R   0.948270 0.539880 0.091610 -0.604161
O18   O     O_R   0.143340 0.091610 0.551710 -0.612123
O19   O     O_R   0.039890 0.091630 0.448290 -0.611402
O20   O     O_R   0.051730 0.908380 0.460090 -0.578842
O21   O     O_R   0.948290 0.908400 0.356670 -0.631130
O22   O     O_R   0.960110 0.908370 0.551710 -0.562976
O23   O     O_R   0.856660 0.908390 0.448290 -0.631620
O24   O     O_R   0.591600 0.551770 0.643360 -0.606498
Zn1   Zn    Zn3+2 0.069070 0.999990 0.569050 1.059377
Zn2   Zn    Zn3+2 0.930930 0.000010 0.430950 1.029960
Zn3   Zn    Zn3+2 0.499980 0.569110 0.569080 1.086912
Zn4   Zn    Zn3+2 0.500030 0.430990 0.430980 0.961856
Zn5   Zn    Zn3+2 0.069050 0.569070 0.999980 1.023971
Zn6   Zn    Zn3+2 0.930930 0.430930 0.000000 1.009788
C77   C     C_3   0.278349 0.428990 0.806918 -0.869783
H12   H     H_    0.341050 0.485970 0.868678 0.238721
H13   H     H_    0.230610 0.450941 0.789484 0.252801
H14   H     H_    0.251221 0.377046 0.820558 0.247641
C78   C     C_2   0.979966 0.039227 0.734985 0.961630
O25   O     O_2   0.010610 0.991778 0.730787 -0.580373
O26   O     O_R   0.888545 0.002660 0.679456 -0.807570
H15   H     H_    0.867966 0.045621 0.693747 0.320653
C79   C     C_3   0.116354 0.107194 0.917214 -0.790150
H16   H     H_    0.052507 0.054054 0.900004 0.261615
H17   H     H_    0.147610 0.078352 0.885814 0.262458
H18   H     H_    0.162192 0.143449 0.989548 0.228919
C80   C     C_3   0.187921 0.407280 0.990968 -0.800801
H19   H     H_    0.180768 0.447335 0.962011 0.275665
H20   H     H_    0.180259 0.426059 0.048243 0.232231
H21   H     H_    0.257401 0.421715 0.014039 0.240931
C81   C     C_3   0.918591 0.346213 0.706817 -0.837819
H22   H     H_    0.925024 0.398461 0.762088 0.234652
H23   H     H_    0.953491 0.378539 0.680233 0.270992
H24   H     H_    0.846504 0.301868 0.655851 0.234111
C82   C     C_3   0.738196 0.771805 0.284199 -0.797180
H25   H     H_    0.704191 0.750321 0.213896 0.223487
H26   H     H_    0.729052 0.826960 0.313408 0.260379
H27   H     H_    0.807832 0.790602 0.305878 0.245521
C83   C     C_3   0.614176 0.585102 0.140442 -0.855247
H28   H     H_    0.562022 0.590527 0.096462 0.230908
H29   H     H_    0.677404 0.619715 0.143805 0.251011
H30   H     H_    0.595827 0.515523 0.111092 0.255271
C84   C     C_3   0.471713 0.485065 0.164195 -0.893873
H31   H     H_    0.469984 0.427190 0.166490 0.249114
H32   H     H_    0.415766 0.489448 0.169398 0.239839
H33   H     H_    0.458863 0.474080 0.098985 0.249325
C85   C     C_2   0.030873 0.129613 0.328589 0.995628
O27   O     O_2   0.956447 0.066674 0.269387 -0.583900
O28   O     O_R   0.039707 0.206637 0.385291 -0.795317
H34   H     H_    0.980004 0.201033 0.372124 0.367870
C86   C     C_2   0.736902 0.816620 0.636473 1.085511
O29   O     O_2   0.667336 0.812390 0.627793 -0.577509
O30   O     O_R   0.815860 0.874559 0.718815 -0.785162
H35   H     H_    0.806454 0.908397 0.765663 0.346373
C87   C     C_2   0.881782 0.689070 0.305708 0.869777
O31   O     O_2   0.811064 0.618588 0.258037 -0.625697
O32   O     O_R   0.917280 0.732933 0.396335 -0.808084
H36   H     H_    0.878593 0.699622 0.413533 0.348496
C88   C     C_3   0.317188 0.943134 0.303873 -0.841905
H37   H     H_    0.356230 0.016033 0.343313 0.222973
H38   H     H_    0.358293 0.920500 0.335632 0.258918
H39   H     H_    0.306086 0.922537 0.237114 0.270344
C89   C     C_2   0.205484 0.758115 0.231466 0.972169
O33   O     O_2   0.212213 0.714333 0.264354 -0.579504
O34   O     O_R   0.234073 0.757729 0.172485 -0.802122
H40   H     H_    0.257855 0.717555 0.160326 0.360832
C90   C     C_3   0.837129 0.591193 0.117704 -0.747129
H41   H     H_    0.832386 0.577147 0.054108 0.214420
H42   H     H_    0.822077 0.532066 0.122462 0.276211
H43   H     H_    0.784565 0.606522 0.115252 0.234754
C91   C     C_3   0.596358 0.332652 0.588690 -0.761741
H44   H     H_    0.613383 0.315381 0.537210 0.226396
H45   H     H_    0.575629 0.277567 0.599563 0.234210
H46   H     H_    0.534643 0.334391 0.562864 0.257413
C92   C     C_2   0.755429 0.690106 0.722054 0.943055
O35   O     O_2   0.769182 0.672067 0.661842 -0.614777
O36   O     O_R   0.705744 0.730140 0.727921 -0.745985
H47   H     H_    0.697993 0.740906 0.780071 0.312273
C93   C     C_3   0.903002 0.838936 0.895632 -0.836587
H48   H     H_    0.873046 0.844672 0.838717 0.273118
H49   H     H_    0.893276 0.877427 0.946614 0.250182
H50   H     H_    0.975378 0.869501 0.919365 0.262659
C94   C     C_2   0.049292 0.026083 0.181698 0.975387
O37   O     O_2   0.054771 0.033127 0.122070 -0.619811
O38   O     O_R   0.972585 0.956789 0.162786 -0.770793
H51   H     H_    0.922990 0.921864 0.098841 0.344007
C95   C     C_3   0.979025 0.802311 0.035063 -0.877403
H52   H     H_    0.006333 0.868496 0.045342 0.271265
H53   H     H_    0.957299 0.801345 0.082319 0.257851
H54   H     H_    0.034860 0.790031 0.050607 0.251978
C96   C     C_3   0.730053 0.327340 0.716221 -0.872587
H55   H     H_    0.790681 0.332193 0.760226 0.248630
H56   H     H_    0.674989 0.289723 0.722645 0.258812
H57   H     H_    0.715422 0.288921 0.648754 0.238880
C97   C     C_3   0.217670 0.330230 0.319947 -0.771741
H58   H     H_    0.174709 0.272951 0.319077 0.250815
H59   H     H_    0.246955 0.309668 0.280841 0.253326
H60   H     H_    0.269366 0.378129 0.389855 0.226579
C98   C     C_2   0.015907 0.242765 0.226998 0.931728
O39   O     O_2   0.027650 0.184613 0.190736 -0.615316
O40   O     O_R   0.939588 0.221386 0.232867 -0.796607
H61   H     H_    0.899545 0.155993 0.204965 0.367164
C99   C     C_2   0.048605 0.519350 0.253897 0.962969
O41   O     O_2   0.098273 0.596583 0.282394 -0.597571
O42   O     O_R   0.959549 0.488159 0.230772 -0.794069
H62   H     H_    0.944677 0.535786 0.240864 0.355447
C100  C     C_2   0.324506 0.625375 0.207737 0.930294
O43   O     O_2   0.308579 0.597991 0.132610 -0.651114
O44   O     O_R   0.388500 0.713422 0.273149 -0.767323
H63   H     H_    0.415290 0.748390 0.249714 0.341274
C101  C     C_2   0.492090 0.451008 0.709828 0.920911
O45   O     O_2   0.520839 0.404381 0.687456 -0.682022
O46   O     O_R   0.550655 0.541055 0.771336 -0.794726
H64   H     H_    0.615602 0.559797 0.793670 0.341828
C102  C     C_3   0.131137 0.285285 0.630027 -0.803579
H65   H     H_    0.122601 0.259829 0.672162 0.220381
H66   H     H_    0.119285 0.340451 0.645404 0.254870
H67   H     H_    0.079485 0.236390 0.560170 0.271109
C103  C     C_2   0.888582 0.194455 0.571536 0.972849
O47   O     O_2   0.914504 0.240042 0.543356 -0.631511
O48   O     O_R   0.805120 0.116502 0.517225 -0.777802
H68   H     H_    0.772328 0.104660 0.455763 0.341667

loop_
_geom_bond_atom_site_label_1
_geom_bond_atom_site_label_2
_ccdc_geom_bond_type
C8    C9    A    
C66   C68   A    
O2    Zn4   S    
C52   O16   A    
C16   C21   A    
C49   C63   S    
C48   O8    A    
C64   C97   S    
C41   C42   A    
C96   H56   S    
C35   C36   A    
C51   C74   S    
O48   H68   S    
C1    O12   A    
C81   H24   S    
C92   O35   D    
C53   C59   A    
C7    C8    A    
C53   C54   A    
C51   O15   A    
C101  O45   D    
C1    C18   S    
C79   H16   S    
C98   O40   S    
C28   C29   A    
C44   C60   S    
C18   C19   A    
C6    C12   S    
C12   O18   A    
C99   O42   S    
C43   C52   S    
C96   H57   S    
C90   H41   S    
C15   C16   A    
C88   H39   S    
O44   H63   S    
C45   C85   S    
C47   O5    A    
C14   H1    S    
C77   H12   S    
C37   C89   S    
C42   C90   S    
C95   H54   S    
C91   H44   S    
O34   H40   S    
C102  H66   S    
C87   O32   S    
C7    C101  S    
C11   C17   A    
C65   C98   S    
C19   C20   A    
C45   C56   A    
O8    Zn4   S    
C16   C17   A    
O5    Zn3   S    
C23   C40   S    
C79   H17   S    
C54   C93   S    
C97   H58   S    
C64   C70   A    
C29   C30   A    
C9    C10   A    
C86   O30   S    
C61   C62   A    
C11   C78   S    
C72   C73   A    
C1    O1    A    
C31   C86   S    
C96   H55   S    
C59   C60   A    
C2    C45   A    
C22   C28   A    
C13   C14   A    
C53   C92   S    
C89   O34   S    
C9    C77   S    
C32   C48   S    
C83   H30   S    
C89   O33   D    
C2    C6    A    
C19   C103  S    
C97   H60   S    
C4    C7    A    
C21   C50   S    
C84   H32   S    
C73   C74   A    
C35   H5    S    
C38   C39   A    
C50   O11   A    
C67   H9    S    
C98   O39   D    
C84   H31   S    
O19   Zn2   S    
O7    Zn3   S    
C55   C95   S    
O6    Zn4   S    
C73   C100  S    
O46   H64   S    
O22   Zn1   S    
C24   C83   S    
C39   C40   A    
C99   O41   D    
O42   H62   S    
C81   H23   S    
C46   O4    A    
C79   H18   S    
C25   C26   A    
C49   O10   A    
C29   C34   S    
C60   C61   A    
C77   H14   S    
O30   H35   S    
O21   Zn2   S    
C80   H20   S    
C75   C76   A    
C95   H52   S    
C37   C38   A    
C84   H33   S    
C75   H10   S    
O11   Zn5   S    
C31   C32   A    
O23   Zn2   S    
C30   C31   A    
C23   O20   A    
C20   C21   A    
C62   C63   A    
C14   C15   A    
C17   C18   A    
C26   C27   A    
C69   C74   A    
O20   Zn1   S    
C33   C39   A    
C24   C25   A    
C103  O48   S    
C3    C76   A    
C91   H46   S    
C47   C71   S    
C86   O29   D    
C70   C71   A    
O15   Zn6   S    
C48   O7    A    
C94   O37   D    
C46   O3    A    
C13   C79   S    
C40   C41   A    
O13   Zn6   S    
O18   Zn1   S    
C56   C94   S    
C65   C66   A    
C100  O44   S    
C55   C57   A    
C68   C99   S    
C87   O31   D    
C34   O23   A    
C22   C24   A    
C80   H21   S    
C67   C75   A    
C42   C43   A    
C62   C96   S    
C94   O38   S    
C3    C4    A    
C83   H29   S    
C2    C76   A    
O36   H47   S    
C10   C102  S    
C102  H67   S    
C88   H37   S    
C58   C63   A    
O14   Zn5   S    
C22   C82   S    
C54   C55   A    
C36   C37   A    
C95   H53   S    
C47   O6    A    
C93   H49   S    
C27   C32   A    
C57   H6    S    
C68   C69   A    
O9    Zn5   S    
C61   C91   S    
C4    C5    A    
C82   H27   S    
O12   Zn2   S    
C92   O36   S    
C33   H4    S    
C81   H22   S    
C82   H26   S    
C51   O14   A    
C56   C67   A    
O17   Zn6   S    
C3    C46   S    
C50   O13   A    
C26   H3    S    
C85   O27   D    
C8    H11   S    
C20   C81   S    
C64   C65   A    
C80   H19   S    
C58   C59   A    
C101  O46   S    
C5    C10   A    
C88   H38   S    
O32   H36   S    
O1    Zn1   S    
C12   O19   A    
C11   C13   A    
C102  H65   S    
C5    C6    A    
C15   C80   S    
C90   H42   S    
C36   C88   S    
C23   O21   A    
C33   C35   A    
C91   H45   S    
C52   O17   A    
O16   Zn5   S    
O24   Zn3   S    
C85   O28   S    
O3    Zn3   S    
C49   O9    A    
O10   Zn6   S    
C69   C70   A    
C77   H13   S    
C72   H7    S    
C82   H25   S    
C66   H8    S    
C41   C87   S    
C30   H2    S    
C44   O24   A    
C38   C43   A    
C25   C84   S    
O4    Zn4   S    
O40   H61   S    
C100  O43   D    
C27   C28   A    
C78   O25   D    
C34   O22   A    
C83   H28   S    
O38   H51   S    
C97   H59   S    
O28   H34   S    
C71   C72   A    
C57   C58   A    
C78   O26   S    
C103  O47   D    
C93   H50   S    
C44   O2    A    
C93   H48   S    
O26   H15   S    
C90   H43   S    
