data_mof_unit_4499.cif
_audit_creation_date              2012-12-10T19:12:30-0500
_audit_creation_method            fapswitch 2.2
_symmetry_space_group_name_H-M    P1
_symmetry_Int_Tables_number       1
_space_group_crystal_system       triclinic
_cell_length_a                    15.692406
_cell_length_b                    10.849338
_cell_length_c                    9.920569
_cell_angle_alpha                 89.882453
_cell_angle_beta                  89.376881
_cell_angle_gamma                 89.692767
_cell_volume                      1688.87134405

loop_
_atom_site_label
_atom_site_type_symbol
_atom_type_description
_atom_site_fract_x
_atom_site_fract_y
_atom_site_fract_z
_atom_type_partial_charge
C1    C     C_R   0.497510 0.258438 0.500227 0.757632
C2    C     C_3   0.084091 0.485007 0.497795 0.058409
C3    C     C_3   0.970849 0.549443 0.598961 0.411399
C4    C     C_3   0.916202 0.486475 0.492534 0.052499
C5    C     C_3   0.028125 0.600456 0.487058 0.356478
C6    C     C_3   0.974061 0.537635 0.379225 -0.209408
C7    C     C_1   0.174738 0.489670 0.501034 0.154257
C8    C     C_1   0.825382 0.490947 0.495090 0.181469
C9    C     C_3   0.589976 0.067577 0.518440 -0.328245
C10   C     C_3   0.583649 0.920815 0.536881 0.866886
C11   C     C_3   0.426451 0.077300 0.615185 0.352354
C12   C     C_R   0.338524 0.499402 0.500634 0.820795
C13   C     C_3   0.459630 0.073683 0.361678 0.143326
C14   C     C_3   0.493675 0.121330 0.501717 -0.318169
C15   C     C_3   0.489120 0.878395 0.501538 -0.342019
C16   C     C_3   0.418334 0.929287 0.610844 -0.327892
C17   C     C_3   0.467898 0.930540 0.352612 0.259855
C18   C     C_3   0.508227 0.369950 0.082179 0.210130
C19   C     C_3   0.501117 0.369979 0.920008 0.170833
C20   C     C_3   0.416662 0.553155 0.079950 -0.319428
C21   C     C_3   0.569010 0.579705 0.078621 0.578788
C22   C     C_3   0.422112 0.562097 0.920128 0.105937
C23   C     C_R   0.492835 0.741132 0.500216 0.908420
C24   C     C_3   0.576158 0.562829 0.915473 0.652500
C25   C     C_R   0.661478 0.499566 0.499352 0.901828
C26   C     C_3   0.972035 0.369715 0.502981 -0.104306
C27   C     C_3   0.030534 0.420824 0.389752 -0.142491
C28   C     C_1   0.249874 0.494534 0.501898 -0.055074
C29   C     C_1   0.750180 0.495315 0.497429 -0.064301
C30   C     C_3   0.026951 0.432820 0.612261 -0.340578
H1    H     H_    0.499431 0.113530 0.279793 0.200475
H2    H     H_    0.441611 0.322283 0.891301 0.159738
H3    H     H_    0.408826 0.648416 0.118801 0.189911
H4    H     H_    0.427606 0.661097 0.895832 0.190112
H5    H     H_    0.049429 0.390867 0.707741 0.191665
N1    N     N_3   0.498170 0.499750 0.138610 -0.162599
N2    N     N_3   0.498850 0.496730 0.861320 -0.123589
O1    O     O_R   0.499980 0.314910 0.616040 -0.564056
O2    O     O_R   0.500040 0.314680 0.383960 -0.634724
O3    O     O_R   0.376750 0.500100 0.616020 -0.585305
O4    O     O_R   0.376810 0.499870 0.383940 -0.605413
O5    O     O_R   0.499960 0.685320 0.616040 -0.573427
O6    O     O_R   0.500020 0.685090 0.383960 -0.530410
O7    O     O_R   0.623190 0.500130 0.616060 -0.501185
O8    O     O_R   0.623250 0.499900 0.383980 -0.571440
Zn1   Zn    Zn3+2 0.499960 0.500150 0.654960 1.072983
Zn2   Zn    Zn3+2 0.500040 0.499850 0.345040 1.039033
C31   C     C_2   0.062789 0.347175 0.271922 0.460849
H6    H     H_    0.017753 0.306875 0.202804 0.083378
O9    O     O_2   0.139092 0.332109 0.253127 -0.515591
O10   O     O_3   0.605908 0.876494 0.666399 -0.737470
H7    H     H_    0.594808 0.936292 0.738360 0.323682
O11   O     O_3   0.455173 0.115441 0.742256 -0.784993
H8    H     H_    0.509321 0.075048 0.761746 0.318880
C32   C     C_2   0.427947 0.880343 0.755540 0.442043
H9    H     H_    0.481394 0.827715 0.787277 0.152748
O12   O     O_2   0.375592 0.906744 0.843288 -0.457414
O13   O     O_3   0.375604 0.111721 0.335033 -0.675277
H10   H     H_    0.373422 0.202685 0.330043 0.395821
O14   O     O_3   0.536999 0.903158 0.265494 -0.616975
H11   H     H_    0.526029 0.939379 0.175076 0.368066
C33   C     C_2   0.390012 0.871976 0.285560 0.544892
H12   H     H_    0.367062 0.782054 0.314630 0.032699
O15   O     O_2   0.358849 0.917926 0.184760 -0.464751
C34   C     C_2   0.341932 0.150287 0.606702 0.621059
H13   H     H_    0.335981 0.235745 0.663132 0.057256
O16   O     O_2   0.281713 0.121488 0.536988 -0.512505
C35   C     C_2   0.330211 0.877672 0.576082 0.619961
H14   H     H_    0.324904 0.796000 0.515431 -0.048194
O17   O     O_2   0.265389 0.909990 0.635979 -0.429630
O18   O     O_3   0.442382 0.296173 0.134074 -0.799867
H15   H     H_    0.443796 0.215140 0.087425 0.365108
C36   C     C_2   0.942019 0.239027 0.511385 0.486984
H16   H     H_    0.988295 0.164820 0.519062 0.102988
O19   O     O_2   0.866132 0.215316 0.509447 -0.531365
C37   C     C_2   0.590199 0.308495 0.132657 0.487209
H17   H     H_    0.629555 0.351071 0.206818 0.145133
O20   O     O_2   0.609225 0.203141 0.101097 -0.577515
O21   O     O_3   0.567265 0.302626 0.859115 -0.708482
H18   H     H_    0.559438 0.215577 0.884479 0.377628
C38   C     C_2   0.332961 0.494229 0.124781 0.686885
H19   H     H_    0.317512 0.399649 0.101933 0.121463
O22   O     O_2   0.276907 0.557314 0.176886 -0.546256
O23   O     O_3   0.345409 0.528132 0.858409 -0.693698
H20   H     H_    0.336028 0.438782 0.869909 0.320459
O24   O     O_3   0.554560 0.704136 0.115144 -0.663576
H21   H     H_    0.518471 0.747134 0.048648 0.312028
O25   O     O_3   0.647570 0.549557 0.136600 -0.744162
H22   H     H_    0.690161 0.610722 0.104489 0.398650
O26   O     O_3   0.652025 0.500118 0.875939 -0.657769
H23   H     H_    0.669299 0.438431 0.943831 0.360936
O27   O     O_3   0.581744 0.678490 0.853123 -0.742139
H24   H     H_    0.635992 0.716769 0.881785 0.386967
C39   C     C_2   0.947326 0.597231 0.249935 0.468793
H25   H     H_    0.995445 0.630258 0.179591 0.109907
O28   O     O_2   0.872026 0.608790 0.223045 -0.527922
O29   O     O_3   0.059564 0.720724 0.481014 -0.705527
H26   H     H_    0.008500 0.774665 0.476371 0.361763
O30   O     O_3   0.937690 0.618261 0.706543 -0.703907
H27   H     H_    0.987927 0.645515 0.758099 0.361777
C40   C     C_2   0.642616 0.126190 0.629852 0.305336
H28   H     H_    0.631406 0.219671 0.660616 0.184830
O31   O     O_2   0.707388 0.076346 0.671093 -0.464119
C41   C     C_2   0.643078 0.110975 0.395434 0.581393
H29   H     H_    0.654677 0.208971 0.383800 0.014568
O32   O     O_2   0.674862 0.042504 0.311231 -0.424068
O33   O     O_3   0.641339 0.860118 0.448986 -0.601391
H30   H     H_    0.699808 0.872397 0.483976 0.388770

loop_
_geom_bond_atom_site_label_1
_geom_bond_atom_site_label_2
_ccdc_geom_bond_type
C27   C31   S    
C32   H9    S    
C40   H28   S    
C36   H16   S    
C2    C7    S    
C4    C8    S    
C41   O32   D    
O29   H26   S    
C21   N1    S    
O11   H8    S    
O3    Zn1   S    
C26   C27   S    
C33   H12   S    
C23   O5    A    
C30   H5    S    
C12   C28   S    
C8    C29   T    
C37   O20   D    
C10   C15   S    
C5    C6    S    
C11   C14   S    
C19   H2    S    
C15   C16   S    
C26   C36   S    
C23   O6    A    
N1    Zn2   S    
C18   C19   S    
O5    Zn1   S    
C33   O15   D    
C19   N2    S    
C6    C27   S    
C35   H14   S    
C34   O16   D    
O33   H30   S    
C2    C27   S    
C16   C35   S    
C9    C10   S    
C11   O11   S    
C15   C23   S    
C21   O25   S    
C40   O31   D    
C20   C38   S    
C36   O19   D    
C10   O33   S    
C10   O10   S    
C24   O27   S    
C25   O7    A    
C41   H29   S    
C38   O22   D    
O7    Zn1   S    
C38   H19   S    
O8    Zn2   S    
C25   C29   S    
C22   H4    S    
O10   H7    S    
O23   H20   S    
C4    C6    S    
O24   H21   S    
C13   O13   S    
C6    C39   S    
O13   H10   S    
C22   N2    S    
C7    C28   T    
O14   H11   S    
C22   O23   S    
C12   O3    A    
C3    C30   S    
C19   O21   S    
C9    C14   S    
C12   O4    A    
C17   C33   S    
C11   C16   S    
O30   H27   S    
C24   N2    S    
O4    Zn2   S    
C37   H17   S    
C39   O28   D    
C1    O1    A    
C20   H3    S    
C9    C40   S    
C31   H6    S    
C20   C22   S    
C26   C30   S    
C32   O12   D    
C2    C5    S    
C3    C4    S    
C25   O8    A    
O2    Zn2   S    
C18   O18   S    
C15   C17   S    
C21   O24   S    
C18   C37   S    
C13   H1    S    
C5    O29   S    
C3    C5    S    
C24   O26   S    
C4    C26   S    
C13   C17   S    
C2    C30   S    
C16   C32   S    
O18   H15   S    
O26   H23   S    
C18   N1    S    
C9    C41   S    
C31   O9    D    
O27   H24   S    
C39   H25   S    
O1    Zn1   S    
C1    O2    A    
C17   O14   S    
O21   H18   S    
C20   N1    S    
C3    O30   S    
O25   H22   S    
C35   O17   D    
C34   H13   S    
C21   C24   S    
C1    C14   S    
N2    Zn1   S    
C13   C14   S    
O6    Zn2   S    
C11   C34   S    
