data_mof_unit_4251.cif
_audit_creation_date              2012-12-11T14:30:56-0500
_audit_creation_method            fapswitch 2.2
_symmetry_space_group_name_H-M    P1
_symmetry_Int_Tables_number       1
_space_group_crystal_system       triclinic
_cell_length_a                    17.469338
_cell_length_b                    24.590504
_cell_length_c                    14.853591
_cell_angle_alpha                 90.434463
_cell_angle_beta                  125.198248
_cell_angle_gamma                 89.620762
_cell_volume                      5213.98347884

loop_
_atom_site_label
_atom_site_type_symbol
_atom_type_description
_atom_site_fract_x
_atom_site_fract_y
_atom_site_fract_z
_atom_type_partial_charge
C1    C     C_R   0.822234 0.639044 0.906891 -0.151236
C2    C     C_R   0.149721 0.651693 0.095250 -0.159063
C3    C     C_R   0.323070 0.139634 0.906761 -0.137504
C4    C     C_R   0.646011 0.152776 0.093228 -0.126707
C5    C     C_R   0.830827 0.350983 0.004608 -0.048835
C6    C     C_R   0.108764 0.316788 0.997078 -0.003316
C7    C     C_R   0.329579 0.848613 0.001464 0.019730
C8    C     C_R   0.608400 0.816868 0.996360 -0.020085
C9    C     C_R   0.057922 0.503599 0.364589 0.081128
C10   C     C_R   0.057619 0.502325 0.736496 0.062400
C11   C     C_R   0.557753 0.003497 0.364527 0.075450
C12   C     C_R   0.558017 0.002022 0.737013 0.055988
C13   C     C_R   0.684298 0.502943 0.652284 0.027752
C14   C     C_R   0.324684 0.500985 0.284867 0.024622
C15   C     C_R   0.182824 0.002925 0.654635 0.044175
C16   C     C_R   0.824616 0.001273 0.283501 0.036903
C17   C     C_3   0.516661 0.465366 0.531218 -0.145569
C18   C     C_3   0.490938 0.453740 0.414697 -0.134980
C19   C     C_3   0.015838 0.963764 0.528470 -0.122144
C20   C     C_3   0.991866 0.955095 0.411942 -0.158995
C21   C     C_3   0.448631 0.513761 0.488711 -0.131282
C22   C     C_3   0.568372 0.492832 0.434864 -0.134551
C23   C     C_3   0.946570 0.011425 0.488306 -0.118298
C24   C     C_3   0.068842 0.995817 0.436443 -0.127818
C25   C     C_3   0.423295 0.502126 0.373034 0.168218
C26   C     C_3   0.592565 0.504172 0.549914 0.166623
C27   C     C_3   0.922989 0.002705 0.372627 0.154058
C28   C     C_3   0.091303 0.004198 0.551543 0.143916
C29   C     C_3   0.498643 0.541367 0.391004 -0.154477
C30   C     C_3   0.525415 0.552778 0.508382 -0.155433
C31   C     C_3   0.997824 0.043608 0.394869 -0.143116
C32   C     C_3   0.022833 0.052062 0.512259 -0.147174
C33   C     C_2   0.112729 0.776946 0.936690 -0.287520
C34   C     C_2   0.742296 0.687866 0.067218 -0.249041
C35   C     C_2   0.721613 0.218121 0.980628 -0.207001
C36   C     C_2   0.243055 0.187889 0.066035 -0.251350
C37   C     C_2   0.145401 0.741644 0.019150 -0.206218
C38   C     C_2   0.771897 0.698255 0.003317 -0.287472
C39   C     C_2   0.655235 0.230009 0.995937 -0.297284
C40   C     C_2   0.273253 0.199025 0.003106 -0.263647
C41   C     C_2   0.768453 0.259966 0.962279 0.630486
C42   C     C_2   0.185495 0.226964 0.077310 0.467151
C43   C     C_2   0.173131 0.821727 0.949215 0.564476
C44   C     C_2   0.683829 0.727039 0.077106 0.557939
C45   C     C_R   0.916723 0.366341 0.095292 0.553622
C46   C     C_R   0.051099 0.349033 0.906636 0.472744
C47   C     C_R   0.416304 0.864215 0.092976 0.546713
C48   C     C_R   0.550218 0.849118 0.905951 0.464273
C49   C     C_2   0.775479 0.309366 0.005161 -0.332701
C50   C     C_2   0.127232 0.259131 0.991120 -0.173899
C51   C     C_2   0.264569 0.810521 0.996654 -0.307028
C52   C     C_2   0.625675 0.758939 0.990478 -0.233366
C53   C     C_2   0.123501 0.463495 0.546469 -0.089676
C54   C     C_2   0.120961 0.460046 0.643485 -0.092454
C55   C     C_2   0.623180 0.963226 0.546273 -0.080831
C56   C     C_2   0.620750 0.959696 0.643373 -0.083841
C57   C     C_2   0.087204 0.506445 0.478401 -0.173902
C58   C     C_2   0.111220 0.504293 0.689221 -0.187964
C59   C     C_2   0.586945 0.006241 0.478346 -0.167804
C60   C     C_2   0.611497 0.003917 0.689563 -0.166855
C61   C     C_R   0.043731 0.547626 0.300764 -0.131754
C62   C     C_R   0.022408 0.547108 0.756988 -0.124723
C63   C     C_R   0.543583 0.047578 0.300741 -0.120162
C64   C     C_R   0.522926 0.046938 0.757512 -0.112170
C65   C     C_R   0.737213 0.457140 0.703732 0.017027
C66   C     C_R   0.268718 0.455648 0.257508 0.019581
C67   C     C_R   0.236361 0.957139 0.704904 0.091852
C68   C     C_R   0.768813 0.955818 0.256756 0.021784
C69   C     C_R   0.049942 0.458028 0.305500 -0.040890
C70   C     C_R   0.026327 0.456884 0.760573 -0.012929
C71   C     C_R   0.549824 0.957953 0.305380 -0.015082
C72   C     C_R   0.526354 0.956613 0.760797 -0.004663
C73   C     C_R   0.736484 0.547768 0.707870 -0.148264
C74   C     C_R   0.268906 0.546702 0.253324 -0.156235
C75   C     C_R   0.235725 0.047760 0.709185 -0.136081
C76   C     C_R   0.768638 0.046846 0.252273 -0.159291
C77   C     C_R   0.818620 0.371844 0.911992 -0.086915
C78   C     C_R   0.141287 0.349207 0.088081 -0.161572
C79   C     C_R   0.320355 0.869318 0.910418 -0.071539
C80   C     C_R   0.641523 0.849236 0.087731 -0.166965
C81   C     C_R   0.915576 0.639281 0.090867 0.043789
C82   C     C_R   0.055445 0.653428 0.913086 0.042983
C83   C     C_R   0.416335 0.139833 0.090759 0.044657
C84   C     C_R   0.551485 0.153056 0.911702 0.031906
C85   C     C_R   0.833901 0.660589 0.000382 0.147465
C86   C     C_R   0.117448 0.684753 0.006080 0.125869
C87   C     C_R   0.335266 0.161551 0.000175 0.138362
C88   C     C_R   0.608742 0.184990 0.001882 0.120893
H1    H     H_    0.768740 0.649536 0.822353 0.118543
H2    H     H_    0.188327 0.664921 0.180295 0.118148
H3    H     H_    0.269850 0.150261 0.822217 0.118063
H4    H     H_    0.690586 0.165887 0.178293 0.123798
H5    H     H_    0.524164 0.434823 0.590478 0.120923
H6    H     H_    0.477407 0.413238 0.374894 0.130119
H7    H     H_    0.022154 0.931421 0.583898 0.177638
H8    H     H_    0.979155 0.915524 0.369145 0.136538
H9    H     H_    0.488435 0.572165 0.330699 0.144318
H10   H     H_    0.541257 0.593228 0.549012 0.134264
H11   H     H_    0.987665 0.075984 0.337209 0.151748
H12   H     H_    0.037249 0.091623 0.555682 0.139593
H13   H     H_    0.048036 0.770906 0.856708 0.142573
H14   H     H_    0.765646 0.651404 0.117311 0.197562
H15   H     H_    0.739556 0.175925 0.978116 0.200150
H16   H     H_    0.265895 0.151038 0.114977 0.189814
H17   H     H_    0.206328 0.752928 0.100454 0.170520
H18   H     H_    0.750467 0.734139 0.951944 0.159118
H19   H     H_    0.627600 0.270477 0.989837 0.147555
H20   H     H_    0.252534 0.235341 0.952982 0.153304
H21   H     H_    0.753393 0.317291 0.058942 0.156676
H22   H     H_    0.109617 0.246490 0.911191 0.173745
H23   H     H_    0.291768 0.769960 0.026813 0.183676
H24   H     H_    0.608440 0.745975 0.911051 0.181793
H25   H     H_    0.139898 0.426230 0.521385 0.136128
H26   H     H_    0.109806 0.419753 0.663015 0.152698
H27   H     H_    0.639491 0.925980 0.521040 0.134352
H28   H     H_    0.609323 0.919417 0.662682 0.144868
H29   H     H_    0.068612 0.543659 0.501067 0.140157
H30   H     H_    0.127723 0.544366 0.674902 0.141151
H31   H     H_    0.568419 0.043427 0.501181 0.144750
H32   H     H_    0.628227 0.043966 0.675410 0.149114
H33   H     H_    0.063149 0.588708 0.331313 0.120755
H34   H     H_    0.035392 0.588961 0.748996 0.121217
H35   H     H_    0.562752 0.088682 0.331248 0.121515
H36   H     H_    0.536373 0.088760 0.749876 0.128556
H37   H     H_    0.077141 0.419176 0.341756 0.179338
H38   H     H_    0.048648 0.416112 0.761476 0.153713
H39   H     H_    0.576844 0.919026 0.341396 0.173719
H40   H     H_    0.547830 0.915512 0.761260 0.147029
H41   H     H_    0.720749 0.589501 0.680563 0.108608
H42   H     H_    0.291386 0.588618 0.270688 0.123839
H43   H     H_    0.219670 0.089450 0.681656 0.109625
H44   H     H_    0.790827 0.088819 0.269279 0.124145
H45   H     H_    0.759381 0.364672 0.829208 0.139944
H46   H     H_    0.175125 0.335006 0.170517 0.222156
H47   H     H_    0.263805 0.860500 0.827082 0.147427
H48   H     H_    0.675641 0.834884 0.170171 0.222443
H49   H     H_    0.397505 0.522236 0.508794 0.128191
H50   H     H_    0.620472 0.484383 0.416358 0.137051
H51   H     H_    0.894466 0.017721 0.507649 0.137240
H52   H     H_    0.121919 0.989506 0.418712 0.145216
N1    N     N_R   0.892320 0.603520 0.941090 -0.055784
N2    N     N_R   0.107680 0.603520 0.058910 -0.051594
N3    N     N_R   0.392320 0.103520 0.941090 -0.054360
N4    N     N_R   0.607680 0.103520 0.058910 -0.058380
N5    N     N_R   0.953790 0.399020 0.058440 -0.108963
N6    N     N_R   0.046210 0.399020 0.941560 -0.117164
N7    N     N_R   0.453790 0.899020 0.058440 -0.111444
N8    N     N_R   0.546210 0.899020 0.941560 -0.116627
N9    N     N_R   0.026760 0.529450 0.205590 -0.050926
N10   N     N_R   0.973240 0.529450 0.794410 -0.050197
N11   N     N_R   0.526760 0.029450 0.205590 -0.048602
N12   N     N_R   0.473240 0.029450 0.794410 -0.053955
N13   N     N_R   0.819350 0.473090 0.793940 -0.053067
N14   N     N_R   0.180650 0.473090 0.206060 -0.053789
N15   N     N_R   0.319350 0.973090 0.793940 -0.048814
N16   N     N_R   0.680650 0.973090 0.206060 -0.056539
N17   N     N_R   0.027860 0.473090 0.206590 -0.067001
N18   N     N_R   0.972140 0.473090 0.793410 -0.031940
N19   N     N_R   0.527860 0.973090 0.206590 -0.059708
N20   N     N_R   0.472140 0.973090 0.793410 -0.034998
N21   N     N_R   0.818250 0.529450 0.792940 -0.047217
N22   N     N_R   0.181750 0.529450 0.207060 -0.048336
N23   N     N_R   0.318250 0.029450 0.792940 -0.047414
N24   N     N_R   0.681750 0.029450 0.207060 -0.051173
N25   N     N_R   0.896320 0.399020 0.944720 -0.076256
N26   N     N_R   0.103680 0.399020 0.055280 -0.086511
N27   N     N_R   0.396320 0.899020 0.944720 -0.087111
N28   N     N_R   0.603680 0.899020 0.055280 -0.085389
N29   N     N_R   0.949790 0.603520 0.054810 -0.053793
N30   N     N_R   0.050210 0.603520 0.945190 -0.054898
N31   N     N_R   0.449790 0.103520 0.054810 -0.052536
N32   N     N_R   0.550210 0.103520 0.945190 -0.056542
Ni1   Ni    Ni4+2 0.934100 0.565890 0.869590 0.215111
Ni2   Ni    Ni4+2 0.065900 0.565890 0.130410 0.207498
Ni3   Ni    Ni4+2 0.434100 0.065890 0.869590 0.225484
Ni4   Ni    Ni4+2 0.565900 0.065890 0.130410 0.213188
Ni5   Ni    Ni4+2 0.068420 0.436630 0.132700 0.257641
Ni6   Ni    Ni4+2 0.931580 0.436630 0.867300 0.294035
Ni7   Ni    Ni4+2 0.568420 0.936630 0.132700 0.263306
Ni8   Ni    Ni4+2 0.431580 0.936630 0.867300 0.294980
S1    S     S_3+6 0.822228 0.240744 0.895429 -0.000022
O1    O     O_2   0.765855 0.263454 0.780713 -0.295811
O2    O     O_2   0.920347 0.262515 0.958177 -0.227749
O3    O     O_3   0.825892 0.172603 0.887689 -0.542803
H53   H     H_    0.857731 0.165611 0.851052 0.389118
S2    S     S_3+6 0.188147 0.223598 0.197748 -0.005236
O4    O     O_2   0.267281 0.257614 0.287247 -0.298968
O5    O     O_2   0.096986 0.243399 0.174292 -0.177678
O6    O     O_3   0.205765 0.158937 0.241794 -0.502956
H54   H     H_    0.149684 0.138957 0.182407 0.350697
S3    S     S_3+6 0.121471 0.886080 0.894638 -0.023909
O7    O     O_2   0.187590 0.930761 0.966569 -0.242140
O8    O     O_2   0.098891 0.891458 0.781058 -0.367719
O9    O     O_3   0.022162 0.892240 0.887544 -0.485509
H55   H     H_    0.975174 0.870234 0.822654 0.339972
S4    S     S_3+6 0.681748 0.722974 0.194214 -0.035557
O10   O     O_2   0.760455 0.755932 0.286945 -0.332867
O11   O     O_2   0.589290 0.743525 0.165918 -0.213064
O12   O     O_3   0.695475 0.657765 0.234318 -0.541694
H56   H     H_    0.692042 0.658397 0.298602 0.377365
S5    S     S_3+6 0.979533 0.330176 0.220952 -0.027811
O13   O     O_2   0.954848 0.352633 0.295602 -0.334911
O14   O     O_2   0.952697 0.271133 0.199876 -0.220652
O15   O     O_3   0.095413 0.335060 0.281222 -0.563130
H57   H     H_    0.124953 0.315085 0.351521 0.387906
S6    S     S_3+6 0.976758 0.322917 0.770069 -0.065005
O16   O     O_2   0.037490 0.305173 0.733663 -0.340174
O17   O     O_2   0.925111 0.274201 0.769423 -0.207809
O18   O     O_3   0.898836 0.368507 0.679467 -0.590141
H58   H     H_    0.867192 0.350280 0.606732 0.383201
S7    S     S_3+6 0.477084 0.829860 0.220379 -0.039619
O19   O     O_2   0.451075 0.854407 0.292320 -0.315558
O20   O     O_2   0.449997 0.770868 0.202299 -0.258699
O21   O     O_3   0.593296 0.834057 0.282152 -0.563204
H59   H     H_    0.621886 0.814087 0.352313 0.384800
S8    S     S_3+6 0.466757 0.821992 0.772362 -0.087989
O22   O     O_2   0.517870 0.791928 0.733386 -0.318554
O23   O     O_2   0.405315 0.782685 0.780170 -0.286882
O24   O     O_3   0.399103 0.869442 0.678301 -0.593508
H60   H     H_    0.362191 0.849598 0.607165 0.383062
N33   N     N_3   0.720271 0.405534 0.650271 -0.194067
H61   H     H_    0.662973 0.387828 0.643410 0.097246
H62   H     H_    0.777285 0.380184 0.700449 0.207257
N34   N     N_3   0.301483 0.404937 0.314130 -0.214579
H63   H     H_    0.313765 0.378878 0.267913 0.116522
H64   H     H_    0.250326 0.388470 0.321389 0.157802
N35   N     N_3   0.219093 0.906026 0.649799 -0.210641
H65   H     H_    0.163544 0.887318 0.645309 0.119037
H66   H     H_    0.277156 0.881104 0.697543 0.184663
N36   N     N_3   0.802205 0.905136 0.313419 -0.213559
H67   H     H_    0.814533 0.879224 0.267050 0.117627
H68   H     H_    0.751320 0.888401 0.320896 0.156441
N37   N     N_3   0.967146 0.660749 0.200348 -0.223076
H69   H     H_    0.974254 0.702644 0.196048 0.126606
H70   H     H_    0.928058 0.654814 0.232331 0.124702
N38   N     N_3   0.986544 0.673160 0.804924 -0.220718
H71   H     H_    0.946092 0.702760 0.810230 0.112326
H72   H     H_    0.020906 0.690113 0.773095 0.106713
N39   N     N_3   0.468132 0.161203 0.200326 -0.222750
H73   H     H_    0.476295 0.202989 0.196238 0.121598
H74   H     H_    0.428651 0.155875 0.231970 0.135034
N40   N     N_3   0.483885 0.172430 0.802647 -0.214873
H75   H     H_    0.443387 0.202255 0.807376 0.111025
H76   H     H_    0.520136 0.191235 0.774899 0.130673

loop_
_geom_bond_atom_site_label_1
_geom_bond_atom_site_label_2
_ccdc_geom_bond_type
C50   H22   S    
C15   C75   A    
C55   C56   S    
N12   N20   A    
C22   C29   S    
C55   C59   D    
S5    O13   D    
C36   C42   S    
C19   C20   S    
S8    O24   S    
C21   H49   S    
C5    C49   S    
N34   H63   S    
C48   S8    S    
N2    Ni2   S    
C13   C65   A    
S1    O1    D    
C24   H52   S    
C39   H19   S    
O21   H59   S    
O9    H55   S    
C29   C30   S    
C55   H27   S    
C64   N12   A    
C33   H13   S    
C17   C26   S    
C14   C74   A    
C40   C87   S    
C23   H51   S    
C10   C58   S    
N39   H73   S    
S8    O23   D    
C47   S7    S    
C34   H14   S    
C65   N33   S    
C12   C64   A    
N16   Ni7   S    
C11   C71   A    
C82   N30   A    
C6    C78   A    
C52   H24   S    
C77   N25   A    
C54   H26   S    
C58   H30   S    
O3    H53   S    
N6    Ni6   S    
C67   N15   A    
N9    Ni2   S    
C2    C86   A    
C2    H2    S    
N20   Ni8   S    
C65   N13   A    
N4    N32   A    
N12   Ni3   S    
C31   H11   S    
N35   H65   S    
C75   H43   S    
C83   N31   A    
C17   C18   S    
C51   H23   S    
N29   Ni2   S    
N24   Ni4   S    
C16   C68   A    
C81   N29   A    
C18   H6    S    
N10   N18   A    
N37   H69   S    
C8    C52   S    
C21   C30   S    
N32   Ni3   S    
N2    N30   A    
C4    H4    S    
C44   C52   D    
C16   C27   S    
N27   Ni8   S    
C20   H8    S    
S2    O4    D    
C69   H37   S    
O12   H56   S    
N8    Ni8   S    
C18   C22   S    
S2    O5    D    
C1    C85   A    
N25   Ni6   S    
S5    O14   D    
C41   S1    S    
C10   C62   A    
C18   C25   S    
C77   H45   S    
C39   C88   S    
S4    O12   S    
C11   C59   S    
C41   C49   D    
C53   H25   S    
N23   Ni3   S    
N40   H75   S    
C47   N7    A    
S1    O2    D    
C25   C29   S    
C83   N39   S    
C78   N26   A    
C44   S4    S    
C59   H31   S    
C38   C85   S    
C3    C87   A    
S3    O7    D    
C33   C43   S    
C20   C24   S    
C37   C86   S    
C36   C40   D    
C81   N37   S    
C3    N3    A    
S8    O22   D    
C14   C66   A    
S4    O11   D    
N38   H71   S    
C78   H46   S    
O24   H60   S    
C74   N22   A    
C53   C57   D    
S6    O16   D    
C34   C38   D    
N5    N25   A    
C71   H39   S    
C62   N10   A    
C84   N32   A    
C82   C86   A    
C27   C31   S    
C73   N21   A    
N36   H67   S    
C33   C37   D    
C56   C60   D    
N13   N21   A    
C70   N18   A    
N11   N19   A    
C38   H18   S    
C35   C39   D    
C8    C48   A    
S3    O8    D    
C37   H17   S    
N33   H61   S    
C45   N5    A    
C7    C51   S    
N21   Ni1   S    
N40   H76   S    
S7    O19   D    
C22   H50   S    
C28   C32   S    
C3    H3    S    
C15   C67   A    
N4    Ni4   S    
N1    N29   A    
O18   H58   S    
C56   H28   S    
C34   C44   S    
N39   H74   S    
N26   Ni5   S    
N17   Ni5   S    
C6    C50   S    
N36   H68   S    
C19   C28   S    
N37   H70   S    
C63   N11   A    
N7    N27   A    
C69   N17   A    
C42   C50   D    
N22   Ni2   S    
C10   C70   A    
C75   N23   A    
C66   N34   S    
N35   H66   S    
C13   C73   A    
C26   C30   S    
C23   C27   S    
N1    Ni1   S    
C22   C26   S    
C2    N2    A    
S5    O15   S    
C9    C61   A    
C13   C26   S    
C76   N24   A    
C17   H5    S    
C66   N14   A    
C57   H29   S    
C5    C77   A    
C61   N9    A    
C62   H34   S    
C19   H7    S    
N15   Ni8   S    
C19   C23   S    
C7    C79   A    
C54   C58   D    
S1    O3    S    
C46   S6    S    
C21   C25   S    
N13   Ni6   S    
C1    H1    S    
N11   Ni4   S    
C6    C46   A    
S7    O20   D    
C16   C76   A    
N14   N22   A    
C31   C32   S    
C24   C28   S    
C61   H33   S    
N19   Ni7   S    
S4    O10   D    
C68   N16   A    
N34   H64   S    
C83   C87   A    
C4    N4    A    
C63   H35   S    
C53   C54   S    
C4    C88   A    
C20   C27   S    
C32   H12   S    
N28   Ni7   S    
C71   N19   A    
N31   Ni4   S    
C30   H10   S    
C35   H15   S    
C72   N20   A    
C29   H9    S    
C36   H16   S    
N15   N23   A    
C23   C32   S    
C9    C69   A    
S2    O6    S    
C74   H42   S    
N18   Ni6   S    
C24   C31   S    
N3    N31   A    
C79   H47   S    
N33   H62   S    
C64   H36   S    
C67   N35   S    
C76   H44   S    
S6    O18   S    
C70   H38   S    
C15   C28   S    
C46   N6    A    
C84   C88   A    
C5    C45   A    
S6    O17   D    
C43   C51   D    
C73   H41   S    
N8    N28   A    
N3    Ni3   S    
C48   N8    A    
N38   H72   S    
C60   H32   S    
C9    C57   S    
C14   C25   S    
C12   C72   A    
O6    H54   S    
C35   C41   S    
C17   C21   S    
S3    O9    S    
C80   H48   S    
C1    N1    A    
C43   S3    S    
C12   C60   S    
N7    Ni7   S    
C40   H20   S    
S7    O21   S    
O15   H57   S    
N16   N24   A    
C45   S5    S    
C42   S2    S    
N10   Ni1   S    
N14   Ni5   S    
N5    Ni5   S    
C8    C80   A    
C72   H40   S    
C49   H21   S    
C84   N40   S    
N6    N26   A    
C79   N27   A    
C82   N38   S    
C11   C63   A    
N9    N17   A    
C80   N28   A    
C81   C85   A    
C7    C47   A    
C68   N36   S    
N30   Ni1   S    
