data_mof_unit_4815.cif
_audit_creation_date              2013-03-05T16:47:53-0500
_audit_creation_method            fapswitch 2.2
_symmetry_space_group_name_H-M    P1
_symmetry_Int_Tables_number       1
_space_group_crystal_system       triclinic
_cell_length_a                    10.847541
_cell_length_b                    10.831853
_cell_length_c                    9.651494
_cell_angle_alpha                 89.248765
_cell_angle_beta                  90.831066
_cell_angle_gamma                 94.472248
_cell_volume                      1130.38712325

loop_
_atom_site_label
_atom_site_type_symbol
_atom_site_description
_atom_site_fract_x
_atom_site_fract_y
_atom_site_fract_z
_atom_type_partial_charge
O1    O     O_R   0.499990 0.319640 0.618810 -0.601548
O2    O     O_R   0.500000 0.319660 0.381240 -0.598247
C1    C     C_R   0.501954 0.261920 0.502279 0.772190
O3    O     O_R   0.319640 0.500000 0.618780 -0.596781
O4    O     O_R   0.319650 0.500020 0.381210 -0.586338
C2    C     C_R   0.261911 0.492732 0.498795 0.774403
Cu1   Cu    Cu3+1 0.499990 0.499990 0.640660 0.942614
Cu2   Cu    Cu3+1 0.500010 0.500010 0.359340 0.979288
O5    O     O_R   0.500000 0.680340 0.618760 -0.613467
O6    O     O_R   0.500010 0.680360 0.381190 -0.561556
O7    O     O_R   0.680350 0.499980 0.618790 -0.598615
O8    O     O_R   0.680360 0.500000 0.381220 -0.543048
C3    C     C_R   0.485639 0.735205 0.499390 0.857029
C4    C     C_R   0.736334 0.490259 0.501339 0.862790
C5    C     C_R   0.160365 0.415135 0.007764 -0.248990
H1    H     H_    0.192001 0.471193 0.920553 0.169133
C6    C     C_R   0.139777 0.472961 0.133864 0.062706
C7    C     C_R   0.104778 0.398497 0.249806 0.047870
C8    C     C_R   0.093570 0.269030 0.238162 -0.211197
H2    H     H_    0.064495 0.211307 0.326151 0.156436
C9    C     C_R   0.112086 0.213161 0.111746 -0.107231
H3    H     H_    0.099566 0.113225 0.105145 0.185792
C10   C     C_R   0.143415 0.285933 0.994631 0.014677
C11   C     C_R   0.928070 0.454255 0.379877 -0.158714
H4    H     H_    0.874176 0.433860 0.287151 0.168329
C12   C     C_R   0.868834 0.473246 0.503881 -0.087227
C13   C     C_R   0.937260 0.469392 0.628225 0.073154
C14   C     C_R   0.065236 0.484722 0.622966 -0.161003
H5    H     H_    0.116685 0.493015 0.718473 0.152691
C15   C     C_R   0.126492 0.479229 0.496956 -0.107272
C16   C     C_R   0.055658 0.451088 0.375823 -0.028133
C17   C     C_R   0.869339 0.487719 0.877584 0.021770
C18   C     C_R   0.812169 0.429301 0.993204 -0.222354
H6    H     H_    0.795515 0.481477 0.083486 0.170837
C19   C     C_R   0.772534 0.303691 0.992691 -0.115524
H7    H     H_    0.729223 0.260690 0.083476 0.130182
C20   C     C_R   0.788022 0.233984 0.875115 -0.111736
H8    H     H_    0.758029 0.136292 0.874677 0.134026
C21   C     C_R   0.840325 0.290726 0.757166 -0.156770
H9    H     H_    0.850291 0.235440 0.665791 0.131878
C22   C     C_R   0.880927 0.417448 0.756724 0.089820
H10   H     H_    0.516762 0.114411 0.285319 0.151934
C23   C     C_R   0.488324 0.105767 0.769584 -0.194081
H11   H     H_    0.538318 0.192734 0.791963 0.174191
C24   C     C_R   0.442270 0.039058 0.884622 -0.163600
H12   H     H_    0.449800 0.079776 0.986582 0.122926
C25   C     C_R   0.385656 0.920817 0.868177 -0.031506
H13   H     H_    0.345960 0.870549 0.956497 0.179126
C26   C     C_R   0.386203 0.864858 0.739257 -0.104711
H14   H     H_    0.341548 0.772408 0.730553 0.174582
C27   C     C_R   0.442162 0.928114 0.624084 0.063179
C28   C     C_R   0.476689 0.055931 0.634182 0.121509
C29   C     C_R   0.498306 0.126027 0.508639 -0.106047
C30   C     C_R   0.501435 0.064235 0.382194 -0.214594
H15   H     H_    0.500171 0.892233 0.280021 0.164669
C31   C     C_R   0.489214 0.936624 0.378337 -0.134413
C32   C     C_R   0.466598 0.867448 0.499710 -0.116476
H16   H     H_    0.398084 0.327902 0.128910 0.141490
C33   C     C_R   0.628505 0.707815 0.135176 0.346422
C34   C     C_R   0.654009 0.814248 0.053310 -0.270122
H17   H     H_    0.694222 0.898853 0.099855 0.186305
C35   C     C_R   0.665082 0.803049 0.912368 -0.240155
H18   H     H_    0.708575 0.878772 0.851734 0.190631
C36   C     C_R   0.633423 0.690044 0.852093 -0.128044
H19   H     H_    0.667436 0.678340 0.750141 0.228168
C37   C     C_R   0.563964 0.595672 0.923987 0.176024
C38   C     C_R   0.563736 0.598863 0.073412 0.073465
N1    N     N_R   0.501190 0.501210 0.147910 -0.200340
C39   C     C_R   0.444799 0.405357 0.074207 -0.040613
H20   H     H_    0.396663 0.329643 0.872868 0.125112
C40   C     C_R   0.444052 0.406079 0.926942 -0.069553
N2    N     N_R   0.501230 0.501290 0.852040 -0.188205
C41   C     C_2   0.158696 0.228365 0.858418 0.332905
H21   H     H_    0.185236 0.285550 0.769050 0.067755
O9    O     O_2   0.141750 0.116456 0.844049 -0.520982
N3    N     N_R   0.712665 0.703407 0.250662 0.157386
O10   O     O_R   0.816960 0.656325 0.228602 -0.439534
O11   O     O_R   0.715791 0.791518 0.341373 -0.383564
C42   C     C_2   0.154147 0.610070 0.143211 0.370258
H22   H     H_    0.135324 0.655554 0.239254 0.103700
O12   O     O_2   0.188163 0.674187 0.043787 -0.570428
C43   C     C_2   0.913031 0.620772 0.887908 0.355618
H23   H     H_    0.912254 0.666265 0.987159 0.143481
O13   O     O_2   0.948310 0.682086 0.787012 -0.515734

loop_
_geom_bond_atom_site_label_1
_geom_bond_atom_site_label_2
_geom_bond_distance
_ccdc_geom_bond_type
H15   C31   1.081609 S    
C41   H21   1.084391 S    
C8    H2    1.083831 S    
Cu1   Cu2   2.715159 S    
C25   C26   1.391474 A    
C29   C30   1.401654 A    
Cu1   O7    1.970866 S    
C12   C13   1.403787 A    
C20   H8    1.082592 S    
C34   C35   1.375106 A    
C14   H5    1.071747 S    
C8    C9    1.393067 A    
C11   C12   1.391752 A    
O4    C2    1.302688 A    
O7    C4    1.303055 A    
C23   C28   1.420638 A    
C3    C32   1.463155 S    
C5    H1    1.075839 S    
C6    C42   1.484955 S    
C31   C32   1.396618 A    
Cu1   O5    1.962161 S    
C7    C8    1.403984 A    
C39   C40   1.421158 A    
O5    C3    1.302330 A    
C35   C36   1.379131 A    
C33   C38   1.455582 A    
C37   N2    1.373626 A    
C19   H7    1.082846 S    
N1    C39   1.365974 A    
C26   C27   1.417150 A    
C17   C22   1.413618 A    
H20   C40   1.076702 S    
C27   C32   1.414250 A    
C5    C10   1.404396 A    
C37   C38   1.443081 A    
C33   C34   1.400947 A    
C9    H3    1.083025 S    
C41   O9    1.221208 D    
C10   C41   1.479385 S    
O3    Cu1   1.964679 S    
C18   H6    1.069909 S    
N3    O10   1.298136 A    
C24   C25   1.386561 A    
C30   C31   1.379219 A    
C38   N1    1.406576 A    
C11   H4    1.077680 S    
O3    C2    1.308838 A    
Cu1   N2    2.040209 S    
C42   O12   1.221533 D    
C24   H12   1.083054 S    
C27   C28   1.410039 A    
C34   H17   1.083832 S    
O1    C1    1.295184 A    
C36   C37   1.403776 A    
C23   H11   1.072573 S    
C35   H18   1.082999 S    
C13   C22   1.475864 S    
C25   H13   1.081863 S    
Cu2   O8    1.964679 S    
C6    C7    1.409898 A    
C4    C12   1.463059 S    
C23   C24   1.393983 A    
C2    C15   1.464704 S    
O8    C4    1.307752 A    
Cu2   N1    2.040706 S    
C43   O13   1.220675 D    
C9    C10   1.400175 A    
C26   H14   1.081617 S    
C21   H9    1.083863 S    
C28   C29   1.433879 A    
C5    C6    1.404672 A    
C19   C20   1.390628 A    
O1    Cu1   1.967621 S    
O2    Cu2   1.962161 S    
N3    O11   1.301743 A    
O6    C3    1.309979 A    
O4    Cu2   1.970866 S    
H16   C39   1.081323 S    
C17   C43   1.485770 S    
C17   C18   1.403772 A    
C14   C15   1.398459 A    
O2    C1    1.318530 A    
C11   C16   1.388237 A    
C40   N2    1.365507 A    
C20   C21   1.393416 A    
C36   H19   1.068421 S    
C1    C29   1.469912 S    
C15   C16   1.413125 A    
C18   C19   1.394621 A    
C42   H22   1.084818 S    
C21   C22   1.408445 A    
Cu2   O6    1.967620 S    
C43   H23   1.083400 S    
C13   C14   1.386795 A    
C7    C16   1.473772 S    
C33   N3    1.433166 S    
H10   C30   1.083659 S    
