data_mof_unit_1020.cif
_audit_creation_date              2012-12-10T18:57:11-0500
_audit_creation_method            fapswitch 2.2
_symmetry_space_group_name_H-M    P1
_symmetry_Int_Tables_number       1
_space_group_crystal_system       triclinic
_cell_length_a                    8.713008
_cell_length_b                    10.805635
_cell_length_c                    9.564877
_cell_angle_alpha                 90.774511
_cell_angle_beta                  97.796698
_cell_angle_gamma                 89.978816
_cell_volume                      892.121905451

loop_
_atom_site_label
_atom_site_type_symbol
_atom_type_description
_atom_site_fract_x
_atom_site_fract_y
_atom_site_fract_z
_atom_type_partial_charge
C1    C     C_R   0.499259 0.262686 0.498823 0.797851
C2    C     C_R   0.416242 0.933551 0.387698 -0.205813
C3    C     C_R   0.506222 0.871052 0.498320 -0.096861
C4    C     C_R   0.613008 0.939342 0.590723 0.060790
C5    C     C_3   0.663747 0.936909 0.747014 -0.209205
C6    C     C_3   0.655657 0.078534 0.745147 -0.492060
C7    C     C_R   0.633500 0.521339 0.090526 0.262618
C8    C     C_R   0.371428 0.467604 0.057796 -0.088403
C9    C     C_R   0.371363 0.467774 0.909366 -0.090566
C10   C     C_R   0.633716 0.520131 0.943176 0.246192
C11   C     C_3   0.730619 0.633497 0.950407 -0.482701
C12   C     C_R   0.203974 0.498991 0.463938 0.876215
C13   C     C_3   0.729681 0.635978 0.108644 -0.508518
C14   C     C_R   0.502192 0.737587 0.500715 0.783716
C15   C     C_R   0.796050 0.499514 0.536141 0.883861
C16   C     C_2   0.038166 0.496270 0.444309 -0.380973
C17   C     C_2   0.961925 0.499261 0.556136 -0.380559
C18   C     C_R   0.609493 0.066160 0.590100 0.098520
C19   C     C_R   0.504822 0.129813 0.494667 -0.070879
C20   C     C_R   0.416091 0.062915 0.385480 -0.216674
Cu1   Cu    Cu3+1 0.499990 0.499980 0.640670 0.930526
Cu2   Cu    Cu3+1 0.500010 0.500020 0.359330 0.933882
H1    H     H_    0.978689 0.491191 0.337126 0.166164
H2    H     H_    0.266362 0.442772 0.841465 0.142578
H3    H     H_    0.846875 0.615298 0.919023 0.208794
H4    H     H_    0.665787 0.711043 0.896506 0.211332
H5    H     H_    0.846107 0.620091 0.168349 0.191968
H6    H     H_    0.666263 0.716561 0.146102 0.214883
H7    H     H_    0.021465 0.502704 0.663587 0.165856
H8    H     H_    0.340957 0.110167 0.303587 0.149287
H9    H     H_    0.341125 0.882850 0.307124 0.147005
H10   H     H_    0.575415 0.895292 0.805797 0.151809
H11   H     H_    0.561020 0.116470 0.800178 0.199726
H12   H     H_    0.769041 0.126629 0.770901 0.196084
H13   H     H_    0.266491 0.442441 0.099073 0.142794
N1    N     N_R   0.500980 0.500930 0.148050 -0.185144
N2    N     N_R   0.500990 0.500890 0.852140 -0.187104
O1    O     O_R   0.500000 0.319640 0.618810 -0.578635
O2    O     O_R   0.500020 0.319680 0.381230 -0.582407
O3    O     O_R   0.274830 0.499980 0.591380 -0.588247
O4    O     O_R   0.274850 0.500020 0.353800 -0.597759
O5    O     O_R   0.499980 0.680320 0.618770 -0.586140
O6    O     O_R   0.500000 0.680360 0.381190 -0.581806
O7    O     O_R   0.725150 0.499980 0.646200 -0.587865
O8    O     O_R   0.725170 0.500020 0.408620 -0.576572
C21   C     C_R   0.827612 0.890149 0.790981 0.154718
C22   C     C_R   0.910735 0.823489 0.698010 -0.124501
C23   C     C_R   0.061075 0.781904 0.743595 -0.159886
C24   C     C_R   0.129162 0.804212 0.882366 -0.120975
C25   C     C_R   0.047355 0.868818 0.975851 -0.141101
C26   C     C_R   0.897580 0.911664 0.930547 -0.152787
H14   H     H_    0.860368 0.803214 0.590455 0.116198
H15   H     H_    0.124862 0.732088 0.671277 0.150910
H16   H     H_    0.245217 0.771268 0.917463 0.134849
H17   H     H_    0.099966 0.885696 0.083564 0.123738
H18   H     H_    0.835489 0.961243 0.004482 0.131272

loop_
_geom_bond_atom_site_label_1
_geom_bond_atom_site_label_2
_ccdc_geom_bond_type
C25   H17   S    
C12   O3    A    
C7    C10   A    
C13   H6    S    
C22   H14   S    
Cu1   O7    S    
C17   H7    S    
C7    N1    A    
C13   H5    S    
C19   C20   A    
C6    H11   S    
C14   O5    A    
C5    H10   S    
C4    C18   A    
C9    N2    A    
C2    C3    A    
C9    H2    S    
C24   H16   S    
C20   H8    S    
Cu1   Cu2   S    
C4    C5    S    
C11   C13   S    
C5    C6    S    
C3    C14   S    
C1    O1    A    
C10   N2    A    
Cu2   O2    S    
C23   C24   A    
C15   O7    A    
C24   C25   A    
C16   H1    S    
C2    H9    S    
C23   H15   S    
C6    C18   S    
C1    C19   S    
Cu2   O4    S    
C16   C17   D    
C10   C11   S    
C1    O2    A    
C2    C20   A    
C3    C4    A    
C22   C23   A    
C12   C16   S    
C7    C13   S    
Cu2   O8    S    
Cu1   N2    S    
C12   O4    A    
C26   H18   S    
C8    N1    A    
C15   C17   S    
C18   C19   A    
C11   H3    S    
C21   C22   A    
C8    C9    A    
Cu1   O5    S    
C11   H4    S    
C25   C26   A    
C21   C26   A    
C8    H13   S    
Cu2   O6    S    
Cu2   N1    S    
Cu1   O1    S    
C6    H12   S    
C14   O6    A    
C5    C21   S    
C15   O8    A    
Cu1   O3    S    
