data_mof_unit_834.cif
_audit_creation_date              2012-12-11T14:06:38-0500
_audit_creation_method            fapswitch 2.2
_symmetry_space_group_name_H-M    P1
_symmetry_Int_Tables_number       1
_space_group_crystal_system       triclinic
_cell_length_a                    11.953876
_cell_length_b                    11.963886
_cell_length_c                    19.489707
_cell_angle_alpha                 90.062774
_cell_angle_beta                  90.577387
_cell_angle_gamma                 120.508193
_cell_volume                      2401.24671848

loop_
_atom_site_label
_atom_site_type_symbol
_atom_type_description
_atom_site_fract_x
_atom_site_fract_y
_atom_site_fract_z
_atom_type_partial_charge
C1    C     C_R   0.554112 0.475421 0.597961 0.525795
C2    C     C_R   0.454533 0.928898 0.121155 0.592718
C3    C     C_R   0.160037 0.563364 0.131878 0.498365
C4    C     C_R   0.437881 0.597554 0.131574 0.535613
C5    C     C_R   0.549641 0.477175 0.405106 0.545398
C6    C     C_R   0.520842 0.075095 0.402814 0.602772
C7    C     C_R   0.927128 0.449226 0.405160 0.546913
C8    C     C_1   0.034226 0.513664 0.858845 0.007455
C9    C     C_1   0.483822 0.519268 0.858680 0.006018
C10   C     C_1   0.479035 0.964646 0.858762 0.008955
C11   C     C_1   0.992598 0.494233 0.726933 -0.025375
C12   C     C_R   0.525067 0.078894 0.597911 0.528711
C13   C     C_1   0.506409 0.498588 0.726857 -0.024332
C14   C     C_1   0.502108 0.008281 0.726982 -0.024708
C15   C     C_1   0.012643 0.505453 0.798241 -0.029117
C16   C     C_1   0.493042 0.506458 0.798127 -0.028900
C17   C     C_1   0.492662 0.986970 0.798279 -0.028118
C18   C     C_1   0.968831 0.478154 0.666573 0.016518
C19   C     C_1   0.523554 0.491361 0.666682 0.015799
C20   C     C_1   0.510089 0.032573 0.666727 0.016242
C21   C     C_2   0.003929 0.500262 0.344153 -0.028898
C22   C     C_2   0.495505 0.498776 0.343758 -0.023804
C23   C     C_R   0.922065 0.446762 0.597698 0.518236
C24   C     C_2   0.482335 0.000925 0.337799 0.015363
C25   C     C_2   0.125077 0.549614 0.202313 -0.070964
C26   C     C_2   0.453154 0.576118 0.201375 -0.027078
C27   C     C_2   0.504642 0.001761 0.184892 -0.072985
C28   C     C_2   0.000863 0.476183 0.220389 0.083235
C29   C     C_2   0.511789 0.511051 0.220216 0.060136
C30   C     C_2   0.433357 0.042813 0.217225 -0.012850
C31   C     C_2   0.888239 0.435924 0.172435 0.351276
C32   C     C_2   0.541510 0.426801 0.176553 0.346748
C33   C     C_2   0.380197 0.112782 0.176767 0.316362
C34   C     C_2   0.977319 0.422004 0.288528 0.262787
C35   C     C_2   0.082261 0.644379 0.342057 0.231052
C36   C     C_2   0.350730 0.439312 0.344099 0.219091
C37   C     C_2   0.519601 0.901418 0.326692 0.205552
C38   C     C_2   0.570237 0.541574 0.287170 0.166861
C39   C     C_2   0.403797 0.018217 0.292049 0.138886
C40   C     C_R   0.450759 0.922862 0.928388 0.572865
C41   C     C_R   0.076080 0.527093 0.928574 0.563047
C42   C     C_R   0.471841 0.548326 0.928461 0.594936
Cr1   Cr    Cr6+3 0.468420 0.238090 0.499960 1.115588
Cr2   Cr    Cr6+3 0.761910 0.230330 0.499960 1.136369
Cr3   Cr    Cr6+3 0.769670 0.531580 0.499960 1.123311
Cr4   Cr    Cr6+3 0.515700 0.760130 0.026360 1.072728
Cr5   Cr    Cr6+3 0.239870 0.755570 0.026360 1.079854
Cr6   Cr    Cr6+3 0.244430 0.484300 0.026360 1.100032
H1    H     H_    0.202812 0.574530 0.239498 0.061798
H2    H     H_    0.136246 0.696453 0.387714 0.138487
H3    H     H_    0.303673 0.433898 0.392349 0.129498
H4    H     H_    0.470325 0.827621 0.287426 0.064784
H5    H     H_    0.440931 0.637426 0.238007 0.028541
H6    H     H_    0.578299 0.990330 0.210901 0.115435
H7    H     H_    0.900458 0.479843 0.122459 0.146234
H8    H     H_    0.575898 0.369072 0.201813 0.153451
H9    H     H_    0.323939 0.149152 0.201066 0.185097
H10   H     H_    0.888388 0.104452 0.217173 0.375530
H11   H     H_    0.888119 0.709568 0.206567 0.390693
H12   H     H_    0.070378 0.958008 0.274915 0.405178
O1    O     O_R   0.434830 0.101190 0.575190 -0.501299
O2    O     O_R   0.664850 0.560590 0.424150 -0.419521
O3    O     O_R   0.484380 0.363570 0.430280 -0.486969
O4    O     O_R   0.636430 0.120810 0.430280 -0.422699
O5    O     O_R   0.879190 0.515620 0.430280 -0.458815
O6    O     O_3   0.666667 0.333333 0.499980 -0.317709
O7    O     O_R   0.548200 0.655360 0.951320 -0.494465
O8    O     O_R   0.344640 0.892840 0.951320 -0.487321
O9    O     O_R   0.107160 0.451800 0.951320 -0.500393
O10   O     O_R   0.505020 0.871000 0.955840 -0.499024
O11   O     O_R   0.129000 0.634020 0.955840 -0.491467
O12   O     O_R   0.898810 0.333640 0.575190 -0.508043
O13   O     O_R   0.365980 0.494980 0.955840 -0.482524
O14   O     O_R   0.543640 0.655270 0.102360 -0.433847
O15   O     O_R   0.344730 0.888370 0.102360 -0.461080
O16   O     O_R   0.111630 0.456360 0.102360 -0.480147
O17   O     O_R   0.500790 0.870920 0.095850 -0.537687
O18   O     O_R   0.129080 0.629870 0.095850 -0.499725
O19   O     O_R   0.370130 0.499210 0.095850 -0.440724
O20   O     O_2   0.778991 0.352699 0.188899 -0.463732
O21   O     O_2   0.532745 0.422382 0.114111 -0.403145
O22   O     O_2   0.405210 0.138022 0.116132 -0.452818
O23   O     O_R   0.666360 0.565170 0.575190 -0.504077
O24   O     O_2   0.985681 0.219215 0.343863 -0.210109
O25   O     O_2   0.772735 0.183684 0.306780 -0.253499
O26   O     O_3   0.933183 0.200163 0.213549 -0.485275
O27   O     O_2   0.799990 0.740165 0.334749 -0.191284
O28   O     O_2   0.786189 0.533557 0.304646 -0.283826
O29   O     O_3   0.794933 0.682765 0.206155 -0.510109
O30   O     O_2   0.205127 0.935190 0.382981 -0.245497
O31   O     O_2   0.289741 0.151179 0.333693 -0.252070
O32   O     O_3   0.144064 0.951293 0.257048 -0.491875
O33   O     O_2   0.081484 0.705432 0.292229 -0.435961
O34   O     O_3   0.333333 0.666667 0.026340 -0.315581
O35   O     O_2   0.282463 0.390713 0.293179 -0.471127
O36   O     O_2   0.602185 0.898154 0.362587 -0.427682
O37   O     O_R   0.480130 0.360720 0.570290 -0.506412
O38   O     O_R   0.639280 0.119410 0.570290 -0.501356
O39   O     O_R   0.880590 0.519870 0.570290 -0.507939
O40   O     O_R   0.439410 0.104260 0.424150 -0.445474
O41   O     O_R   0.895740 0.335150 0.424150 -0.440040
S1    S     S_3+6 0.914672 0.251568 0.290698 0.099648
S2    S     S_3+6 0.742876 0.626996 0.285652 0.054844
S3    S     S_3+6 0.258661 0.014905 0.319293 0.048671

loop_
_geom_bond_atom_site_label_1
_geom_bond_atom_site_label_2
_ccdc_geom_bond_type
C23   O39   A    
C11   C18   T    
O24   S1    D    
Cr6   O16   S    
Cr2   O6    S    
Cr6   O9    S    
C27   H6    S    
Cr1   O3    S    
C39   S3    S    
Cr2   O4    S    
C25   C28   D    
C32   O21   D    
C9    C42   S    
C34   S1    S    
C40   O10   A    
Cr6   O19   S    
C9    C16   T    
C29   C32   S    
C10   C17   T    
C22   C38   D    
Cr3   O2    S    
C24   C39   D    
C5    O3    A    
C10   C40   S    
H11   O29   S    
C6    O4    A    
C11   C15   S    
C5    C22   S    
C29   C38   S    
C5    O2    A    
C2    C27   S    
C33   O22   D    
O31   S3    D    
C4    O14   A    
C41   O11   A    
H12   O32   S    
C28   C34   S    
C2    O15   A    
O29   S2    S    
C27   C30   D    
C14   C17   S    
Cr3   O23   S    
Cr2   O38   S    
H10   O26   S    
C35   O33   D    
C1    C19   S    
C13   C19   T    
C40   O8    A    
C18   C23   S    
C14   C20   T    
C31   O20   D    
C8    C41   S    
C4    O19   A    
Cr3   O39   S    
C1    O37   A    
C37   H4    S    
C21   C34   D    
C7    C21   S    
C37   O36   D    
C6    O40   A    
C38   S2    S    
C7    O5    A    
Cr4   O34   S    
C3    C25   S    
Cr5   O11   S    
C12   C20   S    
C35   H2    S    
C24   C37   S    
Cr1   O40   S    
C3    O16   A    
O30   S3    D    
C36   H3    S    
Cr6   O34   S    
O27   S2    D    
C8    C15   T    
Cr3   O5    S    
C42   O7    A    
Cr6   O13   S    
O26   S1    S    
C26   H5    S    
Cr5   O8    S    
Cr4   O14   S    
O28   S2    D    
Cr1   O1    S    
C41   O9    A    
C42   O13   A    
C33   H9    S    
C30   C33   S    
C12   O38   A    
C23   O12   A    
C28   C31   S    
Cr1   O37   S    
Cr4   O17   S    
C4    C26   S    
Cr2   O41   S    
C6    C24   S    
C21   C35   S    
C1    O23   A    
C22   C36   S    
Cr5   O15   S    
Cr4   O7    S    
C2    O17   A    
C12   O1    A    
C36   O35   D    
Cr1   O6    S    
Cr5   O34   S    
C30   C39   S    
Cr2   O12   S    
C25   H1    S    
Cr4   O10   S    
O32   S3    S    
C26   C29   D    
C7    O41   A    
C13   C16   S    
Cr3   O6    S    
Cr5   O18   S    
C31   H7    S    
C3    O18   A    
C32   H8    S    
O25   S1    D    
