data_mof_unit_1860.cif
_audit_creation_date              2012-12-11T14:15:20-0500
_audit_creation_method            fapswitch 2.2
_symmetry_space_group_name_H-M    P1
_symmetry_Int_Tables_number       1
_space_group_crystal_system       triclinic
_cell_length_a                    11.205224
_cell_length_b                    12.684361
_cell_length_c                    23.562986
_cell_angle_alpha                 90.262409
_cell_angle_beta                  97.180769
_cell_angle_gamma                 68.360535
_cell_volume                      3085.45518806

loop_
_atom_site_label
_atom_site_type_symbol
_atom_type_description
_atom_site_fract_x
_atom_site_fract_y
_atom_site_fract_z
_atom_type_partial_charge
C1    C     C_R   0.148882 0.617492 0.428959 0.548654
C2    C     C_R   0.591847 0.595236 0.322910 -0.137379
C3    C     C_R   0.654299 0.759398 0.328140 -0.008155
C4    C     C_R   0.637568 0.769517 0.267782 0.038708
C5    C     C_R   0.568804 0.707867 0.237871 0.008577
C6    C     C_R   0.535886 0.723596 0.179408 -0.164290
C7    C     C_R   0.675992 0.830476 0.175645 0.097865
C8    C     C_R   0.698255 0.827207 0.236361 0.005109
C9    C     C_1   0.243387 0.159278 0.123675 -0.008249
C10   C     C_2   0.220731 0.210077 0.232059 0.105492
C11   C     C_2   0.121145 0.202408 0.256854 0.012353
C12   C     C_R   0.742494 0.607896 0.406248 0.539202
C13   C     C_1   0.116541 0.218857 0.317393 -0.011507
C14   C     C_1   0.231249 0.187957 0.172185 -0.014562
C15   C     C_1   0.110438 0.240797 0.367010 0.008359
C16   C     C_1   0.170346 0.747137 0.123557 0.002792
C17   C     C_2   0.154719 0.675348 0.226982 -0.117007
C18   C     C_2   0.221072 0.699418 0.273303 -0.139438
C19   C     C_1   0.209959 0.664558 0.330088 -0.039647
C20   C     C_1   0.161396 0.714258 0.170317 -0.032035
C21   C     C_1   0.191092 0.639534 0.376647 0.004071
C22   C     C_1   0.630369 0.758998 0.866405 -0.007573
C23   C     C_R   0.100689 0.282597 0.423481 0.554730
C24   C     C_2   0.693077 0.728982 0.761452 -0.098835
C25   C     C_2   0.685811 0.639139 0.732534 0.010665
C26   C     C_1   0.697117 0.636108 0.672059 -0.053294
C27   C     C_1   0.664495 0.745781 0.819557 -0.054510
C28   C     C_1   0.713963 0.625729 0.622499 -0.021798
C29   C     C_R   0.193908 0.176165 0.853509 0.022552
C30   C     C_R   0.106861 0.235024 0.641640 0.035509
C31   C     C_R   0.069961 0.113706 0.710109 -0.118868
C32   C     C_R   0.065213 0.146629 0.653303 0.065783
C33   C     C_R   0.145216 0.294075 0.685807 -0.145393
C34   C     C_R   0.150759 0.615642 0.591201 0.537835
C35   C     C_R   0.152544 0.260505 0.742033 0.032440
C36   C     C_R   0.116051 0.168670 0.754383 0.014193
C37   C     C_R   0.133458 0.129265 0.810616 -0.128799
C38   C     C_R   0.225589 0.269756 0.841677 -0.131268
C39   C     C_R   0.202077 0.313736 0.785888 -0.136433
C40   C     C_R   0.129499 0.751970 0.850580 0.012523
C41   C     C_R   0.196116 0.634076 0.650084 0.018593
C42   C     C_R   0.310354 0.563361 0.744981 -0.142294
C43   C     C_R   0.301254 0.551264 0.685541 -0.020077
C44   C     C_R   0.111203 0.728621 0.674644 -0.119157
C45   C     C_R   0.752122 0.601086 0.566662 0.535324
C46   C     C_R   0.114470 0.733459 0.733068 0.039703
C47   C     C_R   0.215286 0.651007 0.768720 0.032262
C48   C     C_R   0.221294 0.659677 0.827661 -0.126134
C49   C     C_R   0.022083 0.826859 0.814891 -0.133877
C50   C     C_R   0.015502 0.818420 0.756170 -0.146828
C51   C     C_R   0.266426 0.110403 0.069142 0.530223
C52   C     C_R   0.545167 0.795335 0.086415 0.570375
C53   C     C_R   0.190383 0.787224 0.069851 0.542531
C54   C     C_R   0.240424 0.114778 0.907845 0.541145
C55   C     C_R   0.575104 0.776347 0.918861 0.562755
C56   C     C_R   0.100544 0.278161 0.584659 0.570297
C57   C     C_R   0.163935 0.787004 0.906988 0.549718
C58   C     C_R   0.587229 0.785064 0.148012 0.012034
C59   C     C_R   0.657384 0.657542 0.353156 0.014645
C60   C     C_R   0.539910 0.625638 0.266325 -0.143496
Cr1   Cr    Cr6+3 0.189770 0.415650 0.511620 1.016210
Cr2   Cr    Cr6+3 0.930400 0.667320 0.496770 1.024363
Cr3   Cr    Cr6+3 0.879870 0.417010 0.491650 1.038524
Cr4   Cr    Cr6+3 0.149500 0.973980 0.985330 1.013349
Cr5   Cr    Cr6+3 0.457000 0.976510 0.994660 1.061705
Cr6   Cr    Cr6+3 0.411170 0.724270 0.995270 1.020942
H1    H     H_    0.474177 0.682902 0.157636 0.130739
H2    H     H_    0.094051 0.626741 0.231398 0.155884
H3    H     H_    0.709455 0.796666 0.739539 0.122117
H4    H     H_    0.110672 0.055740 0.820272 0.124638
H5    H     H_    0.272309 0.305779 0.875124 0.119307
H6    H     H_    0.041345 0.043558 0.719562 0.127293
H7    H     H_    0.229422 0.384633 0.776604 0.113667
H8    H     H_    0.170449 0.366192 0.676233 0.114677
H9    H     H_    0.303100 0.600134 0.855187 0.121436
H10   H     H_    0.949119 0.897800 0.831847 0.136423
H11   H     H_    0.388095 0.501158 0.773189 0.091392
H12   H     H_    0.935436 0.880292 0.728874 0.110341
H13   H     H_    0.032821 0.794393 0.648465 0.160368
H14   H     H_    0.489405 0.576782 0.243378 0.137897
H15   H     H_    0.584222 0.521108 0.342309 0.153640
H16   H     H_    0.279015 0.750474 0.268975 0.134945
O1    O     O_R   0.196340 0.303200 0.448500 -0.497695
O2    O     O_R   0.811960 0.658090 0.547150 -0.494829
O3    O     O_R   0.757930 0.506140 0.547110 -0.524558
O4    O     O_R   0.988670 0.321620 0.556040 -0.474780
O5    O     O_3   0.000020 0.499990 0.500010 -0.249737
O6    O     O_R   0.113660 0.883270 0.047820 -0.504756
O7    O     O_R   0.186930 0.068530 0.043990 -0.512397
O8    O     O_R   0.377770 0.089040 0.054220 -0.496988
O9    O     O_R   0.562800 0.872960 0.056970 -0.454094
O10   O     O_R   0.555390 0.700940 0.062700 -0.506167
O11   O     O_R   0.295020 0.731920 0.049950 -0.517846
O12   O     O_R   0.199310 0.519670 0.454880 -0.487499
O13   O     O_R   0.094290 0.884230 0.921550 -0.515056
O14   O     O_R   0.168980 0.069410 0.926940 -0.505043
O15   O     O_R   0.358400 0.089990 0.927950 -0.508489
O16   O     O_R   0.544850 0.873850 0.939920 -0.479813
O17   O     O_R   0.536020 0.701900 0.936430 -0.511344
O18   O     O_R   0.277070 0.732810 0.932890 -0.503519
O19   O     O_3   0.339220 0.891590 0.991750 -0.273319
O20   O     O_R   0.045660 0.691380 0.441680 -0.511890
O21   O     O_R   0.811930 0.659460 0.430950 -0.507387
O22   O     O_R   0.757900 0.507620 0.421760 -0.516505
O23   O     O_R   0.988630 0.322990 0.439840 -0.487689
O24   O     O_R   0.196380 0.301720 0.573850 -0.533869
O25   O     O_R   0.199350 0.518300 0.571080 -0.517744
O26   O     O_R   0.045700 0.689900 0.567030 -0.505970
C61   C     C_3   0.668146 0.539147 0.760666 -0.240913
C62   C     C_3   0.780965 0.427294 0.754030 -0.293521
C63   C     C_3   0.764496 0.327734 0.783675 -0.450244
H17   H     H_    0.765423 0.339849 0.830421 0.158687
H18   H     H_    0.671894 0.319854 0.765703 0.144098
H19   H     H_    0.845188 0.247741 0.776915 0.157112
H20   H     H_    0.786015 0.409949 0.707918 0.176099
H21   H     H_    0.873846 0.433754 0.773059 0.181461
H22   H     H_    0.660180 0.549982 0.806971 0.158808
H23   H     H_    0.576100 0.533614 0.740563 0.144702
I1    I     I_    0.000598 0.057516 0.587740 -0.435342
I2    I     I_    0.796181 0.879927 0.126147 -0.428505
C64   C     C_3   0.398688 0.445375 0.663564 -0.249005
C65   C     C_3   0.480196 0.471984 0.622091 -0.288521
C66   C     C_3   0.576795 0.362498 0.602209 -0.427402
H24   H     H_    0.646490 0.313082 0.639152 0.158026
H25   H     H_    0.525116 0.309865 0.581315 0.157091
H26   H     H_    0.631585 0.382798 0.570688 0.184094
H27   H     H_    0.418444 0.523375 0.583969 0.182241
H28   H     H_    0.533841 0.521893 0.643590 0.165448
H29   H     H_    0.466508 0.391848 0.699955 0.119993
H30   H     H_    0.348814 0.391169 0.643383 0.184937
C67   C     C_3   0.802542 0.867048 0.265915 -0.250213
C68   C     C_3   0.757604 0.997554 0.265023 -0.295313
C69   C     C_3   0.827167 0.037352 0.315570 -0.445004
H31   H     H_    0.800118 0.015712 0.356470 0.160725
H32   H     H_    0.933796 0.996594 0.316612 0.155073
H33   H     H_    0.798661 0.130892 0.311576 0.161403
H34   H     H_    0.777441 0.029188 0.224848 0.191814
H35   H     H_    0.651581 0.037516 0.266020 0.199350
H36   H     H_    0.836110 0.830475 0.310217 0.150100
H37   H     H_    0.891958 0.831655 0.245280 0.169279
C70   C     C_3   0.639738 0.862431 0.364225 -0.257376
C71   C     C_3   0.529454 0.886750 0.401133 -0.300071
C72   C     C_3   0.506965 0.996750 0.432397 -0.431119
H38   H     H_    0.596233 0.991130 0.460803 0.158649
H39   H     H_    0.478840 0.069893 0.401183 0.190608
H40   H     H_    0.427581 0.011510 0.458956 0.160223
H41   H     H_    0.438443 0.894252 0.373444 0.171691
H42   H     H_    0.552990 0.816202 0.433503 0.168228
H43   H     H_    0.731654 0.851947 0.391670 0.168061
H44   H     H_    0.613959 0.938846 0.335866 0.164036
C73   C     C_3   0.005261 0.189302 0.221764 -0.255747
C74   C     C_3   0.037212 0.069611 0.198884 -0.308411
C75   C     C_3   0.958827 0.074819 0.140636 -0.411821
H45   H     H_    0.853519 0.110887 0.144022 0.170005
H46   H     H_    0.981008 0.127784 0.109277 0.170140
H47   H     H_    0.985188 0.988166 0.124858 0.206670
H48   H     H_    0.141557 0.027614 0.194378 0.171654
H49   H     H_    0.015074 0.014963 0.229289 0.164196
H50   H     H_    0.924068 0.207419 0.247699 0.140477
H51   H     H_    0.969909 0.255301 0.186200 0.154740
I3    I     I_    0.377477 0.241378 0.279633 -0.458371

loop_
_geom_bond_atom_site_label_1
_geom_bond_atom_site_label_2
_ccdc_geom_bond_type
C72   H40   S    
C1    C21   S    
C6    C58   A    
C35   C39   A    
C63   H17   S    
C9    C51   S    
C24   C27   S    
Cr5   O19   S    
C64   H30   S    
C4    C8    A    
C70   H43   S    
C7    C8    A    
C38   H5    S    
C23   O1    A    
C34   O25   A    
C36   C37   A    
C19   C21   T    
Cr5   O16   S    
C12   O22   A    
C31   C36   A    
C51   O8    A    
C5    C6    A    
C2    C60   A    
C66   H25   S    
Cr2   O26   S    
C29   C54   S    
C68   H35   S    
C40   C49   A    
C23   O23   A    
C72   H39   S    
C17   C20   S    
C40   C48   A    
C18   C19   S    
Cr6   O18   S    
C65   H27   S    
C62   C63   S    
C67   H37   S    
Cr1   O5    S    
C33   C35   A    
C16   C53   S    
C12   C59   S    
C35   C36   A    
C1    O12   A    
C3    C70   S    
C29   C38   A    
C24   H3    S    
C69   H33   S    
C73   C74   S    
C54   O15   A    
C75   H46   S    
C43   C64   S    
C7    C58   A    
C54   O14   A    
C30   C33   A    
C25   C61   S    
C15   C23   S    
C37   H4    S    
Cr3   O3    S    
C41   C43   A    
C48   H9    S    
Cr4   O19   S    
C34   C41   S    
Cr4   O7    S    
C50   H12   S    
C44   C46   A    
C70   H44   S    
Cr5   O8    S    
C74   H49   S    
C28   C45   S    
C53   O11   A    
C47   C48   A    
C71   H42   S    
C66   H24   S    
C24   C25   D    
Cr4   O14   S    
C12   O21   A    
Cr1   O1    S    
C2    C59   A    
C68   C69   S    
C66   H26   S    
Cr6   O10   S    
C68   H34   S    
C57   O18   A    
C30   C56   S    
C73   H50   S    
Cr6   O17   S    
C61   H22   S    
C45   O3    A    
C9    C14   T    
C56   O4    A    
C31   C32   A    
C16   C20   T    
C8    C67   S    
C17   C18   D    
C49   H10   S    
C63   H18   S    
C75   H47   S    
Cr1   O24   S    
C56   O24   A    
C64   C65   S    
C52   C58   S    
Cr6   O11   S    
C11   C73   S    
C31   H6    S    
C53   O6    A    
C10   I3    S    
C22   C27   T    
C13   C15   T    
Cr3   O4    S    
C10   C14   S    
C69   H31   S    
C41   C44   A    
C52   O10   A    
C45   O2    A    
Cr3   O23   S    
C42   C43   A    
C32   I1    S    
C29   C37   A    
C3    C4    A    
C62   H21   S    
Cr2   O21   S    
Cr5   O9    S    
Cr2   O2    S    
C46   C47   A    
C60   H14   S    
C17   H2    S    
C40   C57   S    
C5    C60   A    
Cr3   O5    S    
Cr1   O12   S    
C7    I2    S    
C44   H13   S    
Cr4   O13   S    
C64   H29   S    
Cr3   O22   S    
C52   O9    A    
C65   C66   S    
C22   C55   S    
C61   H23   S    
Cr2   O5    S    
C46   C50   A    
C26   C28   T    
C34   O26   A    
C73   H51   S    
C72   H38   S    
C25   C26   S    
Cr5   O15   S    
C6    H1    S    
C61   C62   S    
C51   O7    A    
C30   C32   A    
C11   C13   S    
C38   C39   A    
C71   H41   S    
C55   O16   A    
C18   H16   S    
Cr6   O19   S    
C74   H48   S    
C63   H19   S    
C42   C47   A    
C39   H7    S    
C65   H28   S    
Cr1   O25   S    
C1    O20   A    
C67   H36   S    
C10   C11   D    
C33   H8    S    
C4    C5    A    
C74   C75   S    
C42   H11   S    
C49   C50   A    
C57   O13   A    
C55   O17   A    
C69   H32   S    
C71   C72   S    
C2    H15   S    
C75   H45   S    
C70   C71   S    
C62   H20   S    
Cr4   O6    S    
C67   C68   S    
Cr2   O20   S    
C3    C59   A    
