data_mof_unit_2175.cif
_audit_creation_date              2013-03-05T15:49:33-0500
_audit_creation_method            fapswitch 2.2
_symmetry_space_group_name_H-M    P1
_symmetry_Int_Tables_number       1
_space_group_crystal_system       triclinic
_cell_length_a                    24.951765
_cell_length_b                    7.24534
_cell_length_c                    22.173966
_cell_angle_alpha                 89.835884
_cell_angle_beta                  109.53438
_cell_angle_gamma                 89.633816
_cell_volume                      3777.83177815

loop_
_atom_site_label
_atom_site_type_symbol
_atom_site_description
_atom_site_fract_x
_atom_site_fract_y
_atom_site_fract_z
_atom_type_partial_charge
O1    O     O_R   0.554350 0.505270 0.581390 -0.589890
O2    O     O_R   0.445650 0.005270 0.418610 -0.569186
O3    O     O_R   0.553380 0.177580 0.454800 -0.562834
O4    O     O_R   0.446620 0.677580 0.545200 -0.581938
C1    C     C_R   0.563434 0.343539 0.435409 1.057469
C2    C     C_R   0.435803 0.843896 0.563562 1.019214
O5    O     O_R   0.560970 0.175640 0.583140 -0.574499
O6    O     O_R   0.439030 0.675640 0.416860 -0.579452
O7    O     O_R   0.453290 0.004120 0.547860 -0.584554
O8    O     O_R   0.546710 0.504120 0.452140 -0.585354
C3    C     C_R   0.576849 0.343337 0.606950 0.950264
C4    C     C_R   0.421985 0.845219 0.394198 0.928712
O9    O     O_3   0.464660 0.338800 0.488280 -0.253739
O10   O     O_3   0.535340 0.838800 0.511720 -0.273969
V1    V     V_3+5 0.506560 0.064420 0.502170 1.256954
V2    V     V_3+5 0.493440 0.564420 0.497830 1.244083
C5    C     C_R   0.142930 0.036196 0.281965 -0.193792
C6    C     C_R   0.853993 0.546167 0.718487 -0.192462
H1    H     H_    0.129457 0.098856 0.318811 0.186941
H2    H     H_    0.867116 0.604327 0.680684 0.188011
C7    C     C_R   0.117793 0.944427 0.171725 -0.252445
C8    C     C_R   0.880666 0.450735 0.828970 -0.257063
C9    C     C_R   0.392317 0.776938 0.280332 -0.157722
C10   C     C_R   0.606121 0.289956 0.722522 -0.177090
C11   C     C_R   0.352683 0.750720 0.220142 -0.067420
C12   C     C_R   0.644923 0.281872 0.784191 -0.059531
C13   C     C_R   0.295763 0.794177 0.208025 -0.114123
C14   C     C_R   0.701636 0.326927 0.796283 -0.115820
C15   C     C_R   0.276550 0.870991 0.255822 0.085249
C16   C     C_R   0.721697 0.381735 0.746448 0.079755
C17   C     C_R   0.317910 0.905407 0.317893 -0.100409
C18   C     C_R   0.681431 0.393305 0.682535 -0.093753
C19   C     C_R   0.217442 0.914318 0.243359 0.083328
C20   C     C_R   0.780585 0.424848 0.758439 0.084604
C21   C     C_R   0.200312 0.988213 0.293355 -0.118251
C22   C     C_R   0.797160 0.495325 0.707533 -0.120473
C23   C     C_R   0.240749 0.023869 0.353347 0.273519
C24   C     C_R   0.757526 0.509170 0.645595 0.264205
C25   C     C_R   0.298706 0.989130 0.364911 0.183144
C26   C     C_R   0.701496 0.450008 0.632799 0.189088
C27   C     C_R   0.174583 0.891953 0.182321 -0.258071
C28   C     C_R   0.823945 0.400653 0.819230 -0.256177
C29   C     C_R   0.101871 0.013809 0.221995 0.573432
C30   C     C_R   0.895423 0.524287 0.778363 0.578730
C31   C     C_R   0.376502 0.851300 0.330131 -0.111423
C32   C     C_R   0.622673 0.346018 0.671005 -0.118936
H3    H     H_    0.184018 0.842670 0.141188 0.138139
H4    H     H_    0.815129 0.345877 0.860132 0.140724
H5    H     H_    0.436004 0.735008 0.288558 0.098951
H6    H     H_    0.562345 0.252543 0.714902 0.099114
H7    H     H_    0.267827 0.764139 0.160462 0.126178
H8    H     H_    0.728633 0.319599 0.845605 0.126808
H9    H     H_    0.366063 0.691760 0.182610 0.137737
H10   H     H_    0.630836 0.239880 0.823314 0.138954
C33   C     C_R   0.148457 0.797326 0.912570 0.450524
C34   C     C_R   0.850420 0.301538 0.085345 0.448499
C35   C     C_R   0.190844 0.809029 0.882737 0.214229
C36   C     C_R   0.807195 0.314985 0.113943 0.214101
C37   C     C_R   0.184922 0.943268 0.834112 -0.267287
C38   C     C_R   0.812358 0.447908 0.162451 -0.265263
C39   C     C_R   0.140421 0.075089 0.820623 0.391252
C40   C     C_R   0.856977 0.577311 0.176879 0.390695
C41   C     C_R   0.102662 0.072613 0.855329 -0.366866
C42   C     C_R   0.895676 0.573467 0.143335 -0.367917
H11   H     H_    0.069579 0.176932 0.845373 0.161006
H12   H     H_    0.928885 0.675949 0.154030 0.161764
C43   C     C_R   0.106227 0.937111 0.901683 -0.326866
C44   C     C_R   0.892882 0.438763 0.097239 -0.326349
N1    N     N_R   0.260758 0.062578 0.795778 0.002103
N2    N     N_R   0.736718 0.569490 0.201478 0.001425
N3    N     N_R   0.294431 0.047696 0.760232 -0.055526
N4    N     N_R   0.702660 0.553455 0.236543 -0.056211
C45   C     C_R   0.290279 0.900997 0.720791 0.144767
C46   C     C_R   0.705702 0.402305 0.274149 0.145708
N5    N     N_R   0.251055 0.769540 0.718773 -0.042679
N6    N     N_R   0.744188 0.267843 0.274834 -0.041702
N7    N     N_R   0.217451 0.784209 0.754353 -0.025264
N8    N     N_R   0.778142 0.283666 0.239763 -0.023936
C47   C     C_R   0.221304 0.931766 0.793137 0.327813
C48   C     C_R   0.775452 0.435472 0.202831 0.324976
C49   C     C_R   0.320100 0.740602 0.636285 -0.262599
C50   C     C_R   0.675483 0.235426 0.356919 -0.269428
H13   H     H_    0.285696 0.643919 0.629456 0.165031
H14   H     H_    0.708773 0.134224 0.361644 0.166503
C51   C     C_R   0.355699 0.721940 0.598815 0.634106
C52   C     C_R   0.640532 0.215552 0.394961 0.668948
C53   C     C_R   0.398834 0.852882 0.604290 -0.220695
C54   C     C_R   0.599128 0.351815 0.393004 -0.244704
C55   C     C_R   0.406635 0.995289 0.649277 -0.278185
C56   C     C_R   0.590735 0.496760 0.348403 -0.292637
H15   H     H_    0.440134 0.095164 0.655438 0.139268
H16   H     H_    0.557473 0.598231 0.343457 0.139968
C57   C     C_R   0.371804 0.010542 0.687148 -0.125283
C58   C     C_R   0.624688 0.512854 0.309465 -0.121381
H17   H     H_    0.379259 0.122495 0.721136 0.137037
H18   H     H_    0.617066 0.627555 0.276177 0.134711
C59   C     C_R   0.327919 0.883822 0.681045 0.074788
C60   C     C_R   0.668118 0.383764 0.313893 0.075579
O11   O     O_R   0.953220 0.285790 0.047790 -0.562487
O12   O     O_R   0.046780 0.785790 0.952210 -0.562638
O13   O     O_R   0.939020 0.617570 0.916840 -0.568703
O14   O     O_R   0.060980 0.117570 0.083160 -0.569629
C61   C     C_R   0.923783 0.449748 0.893369 0.974819
C62   C     C_R   0.075717 0.948343 0.106857 0.978562
O15   O     O_R   0.946600 0.615450 0.045180 -0.625528
O16   O     O_R   0.053400 0.115450 0.954820 -0.625559
O17   O     O_R   0.054370 0.786770 0.081410 -0.591494
O18   O     O_R   0.945630 0.286770 0.918590 -0.590634
C63   C     C_R   0.933719 0.446883 0.061021 1.026365
C64   C     C_R   0.066113 0.946434 0.938805 1.026555
O19   O     O_3   0.035300 0.454160 0.011680 -0.293090
O20   O     O_3   0.964700 0.954160 0.988320 -0.293075
V3    V     V_3+5 0.993450 0.728620 0.997830 1.189004
V4    V     V_3+5 0.006550 0.228620 0.002170 1.187470
O21   O     O_3   0.047027 0.078593 0.210433 -0.645977
C65   C     C_3   0.018239 0.954675 0.237755 -0.142053
H19   H     H_    0.035505 0.959046 0.290924 0.181255
H20   H     H_    0.019925 0.811014 0.220622 0.124949
H21   H     H_    0.972879 0.997325 0.222827 0.186415
O22   O     O_3   0.949878 0.588494 0.788883 -0.641676
C66   C     C_3   0.979569 0.458690 0.764603 -0.144053
H22   H     H_    0.962016 0.453196 0.711471 0.180612
H23   H     H_    0.979149 0.318866 0.785427 0.119789
H24   H     H_    0.024543 0.502533 0.778119 0.186647
N9    N     N_R   0.241464 0.693939 0.904322 0.263909
O23   O     O_R   0.289989 0.758413 0.904180 -0.369876
O24   O     O_R   0.241473 0.534342 0.931291 -0.343124
N10   N     N_R   0.756522 0.203047 0.091241 0.263550
O25   O     O_R   0.707771 0.269931 0.090512 -0.370529
O26   O     O_R   0.756799 0.044311 0.064133 -0.343620
N11   N     N_R   0.132117 0.210605 0.770913 0.233719
O27   O     O_R   0.081258 0.243483 0.731122 -0.398224
O28   O     O_R   0.173293 0.319960 0.771089 -0.379763
N12   N     N_R   0.864484 0.711468 0.226458 0.233421
O29   O     O_R   0.914873 0.739573 0.267606 -0.397966
O30   O     O_R   0.823359 0.824770 0.224747 -0.380118
O31   O     O_3   0.344660 0.587222 0.552244 -0.584563
C67   C     C_3   0.359323 0.413423 0.582193 0.010159
H25   H     H_    0.403601 0.411575 0.616740 0.044607
H26   H     H_    0.357298 0.309361 0.545025 0.235520
H27   H     H_    0.328765 0.371074 0.606284 0.111004
O32   O     O_3   0.649614 0.069221 0.437303 -0.554209
C68   C     C_3   0.630850 0.906490 0.402366 -0.032639
H28   H     H_    0.587029 0.922127 0.367257 0.042036
H29   H     H_    0.629402 0.796140 0.436296 0.228136
H30   H     H_    0.661006 0.861589 0.377969 0.118310
N13   N     N_R   0.223422 0.104784 0.403045 0.259647
O33   O     O_R   0.236157 0.275034 0.420089 -0.314690
O34   O     O_R   0.196385 0.006184 0.432561 -0.335350
N14   N     N_R   0.774964 0.572291 0.593618 0.259158
O35   O     O_R   0.783378 0.747229 0.587285 -0.330048
O36   O     O_R   0.779732 0.456368 0.550965 -0.302882
N15   N     N_R   0.337361 0.054801 0.423682 0.229026
O37   O     O_R   0.358091 0.219020 0.423888 -0.350870
O38   O     O_R   0.333024 0.990436 0.476539 -0.410355
N16   N     N_R   0.667441 0.429786 0.567655 0.219610
O39   O     O_R   0.663524 0.265662 0.543347 -0.355496
O40   O     O_R   0.656407 0.573303 0.530081 -0.385447
O41   O     O_3   0.151225 0.658706 0.956498 -0.604152
C69   C     C_3   0.123241 0.501741 0.922973 0.007718
H31   H     H_    0.139382 0.460171 0.883893 0.130663
H32   H     H_    0.076618 0.524306 0.902117 0.118571
H33   H     H_    0.130836 0.384535 0.957134 0.163930
O42   O     O_3   0.848345 0.163788 0.041637 -0.604788
C70   C     C_3   0.875891 0.004986 0.075563 0.008394
H34   H     H_    0.858655 0.962896 0.113713 0.131680
H35   H     H_    0.922409 0.025467 0.097690 0.119518
H36   H     H_    0.869145 0.888977 0.041394 0.163627

loop_
_geom_bond_atom_site_label_1
_geom_bond_atom_site_label_2
_geom_bond_distance
_ccdc_geom_bond_type
C68   H30   1.111196 S    
C24   C26   1.400651 A    
C41   H11   1.081962 S    
C36   N10   1.449008 S    
C70   H34   1.112236 S    
C9    C31   1.399087 A    
C57   C59   1.405284 A    
C13   C15   1.415116 A    
O13   V3    2.026867 S    
C54   C56   1.406252 A    
N13   O33   1.301053 A    
O1    C3    1.337125 A    
O2    C4    1.336043 A    
N10   O25   1.301563 A    
O11   V4    1.964969 S    
C46   C60   1.492564 S    
O12   C64   1.332987 A    
C46   N6    1.360036 A    
C25   N15   1.422618 S    
C42   C44   1.400390 A    
O15   V3    1.992322 S    
O42   C70   1.414664 S    
N13   O34   1.301001 A    
C11   H9    1.082881 S    
C35   N9    1.449037 S    
O14   C62   1.332668 A    
C52   C54   1.414416 A    
C9    H5    1.084556 S    
C58   C60   1.405038 A    
C36   C38   1.419814 A    
O21   C65   1.408979 S    
O11   C63   1.332408 A    
C15   C19   1.439146 A    
C65   H19   1.112346 S    
C38   C40   1.413411 A    
O6    V2    2.015866 S    
O18   V4    2.006543 S    
N1    N3    1.334553 A    
C57   H17   1.082686 S    
O17   V3    2.012841 S    
C66   H24   1.109151 S    
C40   C42   1.402307 A    
C29   O21   1.383914 S    
C7    C29   1.396385 A    
C7    C62   1.470176 S    
C8    C30   1.397939 A    
C65   H20   1.114406 S    
C20   C28   1.428016 A    
C61   O18   1.337308 A    
N15   O38   1.298159 A    
C20   C22   1.420414 A    
C51   C53   1.414053 A    
O13   C61   1.330821 A    
C45   N5    1.360105 A    
C2    O7    1.328538 A    
C12   H10   1.082798 S    
O20   V3    1.763884 S    
C49   H13   1.082559 S    
C13   H7    1.075733 S    
C56   C58   1.402354 A    
N7    C47   1.357606 A    
C10   H6    1.084311 S    
C23   C25   1.402623 A    
C41   C43   1.400081 A    
C37   C39   1.413271 A    
N2    N4    1.335217 A    
C50   C60   1.404797 A    
N2    C48   1.358791 A    
N6    N8    1.333058 A    
C69   H33   1.108629 S    
N4    C46   1.360822 A    
C37   C47   1.485785 S    
N3    C45   1.360679 A    
C16   C20   1.439571 A    
C5    H1    1.081901 S    
N12   O30   1.300495 A    
O5    V1    2.026884 S    
O3    C1    1.329162 A    
C50   C52   1.409158 A    
C8    C61   1.472791 S    
C69   H32   1.109624 S    
O4    V2    1.988365 S    
O5    C3    1.334895 A    
C5    C29   1.391559 A    
O14   V4    2.015862 S    
C6    C30   1.391168 A    
C33   O41   1.382323 S    
C43   C64   1.494777 S    
C56   H16   1.082685 S    
O41   C69   1.414718 S    
C17   C25   1.420755 A    
O6    C4    1.337861 A    
C39   C41   1.401864 A    
C27   H3    1.076660 S    
N8    C48   1.357208 A    
O1    V2    2.007614 S    
C28   H4    1.077465 S    
C23   N13   1.436706 S    
C58   H18   1.082696 S    
O2    V1    2.014018 S    
N5    N7    1.333619 A    
C66   H22   1.112142 S    
C67   H26   1.107453 S    
C7    C27   1.406283 A    
O4    C2    1.327718 A    
O16   V4    1.988645 S    
C45   C59   1.492299 S    
C70   H36   1.108615 S    
C50   H14   1.082678 S    
C33   C35   1.425513 A    
N9    O23   1.301525 A    
N14   O36   1.300991 A    
N1    C47   1.358136 A    
C55   H15   1.082997 S    
N11   O27   1.300700 A    
C51   O31   1.383462 S    
O3    V1    1.992038 S    
O22   C66   1.408531 S    
C52   O32   1.380543 S    
N9    O24   1.300257 A    
O16   C64   1.341338 A    
C68   H29   1.105301 S    
O15   C63   1.340292 A    
C38   C48   1.486554 S    
C21   C23   1.400744 A    
O10   V1    1.764671 S    
C18   C32   1.445169 A    
O12   V3    1.967332 S    
C10   C12   1.387135 A    
C4    C31   1.492932 S    
N11   O28   1.300418 A    
C67   H27   1.111445 S    
N10   O26   1.300282 A    
C33   C43   1.417451 A    
N12   O29   1.300739 A    
C11   C13   1.388184 A    
O31   C67   1.409745 S    
C34   O42   1.382289 S    
C12   C14   1.390546 A    
N14   O35   1.300921 A    
C65   H21   1.109259 S    
C19   C27   1.427328 A    
C69   H31   1.112291 S    
C40   N12   1.435015 S    
N16   O40   1.299684 A    
O7    V1    1.972173 S    
C10   C32   1.398376 A    
C1    O8    1.328604 A    
C15   C17   1.441154 A    
C34   C44   1.417288 A    
C22   C24   1.401410 A    
C16   C18   1.439082 A    
C14   H8    1.076677 S    
C8    C28   1.408523 A    
C49   C59   1.406732 A    
C14   C16   1.413952 A    
C19   C21   1.419772 A    
C34   C36   1.425237 A    
O19   V4    1.773471 S    
C6    H2    1.081997 S    
C44   C63   1.494798 S    
C18   C26   1.415996 A    
C55   C57   1.400027 A    
C66   H23   1.113708 S    
C35   C37   1.419851 A    
C67   H25   1.114169 S    
C39   N11   1.435411 S    
C9    C11   1.384395 A    
N16   O39   1.297714 A    
C70   H35   1.109848 S    
C17   C31   1.446193 A    
O9    V2    1.774272 S    
C1    C54   1.497139 S    
C53   C55   1.405763 A    
C30   O22   1.383377 S    
O32   C68   1.406853 S    
C26   N16   1.418465 S    
C3    C32   1.496506 S    
O8    V2    1.969695 S    
C5    C21   1.409240 A    
N15   O37   1.299823 A    
C6    C22   1.408020 A    
C24   N14   1.435876 S    
C62   O17   1.335404 A    
C49   C51   1.410778 A    
C68   H28   1.114941 S    
C42   H12   1.082428 S    
C2    C53   1.492431 S    
