data_mof_unit_4283.cif
_audit_creation_date              2012-12-10T18:49:58-0500
_audit_creation_method            fapswitch 2.2
_symmetry_space_group_name_H-M    P1
_symmetry_Int_Tables_number       1
_space_group_crystal_system       triclinic
_cell_length_a                    10.709229
_cell_length_b                    9.884084
_cell_length_c                    10.696344
_cell_angle_alpha                 90.204222
_cell_angle_beta                  91.219075
_cell_angle_gamma                 89.927279
_cell_volume                      1131.95357466

loop_
_atom_site_label
_atom_site_type_symbol
_atom_type_description
_atom_site_fract_x
_atom_site_fract_y
_atom_site_fract_z
_atom_type_partial_charge
C1    C     C_R   0.260004 0.500063 0.499528 0.882739
C2    C     C_3   0.613001 0.578988 0.928931 -0.621547
C3    C     C_R   0.064619 0.379444 0.522835 -0.156819
C4    C     C_R   0.063244 0.620592 0.474957 -0.196747
C5    C     C_R   0.936762 0.379363 0.522800 -0.158130
C6    C     C_R   0.935324 0.620475 0.474796 -0.145276
C7    C     C_R   0.872464 0.499909 0.499080 -0.027306
C8    C     C_R   0.127494 0.500085 0.499096 -0.022874
C9    C     C_R   0.593222 0.071219 0.560540 0.474598
C10   C     C_R   0.592959 0.928731 0.560940 0.488784
C11   C     C_R   0.406530 0.928099 0.440663 -0.171570
C12   C     C_R   0.405808 0.071647 0.441943 -0.199243
C13   C     C_R   0.500637 0.499402 0.257842 0.990358
C14   C     C_R   0.739945 0.499950 0.499854 0.848165
C15   C     C_R   0.499555 0.499737 0.742187 0.986661
C16   C     C_3   0.377472 0.568100 0.072345 0.297435
C17   C     C_3   0.504516 0.346882 0.072136 0.305159
C18   C     C_3   0.373127 0.565269 0.926171 0.692523
C19   C     C_3   0.507197 0.346599 0.927493 0.713182
C20   C     C_3   0.619529 0.574433 0.073522 0.679419
C21   C     C_3   0.500010 0.497504 0.121184 -0.351036
C22   C     C_3   0.497827 0.497795 0.878751 -0.276070
H1    H     H_    0.381501 0.675118 0.105708 0.032047
H2    H     H_    0.593583 0.302561 0.110200 0.095123
H3    H     H_    0.331882 0.874000 0.392659 0.159086
H4    H     H_    0.330282 0.125633 0.395474 0.188757
H5    H     H_    0.610254 0.684959 0.894832 0.209230
H6    H     H_    0.700562 0.538549 0.888873 0.239509
H7    H     H_    0.113815 0.285731 0.542301 0.174404
H8    H     H_    0.111394 0.714301 0.455505 0.159653
H9    H     H_    0.888783 0.285611 0.542173 0.206387
H10   H     H_    0.886072 0.714127 0.455242 0.194515
N1    N     N_R   0.499970 0.857200 0.499970 -0.159512
N2    N     N_R   0.499970 0.142800 0.499970 -0.172803
O1    O     O_R   0.316750 0.614620 0.499990 -0.627668
O2    O     O_R   0.316750 0.385380 0.499990 -0.618131
O3    O     O_R   0.499970 0.614670 0.314790 -0.605122
O4    O     O_R   0.499970 0.385330 0.314790 -0.594581
O5    O     O_R   0.683220 0.614710 0.500010 -0.623735
O6    O     O_R   0.683220 0.385290 0.500010 -0.642419
O7    O     O_R   0.500010 0.614660 0.685200 -0.629514
O8    O     O_R   0.500010 0.385340 0.685200 -0.592037
Zn1   Zn    Zn3+2 0.499980 0.653120 0.500000 0.976959
Zn2   Zn    Zn3+2 0.499980 0.346880 0.500000 0.983266
O9    O     O_3   0.271701 0.501538 0.122181 -0.505173
C23   C     C_3   0.175133 0.594683 0.146557 -0.144884
H11   H     H_    0.148920 0.653749 0.061604 0.193505
H12   H     H_    0.202785 0.663791 0.224589 0.105189
H13   H     H_    0.091492 0.537790 0.175784 0.197519
O10   O     O_3   0.400384 0.271566 0.114839 -0.487135
C24   C     C_3   0.433405 0.134482 0.134198 -0.183805
H14   H     H_    0.348417 0.077195 0.158649 0.171598
H15   H     H_    0.502390 0.124762 0.212663 0.153891
H16   H     H_    0.472335 0.087265 0.049080 0.148696
O11   O     O_3   0.268919 0.488514 0.885367 -0.625809
H17   H     H_    0.255913 0.504516 0.794427 0.344238
O12   O     O_3   0.403287 0.272749 0.879698 -0.653802
H18   H     H_    0.430818 0.180690 0.855024 0.361832
O13   O     O_3   0.356894 0.697915 0.878803 -0.778995
H19   H     H_    0.418915 0.759379 0.918617 0.295457
O14   O     O_3   0.618201 0.283560 0.885943 -0.807197
H20   H     H_    0.691527 0.320254 0.932616 0.346947
O15   O     O_3   0.629829 0.706985 0.123318 -0.724175
H21   H     H_    0.565233 0.765853 0.084340 0.298795
O16   O     O_3   0.728590 0.503017 0.109169 -0.765114
H22   H     H_    0.742561 0.516462 0.200427 0.344256
O17   O     O_3   0.687680 0.134453 0.626958 -0.714150
H23   H     H_    0.656604 0.223280 0.653272 0.397504
O18   O     O_3   0.686929 0.865357 0.627917 -0.722144
H24   H     H_    0.654566 0.778109 0.656574 0.367143

loop_
_geom_bond_atom_site_label_1
_geom_bond_atom_site_label_2
_ccdc_geom_bond_type
C16   O9    S    
C2    C22   S    
C17   O10   S    
C6    H10   S    
C11   C12   A    
C9    O17   S    
O4    Zn2   S    
C16   C21   S    
C16   H1    S    
C1    C8    S    
O1    Zn1   S    
C9    C10   A    
C6    C7    A    
C15   O8    A    
C13   O3    A    
C11   N1    A    
C4    C8    A    
C24   H16   S    
C20   O15   S    
O10   C24   S    
C13   O4    A    
C13   C21   S    
O13   H19   S    
O9    C23   S    
C19   O12   S    
O7    Zn1   S    
C23   H13   S    
C15   O7    A    
O12   H18   S    
C2    H5    S    
O8    Zn2   S    
C18   O11   S    
C19   O14   S    
O17   H23   S    
C16   C18   S    
C20   O16   S    
C17   C19   S    
C14   O6    A    
C9    N2    A    
C3    C8    A    
C10   N1    A    
O18   H24   S    
C7    C14   S    
O14   H20   S    
C23   H12   S    
O3    Zn1   S    
O2    Zn2   S    
C17   H2    S    
C2    H6    S    
C11   H3    S    
O11   H17   S    
C12   N2    A    
O15   H21   S    
N1    Zn1   S    
C10   O18   S    
C3    C5    A    
C18   O13   S    
O6    Zn2   S    
C19   C22   S    
N2    Zn2   S    
C20   C21   S    
C1    O1    A    
C4    C6    A    
O16   H22   S    
C5    C7    A    
C23   H11   S    
C3    H7    S    
O5    Zn1   S    
C5    H9    S    
C14   O5    A    
C18   C22   S    
C2    C20   S    
C15   C22   S    
C4    H8    S    
C24   H14   S    
C1    O2    A    
C12   H4    S    
C24   H15   S    
C17   C21   S    
