data_mof_unit_1.cif
_audit_creation_date              2013-03-05T16:41:16-0500
_audit_creation_method            fapswitch 2.2
_symmetry_space_group_name_H-M    P1
_symmetry_Int_Tables_number       1
_space_group_crystal_system       triclinic
_cell_length_a                    10.609882
_cell_length_b                    10.643578
_cell_length_c                    9.890832
_cell_angle_alpha                 89.904234
_cell_angle_beta                  91.242355
_cell_angle_gamma                 90.261935
_cell_volume                      1116.66742888

loop_
_atom_site_label
_atom_site_type_symbol
_atom_site_description
_atom_site_fract_x
_atom_site_fract_y
_atom_site_fract_z
_atom_type_partial_charge
O1    O     O_R   0.500020 0.316790 0.614690 -0.628319
O2    O     O_R   0.500000 0.316760 0.385350 -0.604978
C1    C     C_R   0.511239 0.260617 0.499919 0.943344
O3    O     O_R   0.319080 0.500020 0.614640 -0.626555
O4    O     O_R   0.319070 0.499980 0.385300 -0.570235
C2    C     C_R   0.262196 0.501710 0.498339 1.002569
Zn1   Zn    Zn3+2 0.500010 0.500020 0.653130 1.000757
Zn2   Zn    Zn3+2 0.499990 0.499980 0.346870 1.025705
O5    O     O_R   0.500000 0.683240 0.614650 -0.570489
O6    O     O_R   0.499980 0.683210 0.385310 -0.610657
O7    O     O_R   0.680930 0.500020 0.614700 -0.620685
O8    O     O_R   0.680920 0.499980 0.385360 -0.610988
C3    C     C_R   0.510568 0.739929 0.499534 0.896293
C4    C     C_R   0.737527 0.508812 0.501655 0.975323
C5    C     C_2   0.930827 0.569775 0.397062 -0.267646
C6    C     C_2   0.867912 0.540715 0.508063 -0.373889
H1    H     H_    0.883642 0.576040 0.298736 0.194450
H2    H     H_    0.912693 0.544315 0.607909 0.190144
C7    C     C_2   0.068028 0.583440 0.406634 0.520947
C8    C     C_2   0.128795 0.505510 0.492625 -0.331481
H3    H     H_    0.081055 0.439155 0.557711 0.116745
C9    C     C_R   0.542308 0.061957 0.617598 0.024709
C10   C     C_R   0.544707 0.130616 0.498806 -0.126066
C11   C     C_R   0.581067 0.068110 0.378982 -0.127392
C12   C     C_R   0.574316 0.935900 0.376234 -0.132731
C13   C     C_R   0.545263 0.870515 0.497676 -0.176366
C14   C     C_R   0.555117 0.936088 0.618583 0.034483
C15   C     C_3   0.506793 0.924219 0.759156 -0.265723
C16   C     C_3   0.486891 0.067823 0.755195 -0.247828
H4    H     H_    0.418904 0.867225 0.765367 0.187079
H5    H     H_    0.545909 0.125120 0.825990 0.180625
C17   C     C_R   0.396386 0.537167 0.068603 0.121204
N1    N     N_R   0.499170 0.499140 0.142800 -0.105731
C18   C     C_R   0.605747 0.469580 0.074239 -0.086676
H6    H     H_    0.690570 0.443611 0.129711 0.183867
C19   C     C_R   0.605467 0.468644 0.930630 -0.086985
H7    H     H_    0.689906 0.441812 0.878874 0.166318
N2    N     N_R   0.499170 0.499180 0.857150 -0.097241
C20   C     C_R   0.397006 0.539482 0.926231 0.213850
C21   C     C_3   0.266436 0.485936 0.915125 -0.330304
C22   C     C_3   0.266449 0.481033 0.069437 -0.364546
H8    H     H_    0.263643 0.392929 0.863729 0.177499
H9    H     H_    0.197264 0.545248 0.115246 0.209983
C23   C     C_2   0.171141 0.577266 0.857497 0.946284
O9    O     O_2   0.059246 0.549414 0.857425 -0.646017
O10   O     O_R   0.209951 0.692476 0.803818 -0.797600
H10   H     H_    0.136747 0.744306 0.767493 0.342181
C24   C     C_2   0.260153 0.349325 0.125907 1.043635
O11   O     O_2   0.336701 0.270098 0.092940 -0.567578
O12   O     O_R   0.165281 0.318404 0.216075 -0.787176
H11   H     H_    0.170596 0.228007 0.248129 0.347813
O13   O     O_3   0.137476 0.663928 0.324456 -0.619386
C25   C     C_3   0.065154 0.764067 0.271025 0.045757
H12   H     H_    0.011981 0.812264 0.351748 0.171688
H13   H     H_    0.999105 0.729500 0.190390 0.177893
C26   C     C_3   0.153458 0.859464 0.207717 -0.648704
H14   H     H_    0.098242 0.939459 0.165677 0.223145
H15   H     H_    0.221787 0.895585 0.285201 0.264770
H16   H     H_    0.206138 0.814830 0.124739 0.270786
C27   C     C_2   0.627103 0.138201 0.259624 0.983337
O14   O     O_2   0.715445 0.211622 0.273289 -0.634044
O15   O     O_R   0.568762 0.121778 0.132946 -0.705183
H17   H     H_    0.607072 0.177339 0.061205 0.348788
C28   C     C_2   0.593269 0.869333 0.247298 1.044606
O16   O     O_2   0.697615 0.829814 0.219816 -0.651691
O17   O     O_R   0.489676 0.847796 0.160653 -0.748229
H18   H     H_    0.510436 0.790445 0.082829 0.335808
C29   C     C_2   0.611664 0.879375 0.852771 0.968948
O18   O     O_2   0.664348 0.951309 0.932154 -0.588923
O19   O     O_R   0.649805 0.754158 0.846563 -0.790535
H19   H     H_    0.720880 0.734379 0.913303 0.347912
C30   C     C_2   0.348847 0.101593 0.756535 0.967858
O20   O     O_2   0.293392 0.097996 0.863474 -0.568112
O21   O     O_R   0.284013 0.135186 0.637326 -0.818747
H20   H     H_    0.192378 0.156135 0.653048 0.338332

loop_
_geom_bond_atom_site_label_1
_geom_bond_atom_site_label_2
_geom_bond_distance
_ccdc_geom_bond_type
O4    Zn2   1.964878 S    
Zn1   O7    1.964880 S    
C10   C11   1.421566 A    
C21   C22   1.527080 S    
O19   H19   1.013968 S    
C9    C16   1.495691 S    
C2    C8    1.416024 S    
C26   H14   1.110791 S    
C1    C10   1.430199 S    
C7    C8    1.343808 D    
C26   H16   1.111429 S    
C11   C27   1.485781 S    
N1    C18   1.369199 A    
Zn2   O8    1.948918 S    
C16   C30   1.510024 S    
C17   N1    1.363805 A    
C24   O12   1.397079 S    
O12   H11   1.013962 S    
O8    C4    1.289391 A    
C16   H5    1.110508 S    
C6    H2    1.087240 S    
O1    Zn1   1.987563 S    
C25   H12   1.114657 S    
C8    H3    1.085871 S    
C27   O15   1.396312 S    
C5    C7    1.463308 S    
C22   H9    1.109643 S    
C28   O17   1.397333 S    
C13   C14   1.387393 A    
O15   H17   1.013575 S    
C27   O14   1.222971 D    
O3    Zn1   1.948918 S    
C24   O11   1.222977 D    
C28   O16   1.222359 D    
C15   H4    1.112876 S    
C15   C16   1.544249 S    
C15   C29   1.510594 S    
C22   C24   1.509876 S    
C26   H15   1.111339 S    
O17   H18   1.011823 S    
C18   C19   1.420399 A    
Zn2   N1    2.018287 S    
C25   H13   1.112160 S    
O4    C2    1.282159 A    
C29   O18   1.222372 D    
O7    C4    1.283647 A    
C4    C6    1.423029 S    
C3    C13   1.436384 S    
C17   C20   1.408512 A    
O3    C2    1.287525 A    
O21   H20   1.013794 S    
C17   C22   1.500187 S    
C19   N2    1.368503 A    
Zn1   O5    1.986284 S    
C21   C23   1.508058 S    
C9    C14   1.347186 A    
C11   C12   1.408967 A    
C30   O20   1.221910 D    
C30   O21   1.398898 S    
C18   H6    1.080611 S    
C25   C26   1.521664 S    
C20   C21   1.497470 S    
C5    H1    1.086216 S    
C29   O19   1.396440 S    
O5    C3    1.294473 A    
O10   H10   1.013808 S    
C19   H7    1.081174 S    
O2    C1    1.283721 A    
C23   O10   1.399222 S    
C12   C28   1.477908 S    
O1    C1    1.291914 A    
C12   C13   1.425976 A    
C9    C10   1.383277 A    
C7    O13   1.398342 S    
Zn1   N2    2.018145 S    
Zn2   O6    1.987563 S    
O2    Zn2   1.986286 S    
C23   O9    1.222312 D    
C5    C6    1.332432 D    
O13   C25   1.411417 S    
C21   H8    1.113555 S    
C14   C15   1.497242 S    
O6    C3    1.284366 A    
N2    C20   1.364971 A    
