data_mof_unit_4937.cif
_audit_creation_date              2012-12-11T15:28:38-0500
_audit_creation_method            fapswitch 2.2
_symmetry_space_group_name_H-M    P1
_symmetry_Int_Tables_number       1
_space_group_crystal_system       triclinic
_cell_length_a                    6.960124
_cell_length_b                    19.595288
_cell_length_c                    23.348958
_cell_angle_alpha                 95.969419
_cell_angle_beta                  91.048456
_cell_angle_gamma                 88.804599
_cell_volume                      3166.08898288

loop_
_atom_site_label
_atom_site_type_symbol
_atom_type_description
_atom_site_fract_x
_atom_site_fract_y
_atom_site_fract_z
_atom_type_partial_charge
O1    O     O_R   0.617180 0.809390 0.808140 -0.525864
O2    O     O_R   0.382820 0.190610 0.191860 -0.524285
O3    O     O_R   0.293300 0.672410 0.795490 -0.537864
O4    O     O_R   0.706700 0.327590 0.204510 -0.538498
O5    O     O_R   0.117220 0.690610 0.691850 -0.521832
O6    O     O_R   0.882780 0.309390 0.308150 -0.519183
C1    C     C_R   0.464556 0.647738 0.805113 0.690466
C2    C     C_R   0.535444 0.352261 0.194886 0.688824
O7    O     O_R   0.287840 0.807750 0.814460 -0.527533
O8    O     O_R   0.712160 0.192250 0.185540 -0.529696
O9    O     O_R   0.111720 0.826910 0.710960 -0.534609
O10   O     O_R   0.888280 0.173090 0.289040 -0.518994
C3    C     C_R   0.456484 0.830764 0.833170 0.715801
C4    C     C_R   0.543509 0.169232 0.166833 0.718582
O11   O     O_R   0.622680 0.673080 0.789040 -0.535904
O12   O     O_R   0.377320 0.326920 0.210960 -0.536057
O13   O     O_3   0.448820 0.756130 0.716020 -0.353776
O14   O     O_3   0.551180 0.243870 0.283980 -0.350319
V1    V     V_3+5 0.176220 0.748860 0.756300 1.436387
V2    V     V_3+5 0.823780 0.251140 0.243700 1.447779
O15   O     O_R   0.781670 0.827580 0.704500 -0.529873
O16   O     O_R   0.218330 0.172420 0.295500 -0.537838
C5    C     C_R   0.948686 0.851643 0.693726 0.768141
C6    C     C_R   0.051906 0.148099 0.306044 0.761444
O17   O     O_R   0.787130 0.692240 0.685530 -0.523635
O18   O     O_R   0.212870 0.307760 0.314470 -0.526938
C7    C     C_R   0.956102 0.669253 0.666788 0.739324
C8    C     C_R   0.043897 0.330746 0.333213 0.733650
V3    V     V_3+5 0.675510 0.751130 0.743690 1.451357
V4    V     V_3+5 0.324490 0.248870 0.256310 1.449105
O19   O     O_3   0.952780 0.743870 0.783980 -0.367895
O20   O     O_3   0.047220 0.256130 0.216020 -0.368746
C9    C     C_1   0.966639 0.617196 0.614727 -0.191405
C10   C     C_1   0.033359 0.382802 0.385274 -0.193324
C11   C     C_1   0.978204 0.573679 0.571913 0.014707
C12   C     C_1   0.021796 0.426318 0.428089 0.014835
C13   C     C_1   0.993427 0.521863 0.521314 0.011041
C14   C     C_1   0.006575 0.478133 0.478689 0.011142
C15   C     C_R   0.954932 0.915452 0.664615 -0.182434
C16   C     C_R   0.054954 0.084349 0.335522 -0.181620
C17   C     C_R   0.977975 0.039253 0.669475 -0.132198
C18   C     C_R   0.155906 0.965336 0.337234 -0.135119
C19   C     C_R   0.963504 0.980245 0.697542 0.292734
C20   C     C_R   0.131373 0.022642 0.307084 0.297842
C21   C     C_R   0.959007 0.911784 0.603722 0.268088
C22   C     C_R   0.999567 0.086151 0.393784 0.268273
C23   C     C_R   0.003803 0.971563 0.575790 -0.033407
C24   C     C_R   0.052896 0.030328 0.426893 -0.034288
C25   C     C_R   0.998718 0.035711 0.609677 -0.048799
C26   C     C_R   0.119301 0.968516 0.396210 -0.047374
C27   C     C_R   0.054067 0.970541 0.516021 -0.071678
C28   C     C_R   0.045670 0.033186 0.488871 -0.073060
C29   C     C_R   0.052713 0.095948 0.525553 0.355039
C30   C     C_R   0.133409 0.911246 0.483759 0.355843
C31   C     C_R   0.024109 0.096329 0.584419 -0.146200
C32   C     C_R   0.159152 0.910614 0.424791 -0.148481
H1    H     H_    0.030074 0.144937 0.611199 0.145277
H2    H     H_    0.219575 0.864645 0.401399 0.145359
H3    H     H_    0.979236 0.088610 0.695236 0.148085
H4    H     H_    0.210781 0.918113 0.314395 0.147581
C33   C     C_R   0.483888 0.585563 0.835210 -0.045246
C34   C     C_R   0.516109 0.414435 0.164788 -0.044789
C35   C     C_R   0.585520 0.466684 0.833026 -0.157453
C36   C     C_R   0.414459 0.533313 0.166971 -0.157803
C37   C     C_R   0.549502 0.524759 0.804736 -0.166892
C38   C     C_R   0.450485 0.475239 0.195262 -0.166946
C39   C     C_R   0.455050 0.588150 0.894779 -0.214152
C40   C     C_R   0.544947 0.411848 0.105220 -0.214302
C41   C     C_R   0.495387 0.529911 0.925124 0.086904
C42   C     C_R   0.504600 0.470086 0.074874 0.086908
C43   C     C_R   0.560883 0.468815 0.892684 0.136504
C44   C     C_R   0.439097 0.531181 0.107314 0.136705
C45   C     C_R   0.476510 0.530350 0.986311 0.056979
C46   C     C_R   0.523473 0.469646 0.013687 0.056907
C47   C     C_R   0.586865 0.410504 0.978944 -0.185078
C48   C     C_R   0.413112 0.589492 0.021053 -0.185192
C49   C     C_R   0.604487 0.410273 0.919855 -0.196463
C50   C     C_R   0.395487 0.589723 0.080142 -0.196717
H5    H     H_    0.654582 0.363600 0.895111 0.128855
H6    H     H_    0.345385 0.636394 0.104885 0.128568
H7    H     H_    0.592663 0.363207 0.083962 0.095687
H8    H     H_    0.407343 0.636792 0.916037 0.095783
H9    H     H_    0.425453 0.477515 0.241099 0.108895
H10   H     H_    0.574532 0.522482 0.758899 0.108989
H11   H     H_    0.636396 0.420157 0.808274 0.119156
H12   H     H_    0.363575 0.579838 0.191723 0.118867
H13   H     H_    0.625167 0.363064 0.996045 0.125579
H14   H     H_    0.374803 0.636931 0.003952 0.125476
C51   C     C_1   0.467157 0.882838 0.885223 -0.202300
C52   C     C_1   0.532807 0.117154 0.114783 -0.202886
C53   C     C_1   0.478587 0.926352 0.928048 0.014169
C54   C     C_1   0.521350 0.073640 0.071960 0.013107
C55   C     C_1   0.493520 0.978143 0.978677 0.010222
C56   C     C_1   0.506402 0.021848 0.021331 0.009652
O21   O     O_3   0.887097 0.141242 0.415653 -0.625163
H15   H     H_    0.805416 0.125781 0.445946 0.312902
O22   O     O_3   0.907240 0.850524 0.573369 -0.628290
H16   H     H_    0.849127 0.860778 0.536091 0.315876
O23   O     O_3   0.181845 0.015275 0.249729 -0.637512
H17   H     H_    0.134593 0.055280 0.230646 0.277056
O24   O     O_3   0.955115 0.989046 0.757004 -0.637540
H18   H     H_    0.937171 0.944520 0.772364 0.276606
O25   O     O_3   0.112173 0.156709 0.507381 -0.622840
H19   H     H_    0.206987 0.145546 0.476498 0.306510
O26   O     O_3   0.211182 0.856078 0.508877 -0.621639
H20   H     H_    0.264532 0.873271 0.547188 0.308358

loop_
_geom_bond_atom_site_label_1
_geom_bond_atom_site_label_2
_ccdc_geom_bond_type
C35   C37   A    
O24   H18   S    
O6    C8    A    
O13   V3    S    
C45   C46   A    
O21   H15   S    
O4    C2    A    
V1    O19   S    
O22   H16   S    
C23   C25   A    
C7    C9    S    
C16   C22   A    
O9    V1    S    
C55   C56   T    
C40   H7    S    
C11   C13   S    
C48   C50   A    
O3    C1    A    
C9    C11   T    
C20   O23   S    
C50   H6    S    
O12   V4    S    
C21   C23   A    
C36   H12   S    
C41   C43   A    
O7    C3    A    
C4    C52   S    
C44   C50   A    
C6    C16   S    
C38   H9    S    
O5    C7    A    
O7    V1    S    
C1    C33   S    
C22   O21   S    
O8    V2    S    
C42   C46   A    
O3    V1    S    
O14   V4    S    
C51   C53   T    
C48   H14   S    
C10   C12   T    
C15   C21   A    
C24   C26   A    
C8    C10   S    
C2    O12   A    
C35   H11   S    
C17   C19   A    
C18   C20   A    
C17   C25   A    
O11   V3    S    
C22   C24   A    
C29   C31   A    
O17   V3    S    
C30   C32   A    
C46   C47   A    
C34   C38   A    
C27   C28   A    
C17   H3    S    
O8    C4    A    
C18   H4    S    
C37   H10   S    
C15   C19   A    
C1    O11   A    
C25   C31   A    
O15   V3    S    
C26   C32   A    
C39   C41   A    
C36   C38   A    
C19   O24   S    
C13   C14   T    
C53   C55   S    
C33   C39   A    
C52   C54   T    
O23   H17   S    
C16   C20   A    
O10   V2    S    
C54   C56   S    
C49   H5    S    
C41   C45   A    
C47   C49   A    
C18   C26   A    
C47   H13   S    
C35   C43   A    
O18   V4    S    
C31   H1    S    
C45   C48   A    
O16   C6    A    
O1    C3    A    
C12   C14   S    
C43   C49   A    
C28   C29   A    
V2    O20   S    
O16   V4    S    
C30   O26   S    
C3    C51   S    
C23   C27   A    
O5    V1    S    
O17   C7    A    
O6    V2    S    
O26   H20   S    
O10   C6    A    
O18   C8    A    
C34   C40   A    
O2    V4    S    
C27   C30   A    
O15   C5    A    
V3    O19   S    
C21   O22   S    
V4    O20   S    
O1    V3    S    
C29   O25   S    
C5    C15   S    
O9    C5    A    
O13   V1    S    
C32   H2    S    
O14   V2    S    
C36   C44   A    
O2    C4    A    
O4    V2    S    
C33   C37   A    
C24   C28   A    
C39   H8    S    
C40   C42   A    
O25   H19   S    
C42   C44   A    
C2    C34   S    
