data_mof_unit_2751.cif
_audit_creation_date              2013-03-05T15:55:21-0500
_audit_creation_method            fapswitch 2.2
_symmetry_space_group_name_H-M    P1
_symmetry_Int_Tables_number       1
_space_group_crystal_system       triclinic
_cell_length_a                    14.727053
_cell_length_b                    14.710942
_cell_length_c                    33.185657
_cell_angle_alpha                 96.166052
_cell_angle_beta                  96.051635
_cell_angle_gamma                 61.049182
_cell_volume                      6242.98083482

loop_
_atom_site_label
_atom_site_type_symbol
_atom_site_description
_atom_site_fract_x
_atom_site_fract_y
_atom_site_fract_z
_atom_type_partial_charge
O1    O     O_R   0.679450 0.499830 0.463150 -0.499269
O2    O     O_R   0.480650 0.664000 0.464630 -0.545566
C1    C     C_R   0.391022 0.699979 0.446159 0.809751
O3    O     O_R   0.323930 0.675950 0.455370 -0.512936
O4    O     O_R   0.354700 0.475360 0.451930 -0.508840
C2    C     C_R   0.430930 0.405232 0.431054 0.838071
O5    O     O_R   0.494470 0.320860 0.448390 -0.497767
O6    O     O_R   0.662580 0.357570 0.460050 -0.557697
C3    C     C_R   0.700607 0.409897 0.447093 0.841929
O7    O     O_R   0.680900 0.502040 0.551870 -0.514249
O8    O     O_R   0.481990 0.666040 0.546870 -0.546751
C4    C     C_R   0.393248 0.702167 0.561329 0.797957
O9    O     O_R   0.325370 0.678160 0.544080 -0.514281
O10   O     O_R   0.356040 0.477400 0.534170 -0.502117
C5    C     C_R   0.406140 0.388027 0.548797 0.871399
O11   O     O_R   0.495910 0.323070 0.537100 -0.525476
O12   O     O_R   0.663920 0.359620 0.542290 -0.542331
C6    C     C_R   0.701098 0.413714 0.562823 0.885587
Cr1   Cr    Cr6+3 0.576280 0.580550 0.506370 1.015054
Cr2   Cr    Cr6+3 0.346780 0.572400 0.496520 1.094736
Cr3   Cr    Cr6+3 0.576960 0.347070 0.497150 1.006007
O13   O     O_3   0.500010 0.500010 0.500010 -0.393727
H1    H     H_    0.497094 0.269657 0.169208 0.169188
H2    H     H_    0.487511 0.236180 0.300781 0.189283
C7    C     C_R   0.409813 0.398210 0.386402 -0.230379
C8    C     C_R   0.344454 0.491518 0.367457 -0.277289
C9    C     C_R   0.330301 0.494101 0.325055 0.424175
C10   C     C_R   0.384181 0.401023 0.301105 -0.077845
C11   C     C_R   0.449044 0.307978 0.319508 -0.246094
C12   C     C_R   0.461323 0.304722 0.361767 0.392352
C13   C     C_R   0.418365 0.300254 0.155750 -0.166216
C14   C     C_R   0.401012 0.269288 0.115494 0.309408
C15   C     C_R   0.214573 0.377505 0.122072 -0.228110
C16   C     C_R   0.233134 0.408432 0.161862 -0.107555
C17   C     C_R   0.334721 0.367798 0.178992 0.057862
C18   C     C_1   0.352502 0.385827 0.221615 0.032449
C19   C     C_1   0.367055 0.395497 0.257744 0.121101
C20   C     C_R   0.297505 0.304943 0.098912 -0.077580
H3    H     H_    0.305952 0.563818 0.385788 0.197902
H4    H     H_    0.167929 0.460404 0.179839 0.146550
H5    H     H_    0.134709 0.406384 0.110190 0.159967
N1    N     N_R   0.718982 0.409302 0.218005 -0.282908
N2    N     N_R   0.714813 0.414735 0.258071 -0.238897
C21   C     C_R   0.749865 0.375440 0.407661 -0.216241
C22   C     C_R   0.780698 0.437527 0.388894 0.272390
C23   C     C_R   0.793177 0.422201 0.346720 0.307800
C24   C     C_R   0.780800 0.341660 0.324181 -0.148588
C25   C     C_R   0.762875 0.273158 0.343836 -0.147714
C26   C     C_R   0.746841 0.290226 0.385101 -0.162196
N3    N     N_R   0.849221 0.243144 0.260206 -0.234320
N4    N     N_R   0.854052 0.238249 0.220157 -0.214924
C27   C     C_R   0.789944 0.321697 0.198342 0.614143
C28   C     C_R   0.780881 0.332296 0.279856 0.579672
C29   C     C_R   0.812988 0.401590 0.139443 0.173666
C30   C     C_R   0.851838 0.387879 0.101041 0.232542
C31   C     C_R   0.874403 0.211403 0.092850 0.241288
C32   C     C_R   0.829939 0.227095 0.130221 0.260276
C33   C     C_R   0.806104 0.319192 0.154902 -0.238585
C34   C     C_R   0.892509 0.289094 0.079357 -0.308990
H6    H     H_    0.725281 0.240299 0.398729 0.211577
H7    H     H_    0.754588 0.210312 0.326711 0.194978
N5    N     N_R   0.253244 0.837412 0.219916 -0.261262
N6    N     N_R   0.258543 0.832819 0.259950 -0.226769
C35   C     C_R   0.375157 0.749711 0.407942 -0.184806
C36   C     C_R   0.275556 0.806387 0.388264 0.384362
C37   C     C_R   0.268382 0.824159 0.347016 -0.098671
C38   C     C_R   0.358332 0.788582 0.325731 -0.067495
C39   C     C_R   0.455864 0.742085 0.346717 -0.095420
C40   C     C_R   0.464136 0.723091 0.387272 -0.185795
N7    N     N_R   0.438998 0.762329 0.261430 -0.255623
N8    N     N_R   0.433622 0.767092 0.221437 -0.260252
C41   C     C_R   0.340632 0.804128 0.199913 0.552450
C42   C     C_R   0.351535 0.795874 0.281531 0.592545
C43   C     C_R   0.265798 0.802909 0.127779 0.217151
C44   C     C_R   0.255879 0.831945 0.087563 0.282593
C45   C     C_R   0.379342 0.898011 0.106318 0.323784
C46   C     C_R   0.393358 0.863294 0.144975 -0.228551
C47   C     C_R   0.333660 0.821473 0.156700 -0.137266
C48   C     C_R   0.303084 0.890979 0.078376 -0.263049
H8    H     H_    0.541445 0.680295 0.401528 0.201987
H9    H     H_    0.192425 0.864411 0.331418 0.202394
H10   H     H_    0.526654 0.715489 0.331397 0.206603
H11   H     H_    0.448425 0.873668 0.166745 0.203750
N9    N     N_R   0.275243 0.445891 0.773272 -0.268006
N10   N     N_R   0.274920 0.447038 0.733193 -0.199456
C49   C     C_R   0.367980 0.367135 0.584784 -0.249072
C50   C     C_R   0.275476 0.445327 0.602102 0.229088
C51   C     C_R   0.259007 0.442357 0.642947 0.316382
C52   C     C_R   0.331518 0.358207 0.665710 -0.181627
C53   C     C_R   0.413589 0.273859 0.646185 -0.272787
C54   C     C_R   0.432073 0.276635 0.606083 0.250140
N11   N     N_R   0.379554 0.266538 0.728627 -0.298335
N12   N     N_R   0.380408 0.265329 0.768642 -0.224299
C55   C     C_R   0.329112 0.354995 0.791743 0.573519
C56   C     C_R   0.326389 0.357299 0.709989 0.572481
C57   C     C_R   0.226964 0.408785 0.852380 -0.161595
C58   C     C_R   0.211429 0.386149 0.889939 -0.131405
C59   C     C_R   0.392477 0.254960 0.896222 -0.170658
C60   C     C_R   0.409508 0.277819 0.858697 0.396774
C61   C     C_R   0.323929 0.351052 0.835455 -0.112303
C62   C     C_R   0.292742 0.305260 0.911105 -0.142896
H12   H     H_    0.133912 0.426830 0.900906 0.188214
H13   H     H_    0.467048 0.206361 0.662663 0.170720
H14   H     H_    0.160801 0.465597 0.835087 0.192445
H15   H     H_    0.456673 0.195398 0.913264 0.210086
H16   H     H_    0.880893 0.170558 0.800268 0.163039
H17   H     H_    0.662866 0.298995 0.608452 0.179514
C63   C     C_R   0.745839 0.385172 0.604505 -0.220230
C64   C     C_R   0.805864 0.427540 0.626529 0.309342
C65   C     C_R   0.823923 0.419600 0.669155 0.122769
C66   C     C_R   0.783988 0.367401 0.688904 0.000250
C67   C     C_R   0.727319 0.322693 0.666667 0.270232
C68   C     C_R   0.710472 0.330288 0.624755 -0.290469
C69   C     C_R   0.871717 0.231895 0.823259 -0.134688
C70   C     C_R   0.898804 0.211029 0.864430 0.275790
C71   C     C_R   0.833257 0.397960 0.881061 0.249224
C72   C     C_R   0.812537 0.416073 0.839132 0.457626
C73   C     C_R   0.834499 0.331730 0.810694 -0.253734
C74   C     C_1   0.817469 0.346265 0.767920 0.031721
C75   C     C_1   0.803325 0.356458 0.731993 0.091908
C76   C     C_R   0.891404 0.293506 0.892956 -0.317684
C77   C     C_R   0.375221 0.756845 0.602376 -0.160778
C78   C     C_R   0.284783 0.776665 0.620560 -0.143758
C79   C     C_R   0.274964 0.802294 0.661915 -0.169286
C80   C     C_R   0.354341 0.810536 0.685940 0.002887
C81   C     C_R   0.440840 0.802252 0.668232 0.280072
C82   C     C_R   0.451621 0.775831 0.626176 0.188277
C83   C     C_R   0.411872 0.854272 0.834562 0.293375
C84   C     C_R   0.391138 0.886479 0.875774 0.274217
C85   C     C_R   0.228554 0.879483 0.863966 -0.188796
C86   C     C_R   0.248720 0.848478 0.823471 -0.179211
C87   C     C_R   0.337460 0.839972 0.808388 -0.061437
C88   C     C_1   0.345134 0.827577 0.765304 0.077133
C89   C     C_1   0.349402 0.820143 0.729138 0.049391
C90   C     C_R   0.295738 0.904687 0.890039 -0.217466
H18   H     H_    0.223653 0.766060 0.603306 0.222766
H19   H     H_    0.192134 0.836116 0.803386 0.159979
H20   H     H_    0.156813 0.889531 0.874259 0.179996
H21   H     H_    0.207328 0.810672 0.675521 0.182871
O14   O     O_R   0.170070 0.978950 0.027680 -0.497972
O15   O     O_R   0.001760 0.175230 0.026640 -0.499371
C91   C     C_R   0.960571 0.265660 0.045117 0.863835
O16   O     O_R   0.984760 0.333570 0.037150 -0.531747
O17   O     O_R   0.183410 0.309240 0.041890 -0.551165
C92   C     C_R   0.273615 0.261082 0.059569 0.794513
O18   O     O_R   0.340240 0.172500 0.045430 -0.488852
O19   O     O_R   0.309670 0.000990 0.032050 -0.502437
C93   C     C_R   0.260680 0.957245 0.043192 0.848763
O20   O     O_R   0.168330 0.982130 0.939200 -0.544924
O21   O     O_R   0.000140 0.178170 0.944610 -0.521833
C94   C     C_R   0.957288 0.269818 0.931872 0.800282
O22   O     O_R   0.983010 0.336750 0.948660 -0.545264
O23   O     O_R   0.181800 0.312190 0.959860 -0.540435
C95   C     C_R   0.271295 0.264391 0.945480 0.793676
O24   O     O_R   0.338500 0.175680 0.956950 -0.515461
O25   O     O_R   0.308050 0.003930 0.950020 -0.498307
C96   C     C_R   0.257709 0.962616 0.929385 0.825629
Cr4   Cr    Cr6+3 0.087320 0.083240 0.984860 1.046548
Cr5   Cr    Cr6+3 0.087720 0.316210 0.996740 0.965673
Cr6   Cr    Cr6+3 0.317350 0.090340 0.995890 1.117699
O26   O     O_3   0.164130 0.163270 0.992500 -0.362102
N13   N     N_2   0.487699 0.200385 0.092474 -0.450605
H22   H     H_    0.552299 0.151314 0.109769 0.320898
C97   C     C_3   0.513201 0.250905 0.063856 -0.433745
H23   H     H_    0.538048 0.305937 0.080275 0.183466
H24   H     H_    0.445262 0.293749 0.042548 0.164623
H25   H     H_    0.577953 0.191337 0.045848 0.242074
N14   N     N_2   0.850262 0.473999 0.084216 -0.477895
H26   H     H_    0.862069 0.525599 0.104730 0.288791
C98   C     C_3   0.763852 0.525648 0.055103 -0.427609
H27   H     H_    0.771938 0.587071 0.041625 0.217655
H28   H     H_    0.689318 0.562381 0.070313 0.196932
H29   H     H_    0.762669 0.469329 0.030162 0.175196
N15   N     N_R   0.821492 0.486033 0.326938 0.148713
O27   O     O_R   0.752697 0.581606 0.320325 -0.317372
O28   O     O_R   0.908526 0.443547 0.309022 -0.342549
N16   N     N_2   0.783904 0.498400 0.162250 -0.522397
H30   H     H_    0.711025 0.533919 0.173358 0.302133
C99   C     C_3   0.864505 0.501903 0.190333 -0.392307
H31   H     H_    0.837421 0.582696 0.203646 0.231305
H32   H     H_    0.936145 0.477717 0.174354 0.172261
H33   H     H_    0.883143 0.449923 0.215310 0.229917
N17   N     N_R   0.897282 0.117845 0.068085 0.155436
O29   O     O_R   0.837072 0.120323 0.036117 -0.360969
O30   O     O_R   0.983539 0.032911 0.075035 -0.342128
N18   N     N_R   0.807295 0.150101 0.142979 0.140547
O31   O     O_R   0.877129 0.052379 0.142127 -0.325052
O32   O     O_R   0.717920 0.178396 0.157374 -0.384128
N19   N     N_R   0.182078 0.845989 0.409483 0.132646
O33   O     O_R   0.095405 0.860263 0.389813 -0.298761
O34   O     O_R   0.179843 0.881229 0.447258 -0.343661
N20   N     N_2   0.201278 0.799949 0.056012 -0.451161
H34   H     H_    0.150078 0.778584 0.065154 0.297185
C100  C     C_3   0.266238 0.725702 0.025376 -0.492939
H35   H     H_    0.216944 0.708877 0.001354 0.208791
H36   H     H_    0.322928 0.651876 0.039203 0.184171
H37   H     H_    0.308802 0.757187 0.010847 0.188726
N21   N     N_2   0.212952 0.749704 0.138059 -0.556915
H38   H     H_    0.252398 0.695828 0.159570 0.280173
C101  C     C_3   0.104021 0.815401 0.145609 -0.348720
H39   H     H_    0.068476 0.765871 0.149906 0.200465
H40   H     H_    0.060954 0.864061 0.119772 0.244872
H41   H     H_    0.094793 0.867735 0.173291 0.240497
N22   N     N_R   0.442195 0.941604 0.096450 0.125492
O35   O     O_R   0.501944 0.899701 0.066152 -0.335572
O36   O     O_R   0.455941 0.007815 0.122156 -0.362393
N23   N     N_R   0.195862 0.524411 0.577706 0.162639
O37   O     O_R   0.158028 0.622426 0.589542 -0.321757
O38   O     O_R   0.160866 0.498101 0.543297 -0.303516
N24   N     N_2   0.517689 0.189013 0.588026 -0.496443
H42   H     H_    0.577090 0.144923 0.608439 0.251361
C102  C     C_3   0.488181 0.125665 0.559056 -0.398292
H43   H     H_    0.558629 0.061444 0.545387 0.205996
H44   H     H_    0.434761 0.172791 0.534271 0.222383
H45   H     H_    0.449251 0.091649 0.574438 0.167676
N25   N     N_R   0.166560 0.522632 0.660527 0.164872
O39   O     O_R   0.158936 0.613485 0.671641 -0.331437
O40   O     O_R   0.096747 0.500630 0.670573 -0.342519
N26   N     N_R   0.512902 0.225460 0.844425 0.107477
O41   O     O_R   0.543622 0.273463 0.822992 -0.380044
O42   O     O_R   0.580561 0.134344 0.856698 -0.311357
N27   N     N_2   0.931342 0.109557 0.877815 -0.484481
H46   H     H_    0.897181 0.111176 0.903654 0.291326
C103  C     C_3   0.940456 0.025403 0.848616 -0.453907
H47   H     H_    0.968735 0.953050 0.864586 0.210660
H48   H     H_    0.997577 0.010784 0.826127 0.182528
H49   H     H_    0.863395 0.043858 0.833120 0.233901
N28   N     N_2   0.685061 0.271483 0.686434 -0.507245
H50   H     H_    0.679851 0.212007 0.668628 0.263578
C104  C     C_3   0.588743 0.341263 0.705248 -0.476919
H51   H     H_    0.563119 0.295501 0.721010 0.233032
H52   H     H_    0.527303 0.385501 0.681851 0.179885
H53   H     H_    0.599270 0.396884 0.728074 0.211306
N29   N     N_R   0.848215 0.477989 0.605721 0.124622
O43   O     O_R   0.898589 0.432575 0.573231 -0.312016
O44   O     O_R   0.832181 0.571373 0.617836 -0.343088
N30   N     N_R   0.769943 0.518398 0.824412 0.583804
O45   O     O_R   0.779280 0.593360 0.845699 -0.782703
O46   O     O_R   0.779280 0.593360 0.845699 -0.782703
N31   N     N_2   0.786298 0.483547 0.910453 -0.318667
H54   H     H_    0.820522 0.474457 0.939365 0.254007
C105  C     C_3   0.674860 0.526221 0.911509 -0.254534
H55   H     H_    0.656706 0.467314 0.921454 0.091707
H56   H     H_    0.635187 0.551009 0.881231 0.234810
H57   H     H_    0.643950 0.595541 0.933346 0.214321
N32   N     N_R   0.522055 0.205265 0.378621 0.122636
O47   O     O_R   0.478256 0.171448 0.400779 -0.316650
O48   O     O_R   0.611466 0.139685 0.364332 -0.357515
N33   N     N_2   0.885632 0.459820 0.692101 -0.513108
H58   H     H_    0.944332 0.456808 0.676726 0.338038
C106  C     C_3   0.827261 0.559008 0.714259 -0.273120
H59   H     H_    0.779513 0.620573 0.692930 0.197410
H60   H     H_    0.881905 0.580873 0.732783 0.241892
H61   H     H_    0.775441 0.554561 0.735052 0.205633
N34   N     N_R   0.467863 0.897504 0.903035 0.177484
O49   O     O_R   0.515318 0.833039 0.931504 -0.334787
O50   O     O_R   0.479310 0.979855 0.903211 -0.301746
N35   N     N_R   0.507459 0.836422 0.819291 0.191125
O51   O     O_R   0.539087 0.905550 0.826499 -0.265146
O52   O     O_R   0.559567 0.754086 0.795668 -0.284550
N36   N     N_2   0.519973 0.814026 0.693235 -0.494857
H62   H     H_    0.593987 0.770399 0.683262 0.284932
C107  C     C_3   0.494935 0.920733 0.705147 -0.368885
H63   H     H_    0.557879 0.921938 0.726414 0.240587
H64   H     H_    0.421211 0.961634 0.720883 0.197726
H65   H     H_    0.487581 0.962699 0.678071 0.168535
N37   N     N_2   0.540209 0.767688 0.609142 -0.518167
H66   H     H_    0.592415 0.694389 0.598092 0.305546
C108  C     C_3   0.519919 0.851784 0.584601 -0.434094
H67   H     H_    0.594659 0.842873 0.575858 0.218449
H68   H     H_    0.478976 0.927702 0.602165 0.180676
H69   H     H_    0.471691 0.851265 0.556601 0.193147
N38   N     N_R   0.260659 0.591003 0.307159 0.093575
O53   O     O_R   0.182396 0.662325 0.326760 -0.324841
O54   O     O_R   0.277390 0.610905 0.272229 -0.379200
N39   N     N_R   0.802724 0.512949 0.412633 0.157225
O55   O     O_R   0.757463 0.609308 0.403089 -0.307092
O56   O     O_R   0.866928 0.485539 0.444600 -0.292489

loop_
_geom_bond_atom_site_label_1
_geom_bond_atom_site_label_2
_geom_bond_distance
_ccdc_geom_bond_type
C80   C89   1.431385 S    
C21   C26   1.406880 A    
C107  H65   1.110923 S    
C100  H36   1.111545 S    
C50   C51   1.410796 A    
N34   O50   1.300800 A    
C52   C56   1.481097 S    
C81   C82   1.412304 A    
C67   N28   1.425233 S    
C30   C34   1.418431 A    
C64   C65   1.418249 A    
N10   C56   1.358762 A    
C29   C30   1.406759 A    
C70   N27   1.435358 S    
C85   C90   1.403861 A    
C45   C48   1.415644 A    
C103  H47   1.110274 S    
O14   C93   1.274992 A    
N28   C104  1.447420 S    
C69   C70   1.405943 A    
N22   O36   1.301302 A    
C107  H63   1.110381 S    
O4    Cr2   1.913784 S    
C1    C35   1.472974 S    
C31   C32   1.408386 A    
C4    O9    1.276475 A    
C102  H43   1.110380 S    
O8    Cr1   1.912065 S    
C8    C9    1.402450 A    
N12   C55   1.355919 A    
C26   H6    1.082672 S    
C82   N37   1.423259 S    
H16   C69   1.081862 S    
C16   H4    1.083810 S    
C62   C95   1.472983 S    
N11   N12   1.328584 A    
C18   C19   1.201012 T    
N25   O40   1.300233 A    
O2    C1    1.273148 A    
C49   C54   1.417026 A    
N17   O30   1.300597 A    
O4    C2    1.301453 A    
N15   O27   1.300678 A    
C8    H3    1.082903 S    
C106  H60   1.110299 S    
C100  H37   1.110283 S    
O18   Cr6   2.031751 S    
C98   H27   1.110358 S    
C46   H11   1.084219 S    
C5    O11   1.271656 A    
C90   C96   1.482536 S    
O6    Cr3   1.919995 S    
C63   C64   1.415420 A    
C104  H53   1.110066 S    
C16   C17   1.395224 A    
C77   C82   1.427310 A    
N19   O34   1.301479 A    
C73   C74   1.435914 S    
H17   C68   1.084045 S    
C41   C47   1.467766 S    
C79   H21   1.084084 S    
Cr4   O26   1.973485 S    
O14   Cr4   2.037481 S    
C65   C66   1.411278 A    
Cr5   O26   1.965300 S    
N2    C28   1.355657 A    
C91   O16   1.271206 A    
O21   Cr4   1.919924 S    
O19   C93   1.276017 A    
C34   C91   1.495389 S    
O6    C3    1.276833 A    
N16   C99   1.447694 S    
C14   N13   1.423849 S    
C101  H39   1.110215 S    
C105  H56   1.110254 S    
C94   O22   1.273639 A    
C23   N15   1.433816 S    
N21   H38   1.031315 S    
C38   C42   1.471565 S    
C14   C20   1.418675 A    
C11   C12   1.397954 A    
C12   N32   1.434190 S    
O20   Cr4   2.027506 S    
N32   O47   1.301337 A    
C58   H12   1.083165 S    
O9    Cr2   2.028194 S    
C9    N38   1.440391 S    
C99   H33   1.109989 S    
C64   N29   1.437254 S    
C6    C63   1.479405 S    
N14   C98   1.446561 S    
C37   C38   1.405130 A    
O24   Cr6   2.038375 S    
O22   Cr5   2.036858 S    
C72   N30   1.441255 S    
O23   C95   1.273813 A    
C53   C54   1.394840 A    
C84   C90   1.420701 A    
Cr3   O13   1.965625 S    
C83   C84   1.413164 A    
N22   O35   1.301356 A    
C104  H51   1.110149 S    
N29   O44   1.300744 A    
C30   N14   1.427624 S    
C54   N24   1.424902 S    
O19   Cr6   1.921425 S    
C83   C87   1.408131 A    
C67   C68   1.393680 A    
C92   O18   1.268430 A    
N13   C97   1.446512 S    
C45   C46   1.389982 A    
C97   H25   1.110434 S    
C65   N33   1.426077 S    
C43   N21   1.427511 S    
N32   O48   1.301162 A    
O1    Cr1   2.030447 S    
N3    C28   1.354633 A    
N33   C106  1.448186 S    
C43   C44   1.416272 A    
N39   O56   1.301287 A    
N4    C27   1.359123 A    
C105  H57   1.110708 S    
C24   C25   1.394886 A    
C84   N34   1.432420 S    
C78   C79   1.387260 A    
Cr1   O13   1.973497 S    
O1    C3    1.271155 A    
N9    N10   1.331441 A    
C4    C77   1.485645 S    
C106  H59   1.109936 S    
C71   C76   1.426672 A    
C22   N39   1.436546 S    
N26   O41   1.301663 A    
N36   C107  1.446876 S    
C49   C50   1.419617 A    
C87   C88   1.431243 S    
C106  H61   1.109900 S    
N6    C42   1.356487 A    
N3    N4    1.330810 A    
C7    C8    1.408764 A    
C46   C47   1.396439 A    
N11   C56   1.357034 A    
O12   Cr3   1.919162 S    
C38   C39   1.398672 A    
C81   N36   1.427341 S    
C66   C75   1.439066 S    
C17   C18   1.431133 S    
C83   N35   1.439240 S    
C63   C68   1.404368 A    
O23   Cr5   1.919304 S    
N35   O52   1.301380 A    
N17   O29   1.300685 A    
C20   C92   1.478757 S    
N5    N6    1.329669 A    
C86   H19   1.084136 S    
O10   Cr2   1.920282 S    
N26   O42   1.301574 A    
O15   Cr4   1.912043 S    
C60   C61   1.415290 A    
C102  H45   1.110883 S    
C55   C61   1.469401 S    
O7    Cr1   2.036932 S    
C74   C75   1.201308 T    
C57   C58   1.392794 A    
C80   C81   1.405371 A    
N7    C42   1.357453 A    
N31   C105  1.448689 S    
O12   C6    1.274355 A    
N33   H58   1.029911 S    
N5    C41   1.355325 A    
N1    N2    1.329523 A    
N9    C55   1.356350 A    
C35   C40   1.405716 A    
N25   O39   1.300969 A    
O17   Cr5   1.920770 S    
C104  H52   1.111508 S    
C59   H15   1.083125 S    
C50   N23   1.437094 S    
C32   N18   1.439373 S    
C69   C73   1.391153 A    
C27   C33   1.479359 S    
N16   H30   1.029547 S    
C5    C49   1.491315 S    
C29   N16   1.425064 S    
N14   H26   1.030398 S    
C36   N19   1.438848 S    
C36   C37   1.404597 A    
N24   C102  1.446747 S    
N30   O46   1.301130 A    
C85   H20   1.081121 S    
C88   C89   1.198921 T    
C13   C17   1.396564 A    
N27   C103  1.448598 S    
C44   C48   1.420035 A    
N29   O43   1.301267 A    
Cr2   O13   1.970966 S    
N18   O32   1.301318 A    
N34   O49   1.300759 A    
C10   C11   1.396339 A    
C103  H49   1.111203 S    
C9    C10   1.408402 A    
N7    N8    1.328583 A    
C21   C22   1.418321 A    
N13   H22   1.031805 S    
C29   C33   1.416442 A    
C7    C12   1.419315 A    
C107  H64   1.110480 S    
C57   H14   1.083494 S    
C23   C24   1.409422 A    
C97   H23   1.111844 S    
C3    C21   1.482305 S    
C51   N25   1.432302 S    
C66   C67   1.403906 A    
C105  H55   1.111607 S    
O2    Cr1   1.920775 S    
O21   C94   1.279505 A    
C39   C40   1.384722 A    
C13   C14   1.402674 A    
C60   N26   1.440282 S    
O17   C92   1.274645 A    
C86   C87   1.392932 A    
C103  H48   1.110702 S    
N37   H66   1.029658 S    
C45   N22   1.434926 S    
O11   Cr3   2.036971 S    
O16   Cr5   2.035442 S    
C2    O5    1.289437 A    
C31   N17   1.431655 S    
C99   H31   1.110085 S    
C59   C62   1.403965 A    
C71   N31   1.431899 S    
C72   C73   1.399641 A    
C15   C20   1.407593 A    
C31   C34   1.417025 A    
C24   C28   1.462644 S    
C78   H18   1.082015 S    
C39   H10   1.082846 S    
N20   H34   1.028361 S    
C108  H68   1.110375 S    
C44   N20   1.430914 S    
N18   O31   1.300461 A    
C15   H5    1.083409 S    
N8    C41   1.355537 A    
O5    Cr3   2.036619 S    
O15   C91   1.278915 A    
C35   C36   1.415676 A    
C37   H9    1.082764 S    
C100  H35   1.110547 S    
N39   O55   1.300464 A    
N37   C108  1.445766 S    
C32   C33   1.411206 A    
N36   H62   1.030887 S    
C98   H28   1.111609 S    
C10   C19   1.434911 S    
O7    C6    1.270199 A    
C101  H41   1.108258 S    
C25   C26   1.389620 A    
N30   O45   1.301130 A    
C57   C61   1.403028 A    
C97   H24   1.111027 S    
N31   H54   1.026080 S    
N38   O54   1.301178 A    
N20   C100  1.448021 S    
C15   C16   1.393039 A    
C71   C72   1.418348 A    
C85   C86   1.386922 A    
C48   C93   1.484933 S    
N24   H42   1.031983 S    
O3    Cr2   2.037718 S    
N19   O33   1.301438 A    
Cr6   O26   1.970807 S    
N15   O28   1.300898 A    
C53   H13   1.083470 S    
C102  H44   1.110894 S    
N28   H50   1.031965 S    
H1    C13   1.084045 S    
C2    C7    1.484652 S    
C22   C23   1.410590 A    
C95   O24   1.266642 A    
H2    C11   1.084753 S    
C77   C78   1.406687 A    
O25   C96   1.275815 A    
C51   C52   1.412258 A    
C101  H40   1.107918 S    
C59   C60   1.401510 A    
C43   C47   1.414300 A    
C108  H69   1.110188 S    
N35   O51   1.300442 A    
C70   C76   1.423791 A    
N23   O38   1.301330 A    
C25   H7    1.083665 S    
N23   O37   1.300186 A    
O10   C5    1.277135 A    
C40   H8    1.083009 S    
N21   C101  1.449868 S    
O25   Cr6   1.913299 S    
C52   C53   1.400326 A    
C108  H67   1.110132 S    
C76   C94   1.495281 S    
O20   C96   1.275000 A    
N27   H46   1.031478 S    
C58   C62   1.402154 A    
C1    O3    1.272686 A    
O8    C4    1.275039 A    
N1    C27   1.355773 A    
C79   C80   1.391690 A    
C99   H32   1.111270 S    
C98   H29   1.111482 S    
N38   O53   1.301201 A    
