data_mof_unit_1921.cif
_audit_creation_date              2012-12-10T18:09:52-0500
_audit_creation_method            fapswitch 2.2
_symmetry_space_group_name_H-M    P1
_symmetry_Int_Tables_number       1
_space_group_crystal_system       triclinic
_cell_length_a                    10.769141
_cell_length_b                    12.538624
_cell_length_c                    13.207493
_cell_angle_alpha                 82.993787
_cell_angle_beta                  88.519777
_cell_angle_gamma                 101.697133
_cell_volume                      1730.98704555

loop_
_atom_site_label
_atom_site_type_symbol
_atom_type_description
_atom_site_fract_x
_atom_site_fract_y
_atom_site_fract_z
_atom_type_partial_charge
C1    C     C_R   0.471935 0.439802 0.691075 0.931661
C2    C     C_R   0.419188 0.451757 0.973321 -0.010810
C3    C     C_R   0.416938 0.483071 0.867115 -0.010176
C4    C     C_R   0.741658 0.501502 0.492555 0.908728
C5    C     C_R   0.452102 0.535911 0.036110 0.141441
C6    C     C_R   0.496382 0.645547 0.990838 0.031978
C7    C     C_R   0.464473 0.675757 0.892152 -0.225728
C8    C     C_R   0.410623 0.594443 0.834252 0.252440
C9    C     C_R   0.449258 0.514858 0.141715 -0.311261
C10   C     C_R   0.591394 0.689347 0.147565 0.608923
C11   C     C_R   0.428838 0.404449 0.799605 -0.385336
C12   C     C_3   0.122178 0.504938 0.493326 -0.019110
C13   C     C_R   0.340525 0.089056 0.341116 -0.348341
C14   C     C_R   0.625173 0.791406 0.643240 -0.114072
C15   C     C_R   0.633114 0.889142 0.685601 0.006954
C16   C     C_R   0.517593 0.560075 0.308468 0.912308
C17   C     C_R   0.574733 0.970597 0.637868 0.644199
C18   C     C_R   0.522288 0.959232 0.541385 -0.171569
C19   C     C_R   0.524603 0.860918 0.499785 0.056116
C20   C     C_R   0.469984 0.040567 0.482279 -0.024414
C21   C     C_R   0.404896 0.013727 0.393030 0.028367
C22   C     C_R   0.419197 0.918275 0.351629 0.134646
C23   C     C_3   0.100587 0.608534 0.416491 0.256378
C24   C     C_R   0.505737 0.859240 0.395940 0.195673
C25   C     C_R   0.486785 0.149468 0.502946 -0.064984
C26   C     C_R   0.355519 0.193565 0.369157 0.742574
C27   C     C_R   0.258515 0.501649 0.497243 0.872824
C28   C     C_3   0.904919 0.384229 0.472096 0.006849
C29   C     C_3   0.048978 0.395735 0.457167 -0.394527
C30   C     C_3   0.952802 0.589546 0.398947 0.634073
C31   C     C_3   0.928860 0.527625 0.596115 -0.114399
C32   C     C_3   0.878013 0.500862 0.488802 -0.045394
C33   C     C_3   0.835003 0.322808 0.387294 -0.720419
C34   C     C_3   0.067611 0.509761 0.603580 -0.047621
C35   C     C_3   0.903403 0.697825 0.380773 -0.779603
C36   C     C_3   0.149768 0.721263 0.458159 -0.932081
C37   C     C_3   0.326768 0.626026 0.752146 -0.827478
C38   C     C_3   0.368408 0.893319 0.249540 -0.878741
C39   C     C_3   0.700942 0.906104 0.782226 -0.795437
C40   C     C_3   0.628068 0.874177 0.333472 -0.721127
C41   C     C_3   0.176519 0.618479 0.312332 -0.721108
C42   C     C_3   0.840290 0.471143 0.690743 -0.822752
C43   C     C_3   0.082297 0.409401 0.681230 -0.856550
C44   C     C_R   0.569771 0.721619 0.045991 -0.257836
C45   C     C_R   0.518050 0.591720 0.198596 -0.189838
C46   C     C_R   0.410713 0.292560 0.839520 0.553942
C47   C     C_R   0.393246 0.260464 0.944361 0.612860
C48   C     C_R   0.402030 0.339023 0.011061 -0.375483
F1    F     F_    0.693126 0.744583 0.190536 -0.697884
F2    F     F_    0.414256 0.214025 0.777854 -0.576504
F3    F     F_    0.377865 0.152777 0.982204 -0.620424
F4    F     F_    0.297775 0.268473 0.317618 -0.686087
F5    F     F_    0.566979 0.056770 0.688838 -0.637414
F6    F     F_    0.931091 0.546431 0.307593 -0.670203
H1    H     H_    0.122502 0.582941 0.633079 0.173180
H2    H     H_    0.073992 0.321779 0.500438 0.200894
H3    H     H_    0.077327 0.393094 0.376403 0.232079
H4    H     H_    0.931582 0.616180 0.598803 0.160599
H5    H     H_    0.799695 0.377432 0.327676 0.300063
H6    H     H_    0.895660 0.275846 0.349461 0.228840
H7    H     H_    0.751378 0.260519 0.421674 0.212081
H8    H     H_    0.806401 0.681074 0.352419 0.284586
H9    H     H_    0.902150 0.738266 0.450865 0.196445
H10   H     H_    0.961508 0.755754 0.318875 0.253440
H11   H     H_    0.251767 0.737752 0.471864 0.284705
H12   H     H_    0.472618 0.761562 0.863263 0.177521
H13   H     H_    0.140155 0.791559 0.401602 0.249040
H14   H     H_    0.098808 0.730583 0.528988 0.214145
H15   H     H_    0.289483 0.554806 0.713298 0.238822
H16   H     H_    0.245185 0.653008 0.786769 0.223048
H17   H     H_    0.378639 0.694054 0.695860 0.258751
H18   H     H_    0.411909 0.960675 0.188687 0.278854
H19   H     H_    0.390225 0.815490 0.229212 0.240197
H20   H     H_    0.263768 0.884335 0.252008 0.241290
H21   H     H_    0.736147 0.832057 0.813585 0.218760
H22   H     H_    0.783407 0.976095 0.766243 0.260409
H23   H     H_    0.617387 0.801767 0.008726 0.172839
H24   H     H_    0.636001 0.925240 0.840853 0.270418
H25   H     H_    0.689753 0.954328 0.343713 0.199657
H26   H     H_    0.681026 0.809779 0.358913 0.280570
H27   H     H_    0.611329 0.878444 0.251049 0.280482
H28   H     H_    0.156633 0.542259 0.275962 0.249806
H29   H     H_    0.152477 0.684739 0.257389 0.253308
H30   H     H_    0.280291 0.639381 0.321710 0.210420
H31   H     H_    0.885952 0.491679 0.762226 0.249147
H32   H     H_    0.751026 0.502083 0.691941 0.241664
H33   H     H_    0.814953 0.380693 0.692857 0.254014
H34   H     H_    0.394690 0.438224 0.180130 0.232382
H35   H     H_    0.177775 0.390081 0.673617 0.227608
H36   H     H_    0.070729 0.427445 0.760723 0.250662
H37   H     H_    0.012394 0.333867 0.671619 0.256691
H38   H     H_    0.400996 0.309745 0.091425 0.213815
H39   H     H_    0.873792 0.327663 0.543712 0.174770
H40   H     H_    0.285016 0.070510 0.275999 0.201388
H41   H     H_    0.548383 0.181274 0.559799 0.237180
H42   H     H_    0.662744 0.724918 0.682507 0.184439
N1    N     N_R   0.433240 0.222190 0.444680 -0.172894
N2    N     N_R   0.566070 0.776970 0.554790 -0.141087
O1    O     O_R   0.468120 0.366740 0.627160 -0.543477
O2    O     O_R   0.510770 0.544830 0.662520 -0.626735
O3    O     O_R   0.663880 0.410950 0.482330 -0.625329
O4    O     O_R   0.706530 0.589040 0.517700 -0.645393
O5    O     O_R   0.489230 0.455170 0.337480 -0.581445
O6    O     O_R   0.531880 0.633260 0.372840 -0.612066
O7    O     O_R   0.293470 0.410960 0.482300 -0.586652
O8    O     O_R   0.336120 0.589050 0.517670 -0.642159
Zn1   Zn    Zn3+2 0.471520 0.381090 0.476390 1.016128
Zn2   Zn    Zn3+2 0.528480 0.618910 0.523610 0.913875

loop_
_geom_bond_atom_site_label_1
_geom_bond_atom_site_label_2
_ccdc_geom_bond_type
O3    Zn1   S    
C9    C45   A    
C31   C42   S    
C37   H15   S    
C12   C29   S    
C1    C11   S    
C1    O1    A    
C36   H13   S    
C7    C8    A    
C30   F6    S    
C12   C23   S    
C43   H35   S    
C30   C35   S    
C31   H4    S    
C28   C29   S    
C9    H34   S    
C5    C6    A    
C20   C25   A    
C27   O7    A    
C41   H29   S    
N2    Zn2   S    
C18   C19   A    
C16   O6    A    
C47   C48   A    
C4    O4    A    
C40   H26   S    
O4    Zn2   S    
C35   H10   S    
C42   H32   S    
C39   H21   S    
C34   H1    S    
C33   H5    S    
C6    C44   A    
C37   H16   S    
C1    O2    A    
C14   H42   S    
C19   N2    A    
C14   N2    A    
C38   H18   S    
O2    Zn2   S    
C43   H36   S    
C12   C27   S    
C10   C44   A    
C23   C30   S    
C28   C32   S    
C40   H25   S    
C3    C8    A    
C36   H11   S    
C47   F3    S    
C27   O8    A    
C2    C48   A    
C41   H30   S    
C43   H37   S    
C28   H39   S    
C39   H24   S    
C5    C9    A    
C26   F4    S    
O7    Zn1   S    
C16   O5    A    
C31   C32   S    
C4    O3    A    
C10   C45   A    
C17   C18   A    
C31   C34   S    
C13   C21   A    
C42   H31   S    
C39   H22   S    
C15   C39   S    
C4    C32   S    
C25   N1    A    
C29   H3    S    
C28   C33   S    
C25   H41   S    
C33   H6    S    
C37   H17   S    
C22   C24   A    
C13   C26   A    
C2    C5    A    
C8    C37   S    
C12   C34   S    
C17   F5    S    
O6    Zn2   S    
C38   H20   S    
C15   C17   A    
C46   C47   A    
C44   H23   S    
C40   H27   S    
C34   C43   S    
C16   C45   S    
O5    Zn1   S    
C36   H14   S    
C6    C7    A    
C29   H2    S    
O1    Zn1   S    
C46   F2    S    
C23   C41   S    
C13   H40   S    
C2    C3    A    
C7    H12   S    
C30   C32   S    
O8    Zn2   S    
C41   H28   S    
C24   C40   S    
C19   C24   A    
C35   H8    S    
C18   C20   A    
C3    C11   A    
C26   N1    A    
N1    Zn1   S    
C20   C21   A    
C33   H7    S    
C23   C36   S    
C48   H38   S    
C14   C15   A    
C11   C46   A    
C35   H9    S    
C42   H33   S    
C21   C22   A    
C10   F1    S    
C38   H19   S    
C22   C38   S    
