data_mof_unit_2733.cif
_audit_creation_date              2012-12-10T20:46:34-0500
_audit_creation_method            fapswitch 2.2
_symmetry_space_group_name_H-M    P1
_symmetry_Int_Tables_number       1
_space_group_crystal_system       triclinic
_cell_length_a                    10.382824
_cell_length_b                    8.927492
_cell_length_c                    8.119655
_cell_angle_alpha                 89.924853
_cell_angle_beta                  102.255279
_cell_angle_gamma                 90.147185
_cell_volume                      735.477794381

loop_
_atom_site_label
_atom_site_type_symbol
_atom_type_description
_atom_site_fract_x
_atom_site_fract_y
_atom_site_fract_z
_atom_type_partial_charge
C1    C     C_R   0.500143 0.217998 0.500116 0.928650
C2    C     C_1   0.499630 0.934775 0.499854 -0.199826
C3    C     C_3   0.932808 0.687812 0.790628 0.062817
C4    C     C_3   0.857310 0.829026 0.718590 -0.369878
C5    C     C_3   0.796275 0.907513 0.850274 -0.911676
C6    C     C_3   0.071897 0.708289 0.250659 0.048412
C7    C     C_3   0.102499 0.821945 0.395295 -0.325571
C8    C     C_3   0.147289 0.971406 0.334960 -0.986031
C9    C     C_R   0.499046 0.781975 0.499679 0.938083
C10   C     C_R   0.255361 0.499042 0.432516 0.736357
C11   C     C_R   0.744610 0.501015 0.567593 0.766698
C12   C     C_2   0.111716 0.480701 0.402413 0.404162
C13   C     C_2   0.888328 0.488117 0.598868 0.363131
C14   C     C_2   0.068933 0.374022 0.495230 -0.176448
C15   C     C_2   0.933786 0.373892 0.519837 -0.168539
C16   C     C_1   0.500018 0.065185 0.500143 -0.210114
H1    H     H_    0.869615 0.281924 0.466083 0.104015
H2    H     H_    0.994049 0.758349 0.151480 0.164202
H3    H     H_    0.157426 0.689703 0.191263 0.145054
H4    H     H_    0.012136 0.840479 0.444599 0.247369
H5    H     H_    0.180830 0.779109 0.499395 0.223229
H6    H     H_    0.234046 0.955095 0.277165 0.274481
H7    H     H_    0.175358 0.048668 0.443678 0.261421
H8    H     H_    0.066290 0.023170 0.240737 0.266752
H9    H     H_    0.137031 0.295169 0.569855 0.106622
H10   H     H_    0.023582 0.724920 0.879561 0.154735
H11   H     H_    0.877322 0.618944 0.866713 0.161590
H12   H     H_    0.925950 0.908288 0.675611 0.212236
H13   H     H_    0.778317 0.800204 0.608339 0.216776
H14   H     H_    0.726654 0.831240 0.895919 0.280841
H15   H     H_    0.741362 0.007987 0.793384 0.265256
H16   H     H_    0.874376 0.944197 0.958371 0.249916
N1    N     N_1   0.500020 0.500000 0.073650 -0.027639
N2    N     N_1   0.499980 0.500000 0.926350 -0.028921
O1    O     O_R   0.499990 0.285340 0.636850 -0.610057
O2    O     O_3   0.019242 0.573250 0.300022 -0.627158
O3    O     O_R   0.500010 0.714660 0.363150 -0.611581
O4    O     O_R   0.500010 0.285340 0.363150 -0.605841
O5    O     O_R   0.499990 0.714660 0.636850 -0.605929
O6    O     O_R   0.317810 0.500000 0.585760 -0.605384
O7    O     O_R   0.682190 0.500000 0.414240 -0.592338
O8    O     O_R   0.317820 0.500000 0.312020 -0.614107
O9    O     O_R   0.682180 0.500000 0.687980 -0.623876
O10   O     O_3   0.973850 0.605375 0.662566 -0.641154
Zn1   Zn    Zn3+2 0.499990 0.500000 0.682780 0.974827
Zn2   Zn    Zn3+2 0.500010 0.500000 0.317220 0.984434

loop_
_geom_bond_atom_site_label_1
_geom_bond_atom_site_label_2
_ccdc_geom_bond_type
C8    H6    S    
O7    Zn2   S    
N2    Zn1   S    
C11   O9    A    
C6    C7    S    
C6    H3    S    
C10   O8    A    
C11   C13   S    
C4    H13   S    
O5    Zn1   S    
C5    H16   S    
C9    O3    A    
N1    N2    T    
C7    C8    S    
C1    C16   S    
C13   O10   S    
N1    Zn2   S    
O9    Zn1   S    
C10   C12   S    
C1    O4    A    
C3    H11   S    
C8    H8    S    
C6    O2    S    
C7    H4    S    
C13   C15   D    
C14   H9    S    
O6    Zn1   S    
C6    H2    S    
C3    O10   S    
O4    Zn2   S    
C12   O2    S    
C3    C4    S    
O1    Zn1   S    
C9    O5    A    
C8    H7    S    
C2    C16   T    
C1    O1    A    
C10   O6    A    
C5    H14   S    
O8    Zn2   S    
C11   O7    A    
C15   H1    S    
C14   C15   S    
C4    H12   S    
O3    Zn2   S    
C7    H5    S    
C2    C9    S    
C3    H10   S    
C12   C14   D    
C4    C5    S    
C5    H15   S    
