data_mof_unit_4365.cif
_audit_creation_date              2012-12-10T19:07:01-0500
_audit_creation_method            fapswitch 2.2
_symmetry_space_group_name_H-M    P1
_symmetry_Int_Tables_number       1
_space_group_crystal_system       triclinic
_cell_length_a                    27.788488
_cell_length_b                    10.814261
_cell_length_c                    9.540782
_cell_angle_alpha                 90.068955
_cell_angle_beta                  89.815497
_cell_angle_gamma                 90.196569
_cell_volume                      2867.08534103

loop_
_atom_site_label
_atom_site_type_symbol
_atom_type_description
_atom_site_fract_x
_atom_site_fract_y
_atom_site_fract_z
_atom_type_partial_charge
C1    C     C_R   0.498978 0.262374 0.499968 0.804309
C2    C     C_R   0.278952 0.429676 0.605877 -0.158214
C3    C     C_R   0.253219 0.495258 0.504983 0.297507
C4    C     C_R   0.101365 0.491664 0.518053 -0.048438
C5    C     C_R   0.126873 0.383165 0.486131 -0.080949
C6    C     C_R   0.101729 0.272564 0.466058 -0.122107
C7    C     C_R   0.127011 0.601334 0.546938 -0.013786
C8    C     C_R   0.354389 0.498379 0.501236 -0.052048
C9    C     C_R   0.645524 0.499219 0.501012 -0.034319
C10   C     C_R   0.974182 0.388817 0.465815 0.039222
C11   C     C_R   0.974350 0.595464 0.574458 0.041352
C12   C     C_R   0.407484 0.499653 0.500231 0.838214
C13   C     C_R   0.948999 0.492774 0.518880 0.076921
C14   C     C_R   0.948014 0.300371 0.388040 -0.225748
C15   C     C_R   0.898068 0.304261 0.380441 -0.144502
C16   C     C_R   0.872556 0.399235 0.446415 -0.018560
C17   C     C_R   0.897985 0.494947 0.513967 -0.046788
C18   C     C_R   0.872401 0.593380 0.575364 -0.022073
C19   C     C_R   0.821905 0.592378 0.571577 0.536268
C20   C     C_R   0.822081 0.402653 0.443617 0.534846
C21   C     C_R   0.720523 0.459676 0.622815 -0.104419
C22   C     C_R   0.670357 0.459875 0.621012 -0.217973
C23   C     C_R   0.499318 0.737671 0.499990 0.820935
C24   C     C_R   0.671811 0.538322 0.383051 -0.217943
C25   C     C_R   0.721995 0.537523 0.384791 -0.100696
C26   C     C_R   0.746428 0.498297 0.504682 0.361722
C27   C     C_R   0.024860 0.380904 0.484723 -0.007283
C28   C     C_R   0.050331 0.490478 0.521681 0.043506
C29   C     C_R   0.025232 0.598855 0.563261 0.052775
C30   C     C_R   0.051579 0.268723 0.470006 0.136418
C31   C     C_R   0.101862 0.708842 0.581632 -0.142344
C32   C     C_R   0.947748 0.691955 0.637648 -0.210249
C33   C     C_R   0.897692 0.690226 0.638953 -0.143976
C34   C     C_R   0.592547 0.499962 0.500013 0.806444
C35   C     C_R   0.051946 0.707710 0.590353 -0.204556
C36   C     C_R   0.498951 0.064028 0.625736 0.078194
C37   C     C_R   0.494300 0.129319 0.500560 -0.079619
C38   C     C_R   0.483562 0.064219 0.376838 -0.209510
C39   C     C_R   0.483830 0.935210 0.376801 -0.227631
C40   C     C_R   0.495057 0.870779 0.500319 -0.089042
C41   C     C_R   0.499861 0.936741 0.625292 0.111811
C42   C     C_3   0.538466 0.933268 0.734716 -0.052567
C43   C     C_3   0.536732 0.074117 0.736368 -0.502008
C44   C     C_R   0.525047 0.588147 0.073621 0.259488
C45   C     C_R   0.177380 0.386554 0.481186 0.554534
C46   C     C_R   0.471877 0.420116 0.074590 -0.062778
C47   C     C_R   0.471909 0.420031 0.925665 -0.074180
C48   C     C_R   0.524998 0.588320 0.926067 0.254173
C49   C     C_3   0.577960 0.609966 0.920083 -0.483191
C50   C     C_3   0.578000 0.608968 0.078655 -0.523725
C51   C     C_R   0.177496 0.600742 0.540914 0.541340
C52   C     C_R   0.277816 0.562333 0.401907 -0.139487
C53   C     C_R   0.328302 0.565098 0.399112 0.078640
C54   C     C_R   0.329266 0.430312 0.604754 0.081201
Cu1   Cu    Cu3+1 0.500000 0.499980 0.640670 0.959139
Cu2   Cu    Cu3+1 0.500000 0.500020 0.359330 0.952353
H1    H     H_    0.257400 0.613023 0.324511 0.148505
H2    H     H_    0.120692 0.794744 0.602642 0.190564
H3    H     H_    0.964754 0.768704 0.690355 0.143404
H4    H     H_    0.653738 0.571361 0.290482 0.148238
H5    H     H_    0.878881 0.766116 0.688838 0.186997
H6    H     H_    0.741943 0.568123 0.293450 0.139255
H7    H     H_    0.035076 0.794928 0.614156 0.147343
H8    H     H_    0.477024 0.112408 0.279309 0.158946
H9    H     H_    0.477302 0.886602 0.279328 0.165024
H10   H     H_    0.526530 0.888988 0.834132 0.158366
H11   H     H_    0.259736 0.377761 0.685512 0.153498
H12   H     H_    0.521978 0.112093 0.835871 0.185475
H13   H     H_    0.570053 0.120702 0.698310 0.198952
H14   H     H_    0.449853 0.353816 0.130606 0.139263
H15   H     H_    0.449943 0.353605 0.869894 0.155359
H16   H     H_    0.597962 0.530823 0.874504 0.215788
H17   H     H_    0.587264 0.701588 0.875360 0.215189
H18   H     H_    0.597487 0.528025 0.121520 0.219216
H19   H     H_    0.587496 0.699838 0.125804 0.197160
H20   H     H_    0.121078 0.186464 0.452608 0.198838
H21   H     H_    0.651069 0.427864 0.712817 0.145333
H22   H     H_    0.739322 0.428938 0.715638 0.138232
H23   H     H_    0.879570 0.232815 0.321681 0.187185
H24   H     H_    0.965693 0.229913 0.327257 0.152787
N1    N     N_R   0.201575 0.494380 0.508071 -0.454086
N2    N     N_R   0.797946 0.497763 0.506657 -0.469848
N3    N     N_R   0.500300 0.500930 0.147930 -0.183790
N4    N     N_R   0.500310 0.500890 0.852020 -0.187964
O1    O     O_R   0.500000 0.319640 0.618810 -0.579212
O2    O     O_2   0.797276 0.311408 0.379354 -0.537360
O3    O     O_2   0.202365 0.705203 0.569221 -0.539387
O4    O     O_2   0.796917 0.685390 0.631477 -0.536743
O5    O     O_R   0.500010 0.319680 0.381230 -0.591509
O6    O     O_R   0.430260 0.500000 0.618780 -0.559969
O7    O     O_R   0.430270 0.500040 0.381190 -0.562709
O8    O     O_R   0.499990 0.680320 0.618770 -0.570164
O9    O     O_R   0.500000 0.680360 0.381190 -0.589757
O10   O     O_R   0.569730 0.499960 0.618810 -0.582004
O11   O     O_R   0.569740 0.500000 0.381220 -0.583281
O12   O     O_2   0.202137 0.283120 0.449007 -0.538804
N5    N     N_3   0.354742 0.359177 0.706982 -0.584807
H25   H     H_    0.343858 0.266893 0.697625 0.224641
H26   H     H_    0.344583 0.390370 0.806512 0.224573
N6    N     N_3   0.584067 0.884117 0.681121 -0.578890
H27   H     H_    0.593840 0.929247 0.588218 0.239647
H28   H     H_    0.610725 0.904115 0.754905 0.229634
N7    N     N_3   0.030310 0.147997 0.482547 -0.607737
H29   H     H_    0.025185 0.110017 0.382963 0.217437
H30   H     H_    0.998356 0.150256 0.540468 0.236913
N8    N     N_3   0.353135 0.637457 0.295037 -0.559391
H31   H     H_    0.328760 0.675518 0.223972 0.221028
H32   H     H_    0.369548 0.711748 0.346607 0.214017

loop_
_geom_bond_atom_site_label_1
_geom_bond_atom_site_label_2
_ccdc_geom_bond_type
C10   C27   A    
Cu2   O11   S    
C44   C48   A    
C21   C26   A    
Cu1   O1    S    
C20   N2    A    
C41   C42   S    
C12   O7    A    
Cu1   Cu2   S    
C44   N3    A    
N5    H25   S    
Cu1   O8    S    
C31   H2    S    
C12   O6    A    
C36   C37   A    
Cu1   O6    S    
Cu1   O10   S    
C5    C6    A    
C9    C22   A    
N8    H31   S    
C23   C40   S    
C18   C19   A    
N5    H26   S    
C53   N8    S    
Cu2   O7    S    
C15   H23   S    
C43   H12   S    
C49   H16   S    
C20   O2    S    
C21   H22   S    
C3    N1    S    
C54   N5    S    
C14   H24   S    
C19   N2    A    
C51   N1    A    
C16   C20   A    
C43   H13   S    
C21   C22   A    
C27   C30   A    
C39   H9    S    
C36   C41   A    
C4    C7    A    
C4    C28   A    
C26   N2    S    
C38   H8    S    
C1    O1    A    
Cu2   O9    S    
C7    C31   A    
C24   C25   A    
C19   O4    S    
C2    C54   A    
C8    C54   A    
C39   C40   A    
C16   C17   A    
C25   C26   A    
C5    C45   A    
C23   O9    A    
C30   N7    S    
C37   C38   A    
C42   N6    S    
C8    C12   S    
N6    H28   S    
C17   C18   A    
N7    H30   S    
C47   N4    A    
C34   O11   A    
C47   H15   S    
C48   C49   S    
C6    C30   A    
C11   C32   A    
C2    H11   S    
C10   C14   A    
C9    C34   S    
C31   C35   A    
C42   C43   S    
C51   O3    S    
N7    H29   S    
C52   C53   A    
Cu2   N3    S    
C44   C50   S    
Cu2   O5    S    
C46   C47   A    
C28   C29   A    
C1    O5    A    
C14   C15   A    
C45   N1    A    
C34   O10   A    
C22   H21   S    
C4    C5    A    
C10   C13   A    
C8    C53   A    
C35   H7    S    
C3    C52   A    
C9    C24   A    
C6    H20   S    
C1    C37   S    
C29   C35   A    
C13   C17   A    
C32   C33   A    
C50   H18   S    
C2    C3    A    
C7    C51   A    
C50   H19   S    
C11   C13   A    
C38   C39   A    
N8    H32   S    
N6    H27   S    
C49   H17   S    
C25   H6    S    
C18   C33   A    
C46   H14   S    
C52   H1    S    
C46   N3    A    
C48   N4    A    
C11   C29   A    
C33   H5    S    
C49   C50   S    
C27   C28   A    
C42   H10   S    
C23   O8    A    
C36   C43   S    
C40   C41   A    
C24   H4    S    
C32   H3    S    
Cu1   N4    S    
C45   O12   S    
C15   C16   A    
