data_mof_unit_1128.cif
_audit_creation_date              2012-12-11T14:08:33-0500
_audit_creation_method            fapswitch 2.2
_symmetry_space_group_name_H-M    P1
_symmetry_Int_Tables_number       1
_space_group_crystal_system       triclinic
_cell_length_a                    28.119708
_cell_length_b                    7.199474
_cell_length_c                    17.176806
_cell_angle_alpha                 89.969162
_cell_angle_beta                  101.303945
_cell_angle_gamma                 89.97882
_cell_volume                      3409.93637507

loop_
_atom_site_label
_atom_site_type_symbol
_atom_type_description
_atom_site_fract_x
_atom_site_fract_y
_atom_site_fract_z
_atom_type_partial_charge
O1    O     O_R   0.000700 0.436510 0.857920 -0.532435
O2    O     O_R   0.999300 0.563490 0.142080 -0.534889
O3    O     O_R   0.999300 0.936510 0.642080 -0.533971
O4    O     O_R   0.000700 0.063490 0.357920 -0.534773
O5    O     O_R   0.930080 0.766380 0.721890 -0.521158
O6    O     O_R   0.069920 0.233620 0.278110 -0.539786
O7    O     O_R   0.069920 0.266380 0.778110 -0.529264
O8    O     O_R   0.930080 0.733620 0.221890 -0.539899
C1    C     C_R   0.910633 0.597890 0.708199 0.738290
C2    C     C_R   0.089495 0.402372 0.292169 0.735485
C3    C     C_R   0.089291 0.097883 0.792295 0.737064
C4    C     C_R   0.910566 0.902458 0.207301 0.735268
O9    O     O_R   0.996180 0.766230 0.862310 -0.542163
O10   O     O_R   0.003820 0.233770 0.137690 -0.540748
O11   O     O_R   0.003820 0.266230 0.637690 -0.544233
O12   O     O_R   0.996180 0.733770 0.362310 -0.541088
O13   O     O_R   0.065870 0.936460 0.783500 -0.536806
O14   O     O_R   0.934130 0.063540 0.216500 -0.521962
O15   O     O_R   0.934130 0.436460 0.716500 -0.538608
O16   O     O_R   0.065870 0.563540 0.283500 -0.520596
C5    C     C_R   0.998461 0.596459 0.894467 0.781109
C6    C     C_R   0.001711 0.403585 0.105585 0.781887
C7    C     C_R   0.001530 0.096502 0.605519 0.773884
C8    C     C_R   0.998328 0.903531 0.394439 0.782617
O17   O     O_3   0.022790 0.603020 0.723980 -0.379960
O18   O     O_3   0.977210 0.396980 0.276020 -0.374636
O19   O     O_3   0.977210 0.103020 0.776020 -0.373581
O20   O     O_3   0.022790 0.896980 0.223980 -0.373468
V1    V     V_3+5 0.995770 0.877900 0.754830 1.499741
V2    V     V_3+5 0.004230 0.122100 0.245170 1.505079
V3    V     V_3+5 0.004230 0.377900 0.745170 1.484091
V4    V     V_3+5 0.995770 0.622100 0.254830 1.504470
C9    C     C_2   0.001664 0.082636 0.519495 -0.302338
C10   C     C_2   0.998141 0.917384 0.480448 -0.294938
C11   C     C_2   0.998333 0.582617 0.980477 -0.296808
C12   C     C_2   0.001907 0.417420 0.019594 -0.289559
H1    H     H_    0.004511 0.211329 0.487701 0.151432
H2    H     H_    0.995292 0.788688 0.512239 0.153278
H3    H     H_    0.995452 0.711306 0.012206 0.151769
H4    H     H_    0.004793 0.288728 0.987869 0.155169
C13   C     C_R   0.682246 0.872545 0.031227 0.662387
C14   C     C_R   0.313249 0.947119 0.968231 0.709473
C15   C     C_R   0.317774 0.375069 0.466052 0.664009
C16   C     C_R   0.686436 0.465398 0.533692 0.681936
O21   O     O_2   0.712278 0.821433 0.982882 -0.457305
O22   O     O_2   0.281243 0.903567 0.014235 -0.453710
O23   O     O_2   0.287625 0.331962 0.515375 -0.466778
O24   O     O_2   0.718300 0.435361 0.485847 -0.450357
N1    N     N_R   0.701238 0.900406 0.109772 -0.577144
N2    N     N_R   0.295932 0.001826 0.891801 -0.534305
N3    N     N_R   0.299152 0.391658 0.386678 -0.572084
N4    N     N_R   0.703733 0.497775 0.612456 -0.562109
C17   C     C_R   0.671837 0.928347 0.163445 0.619466
C18   C     C_R   0.326394 0.031367 0.840160 0.655489
C19   C     C_R   0.329169 0.405269 0.332985 0.608268
C20   C     C_R   0.673183 0.502876 0.665280 0.565123
C21   C     C_R   0.778266 0.758463 0.181611 -0.031999
C22   C     C_R   0.215831 0.898672 0.815537 -0.018455
C23   C     C_R   0.221412 0.255078 0.314273 -0.032150
C24   C     C_R   0.784310 0.396572 0.687222 -0.022996
C25   C     C_R   0.828998 0.764558 0.204609 -0.165823
C26   C     C_R   0.165982 0.929247 0.791717 -0.275282
C27   C     C_R   0.170641 0.263238 0.292392 -0.165790
C28   C     C_R   0.834334 0.426980 0.709783 -0.165635
C29   C     C_R   0.831841 0.055522 0.133629 0.115013
C30   C     C_R   0.171361 0.216381 0.867529 0.075830
C31   C     C_R   0.168984 0.554575 0.363322 0.115498
C32   C     C_R   0.827675 0.719279 0.637298 0.124466
C33   C     C_R   0.780521 0.053756 0.112414 0.226706
C34   C     C_R   0.222072 0.189405 0.890620 0.179673
C35   C     C_R   0.220364 0.551157 0.383359 0.224209
C36   C     C_R   0.776838 0.692949 0.616234 0.217110
C37   C     C_R   0.753615 0.904632 0.135620 0.214534
C38   C     C_R   0.244352 0.030153 0.865374 0.285246
C39   C     C_R   0.246768 0.399902 0.360261 0.216782
C40   C     C_R   0.755202 0.529862 0.639629 0.219819
C41   C     C_R   0.600618 0.917636 0.055917 -0.092299
C42   C     C_R   0.395791 0.956196 0.944187 -0.068966
C43   C     C_R   0.399693 0.407815 0.441623 -0.091254
C44   C     C_R   0.603929 0.456121 0.557234 -0.071588
C45   C     C_R   0.632120 0.895495 0.001378 -0.090740
C46   C     C_R   0.363759 0.937394 0.998239 -0.100456
C47   C     C_R   0.367680 0.402717 0.495887 -0.090706
C48   C     C_R   0.636043 0.463399 0.503146 -0.093762
C49   C     C_R   0.612400 0.898846 0.919111 0.245583
C50   C     C_R   0.383443 0.909335 0.079725 0.256236
C51   C     C_R   0.386560 0.430307 0.577569 0.250701
C52   C     C_R   0.616621 0.473777 0.420977 0.263856
C53   C     C_R   0.620449 0.933693 0.138489 -0.044210
C54   C     C_R   0.376543 0.990911 0.862743 -0.084218
C55   C     C_R   0.380490 0.401637 0.358628 -0.052350
C56   C     C_R   0.622967 0.464833 0.640064 -0.091360
C57   C     C_R   0.856502 0.910216 0.181447 -0.154414
C58   C     C_R   0.143018 0.084747 0.817164 -0.105659
C59   C     C_R   0.143679 0.409443 0.316468 -0.153189
C60   C     C_R   0.856768 0.584645 0.684907 -0.155121
C61   C     C_R   0.478753 0.948227 0.916979 0.030838
C62   C     C_R   0.517503 0.928907 0.082130 0.072733
C63   C     C_R   0.520830 0.434287 0.582456 0.029456
C64   C     C_R   0.483112 0.416483 0.416807 0.070001
C65   C     C_R   0.466248 0.922992 0.053941 0.008442
C66   C     C_R   0.529894 0.927277 0.944816 0.010504
C67   C     C_R   0.534051 0.437391 0.445484 0.005084
C68   C     C_R   0.469627 0.430954 0.553403 0.006371
C69   C     C_R   0.447028 0.941880 0.971689 0.076049
C70   C     C_R   0.549241 0.924504 0.027586 0.077976
C71   C     C_R   0.552833 0.442071 0.528363 0.070481
C72   C     C_R   0.450918 0.418445 0.470629 0.073890
C73   C     C_R   0.458221 0.973380 0.835786 -0.146874
C74   C     C_R   0.537918 0.946074 0.163480 -0.251907
C75   C     C_R   0.541084 0.424751 0.664313 -0.148936
C76   C     C_R   0.463419 0.390150 0.335636 -0.250237
C77   C     C_R   0.408192 0.989447 0.807813 -0.015671
C78   C     C_R   0.587923 0.953281 0.191989 -0.021022
C79   C     C_R   0.591030 0.439532 0.693799 -0.018224
C80   C     C_R   0.413514 0.388280 0.305729 -0.017841
O25   O     O_2   0.307960 0.103133 0.768101 -0.504654
O26   O     O_2   0.692722 0.946978 0.240507 -0.455152
O27   O     O_2   0.691602 0.547623 0.741302 -0.498264
O28   O     O_2   0.309032 0.421950 0.255521 -0.455105
C81   C     C_R   0.562575 0.912203 0.892428 -0.154350
C82   C     C_R   0.433483 0.899711 0.105795 -0.226637
C83   C     C_R   0.436338 0.445883 0.604690 -0.146557
C84   C     C_R   0.566777 0.461234 0.393590 -0.228466
H5    H     H_    0.144503 0.828276 0.753131 0.148431
H6    H     H_    0.847427 0.652739 0.240690 0.190808
H7    H     H_    0.856372 0.324504 0.746646 0.191227
H8    H     H_    0.151708 0.152152 0.256576 0.192097
H9    H     H_    0.480383 0.980541 0.791576 0.157113
H10   H     H_    0.515346 0.966602 0.206794 0.103865
H11   H     H_    0.518693 0.395921 0.707089 0.160653
H12   H     H_    0.486482 0.367684 0.293193 0.111606
H13   H     H_    0.550790 0.908555 0.829080 0.138595
H14   H     H_    0.445727 0.870854 0.168013 0.139577
H15   H     H_    0.447842 0.476520 0.666879 0.139405
H16   H     H_    0.554532 0.479400 0.330631 0.137237
I1    I     I_    0.870439 0.270558 0.085576 -0.301324
I2    I     I_    0.138332 0.447315 0.915314 -0.316435
I3    I     I_    0.131220 0.771908 0.411656 -0.329407
I4    I     I_    0.859631 0.953594 0.589877 -0.290308
I5    I     I_    0.741990 0.276496 0.044366 -0.234090
I6    I     I_    0.266620 0.386892 0.964908 -0.131185
I7    I     I_    0.259512 0.775945 0.448925 -0.271896
I8    I     I_    0.731178 0.899116 0.548916 -0.223707
I9    I     I_    0.652995 0.913279 0.826340 -0.234503
I10   I     I_    0.343156 0.900486 0.173327 -0.171163
I11   I     I_    0.344474 0.479212 0.666475 -0.208836
I12   I     I_    0.657195 0.538288 0.331571 -0.183654
C85   C     C_2   0.235829 0.725135 0.787580 0.513680
H17   H     H_    0.212385 0.635163 0.746073 0.057241
O29   O     O_2   0.277892 0.677869 0.810658 -0.503774
C86   C     C_2   0.751405 0.596350 0.204487 0.570088
H18   H     H_    0.712941 0.580286 0.181009 0.062558
O30   O     O_2   0.771978 0.477000 0.249401 -0.488208
C87   C     C_2   0.763040 0.222890 0.712479 0.540220
H19   H     H_    0.725073 0.190339 0.691563 0.060235
O31   O     O_2   0.787810 0.112373 0.756948 -0.499201
C88   C     C_2   0.247412 0.091850 0.290137 0.569825
H20   H     H_    0.285759 0.071873 0.313418 0.059467
O32   O     O_2   0.226189 0.975713 0.244292 -0.489379
C89   C     C_2   0.390458 0.985415 0.720171 0.468048
H21   H     H_    0.354921 0.930833 0.694806 0.140601
O33   O     O_2   0.416213 0.036927 0.674758 -0.537117
C90   C     C_2   0.602599 0.981236 0.278859 0.534463
H22   H     H_    0.585414 0.899660 0.318806 0.015005
O34   O     O_2   0.630366 0.105062 0.306323 -0.461396
C91   C     C_2   0.608271 0.411848 0.780659 0.467209
H23   H     H_    0.643557 0.352042 0.803663 0.130481
O35   O     O_2   0.582471 0.451321 0.827781 -0.528474
C92   C     C_2   0.399503 0.356609 0.219038 0.526498
H24   H     H_    0.414846 0.239273 0.193018 0.008114
O36   O     O_2   0.375260 0.468993 0.175188 -0.460386

loop_
_geom_bond_atom_site_label_1
_geom_bond_atom_site_label_2
_ccdc_geom_bond_type
O17   V3    S    
C51   C83   A    
N1    C17   A    
C22   C26   A    
O1    C5    A    
C62   C74   A    
O19   V1    S    
O13   V1    S    
O3    C7    A    
C11   C12   D    
C14   C46   A    
C76   C80   A    
C52   C84   A    
O15   V3    S    
C89   H21   S    
O4    V2    S    
C91   O35   D    
C68   C83   A    
C42   C54   A    
O7    C3    A    
C44   C71   A    
C41   C53   A    
C32   C60   A    
C51   I11   S    
C42   C69   A    
O9    V1    S    
C41   C70   A    
N3    C39   S    
C18   C54   A    
C85   O29   D    
O4    C8    A    
C23   C88   S    
C25   C57   A    
C31   C35   A    
C87   O31   D    
C92   H24   S    
C33   I5    S    
C21   C86   S    
C27   C59   A    
O1    V3    S    
C15   C47   A    
C55   C80   A    
O2    V4    S    
C14   O22   S    
C54   C77   A    
C21   C37   A    
O3    V1    S    
C34   C38   A    
C82   H14   S    
C19   C55   A    
C1    O15   A    
C3    O13   A    
C2    O16   A    
C7    C9    S    
O2    C6    A    
C33   C37   A    
C25   H6    S    
O14   V2    S    
O8    C4    A    
C66   C81   A    
C31   I3    S    
C74   C78   A    
C1    C60   S    
C61   C66   A    
C22   C85   S    
C73   C77   A    
C30   C58   A    
C29   I1    S    
C16   N4    A    
O11   C7    A    
C63   C68   A    
C63   C75   A    
O12   C8    A    
C31   C59   A    
O10   V2    S    
C67   C84   A    
C50   I10   S    
C13   N1    A    
C89   O33   D    
C27   H8    S    
O5    V1    S    
C19   O28   S    
C65   C69   A    
C34   I6    S    
C64   C72   A    
C84   H16   S    
C80   C92   S    
C44   C48   A    
O8    V4    S    
C12   H4    S    
O7    V3    S    
C28   C60   A    
C91   H23   S    
C17   O26   S    
N4    C40   S    
C46   C50   A    
C24   C40   A    
C64   C67   A    
C8    C10   S    
C83   H15   S    
C44   C56   A    
C11   H3    S    
O5    C1    A    
C61   C73   A    
C42   C46   A    
C78   C90   S    
C30   I2    S    
C41   C45   A    
C32   C36   A    
C28   H7    S    
C13   C45   A    
C9    C10   D    
C52   I12   S    
O9    C5    A    
C36   C40   A    
N2    C18   A    
C76   H12   S    
C21   C25   A    
N2    C38   S    
C14   N2    A    
C5    C11   S    
C3    C58   S    
C75   H11   S    
O6    V2    S    
C86   O30   D    
C64   C76   A    
C26   C58   A    
C17   C53   A    
C88   H20   S    
C20   O27   S    
N1    C37   S    
C4    C57   S    
C32   I4    S    
C79   C91   S    
C23   C39   A    
C68   C72   A    
C63   C71   A    
C22   C38   A    
C35   I7    S    
O16   V4    S    
C36   I8    S    
C53   C78   A    
C90   H22   S    
C10   H2    S    
C43   C55   A    
C48   C52   A    
C49   I9    S    
C16   C48   A    
C47   C51   A    
O6    C2    A    
C26   H5    S    
C75   C79   A    
O11   V3    S    
O18   V4    S    
O12   V4    S    
C62   C65   A    
C6    C12   S    
C23   C27   A    
C65   C82   A    
C62   C70   A    
C24   C28   A    
C49   C81   A    
O10   C6    A    
C90   O34   D    
C24   C87   S    
C61   C69   A    
C85   H17   S    
C35   C39   A    
C88   O32   D    
C15   N3    A    
C30   C34   A    
C92   O36   D    
C2    C59   S    
C29   C33   A    
O20   V2    S    
C29   C57   A    
C43   C72   A    
C74   H10   S    
N3    C19   A    
C50   C82   A    
C56   C79   A    
C9    H1    S    
C77   C89   S    
C43   C47   A    
N4    C20   A    
C20   C56   A    
C86   H18   S    
C18   O25   S    
C66   C70   A    
C4    O14   A    
C87   H19   S    
C13   O21   S    
C67   C71   A    
C81   H13   S    
C73   H9    S    
C15   O23   S    
C45   C49   A    
C16   O24   S    
