data_mof_unit_636.cif
_audit_creation_date              2013-03-05T16:45:52-0500
_audit_creation_method            fapswitch 2.2
_symmetry_space_group_name_H-M    P1
_symmetry_Int_Tables_number       1
_space_group_crystal_system       triclinic
_cell_length_a                    18.365567
_cell_length_b                    18.318295
_cell_length_c                    18.167185
_cell_angle_alpha                 61.118306
_cell_angle_beta                  61.082159
_cell_angle_gamma                 60.972672
_cell_volume                      4424.68403608

loop_
_atom_site_label
_atom_site_type_symbol
_atom_site_description
_atom_site_fract_x
_atom_site_fract_y
_atom_site_fract_z
_atom_type_partial_charge
Zn1   Zn    Zn3+2 0.206620 0.206630 0.380140 1.082658
Zn2   Zn    Zn3+2 0.793380 0.793370 0.619860 1.063476
Zn3   Zn    Zn3+2 0.206630 0.380140 0.206620 1.035876
Zn4   Zn    Zn3+2 0.793370 0.619860 0.793380 1.066132
Zn5   Zn    Zn3+2 0.380140 0.206620 0.206630 1.068025
Zn6   Zn    Zn3+2 0.619860 0.793380 0.793370 1.058965
Zn7   Zn    Zn3+2 0.206620 0.206620 0.206620 1.165193
Zn8   Zn    Zn3+2 0.793380 0.793380 0.793380 1.194436
O1    O     O_3   0.250000 0.250000 0.250000 -0.534442
O2    O     O_3   0.750000 0.750000 0.750000 -0.533212
O3    O     O_R   0.305080 0.134200 0.134200 -0.578087
O4    O     O_R   0.694920 0.865800 0.865800 -0.583222
O5    O     O_R   0.134200 0.134200 0.305080 -0.591822
O6    O     O_R   0.865800 0.865800 0.694920 -0.577437
O7    O     O_R   0.134200 0.305080 0.134200 -0.604870
O8    O     O_R   0.865800 0.694920 0.865800 -0.593093
O9    O     O_R   0.134200 0.305090 0.426530 -0.625825
O10   O     O_R   0.865800 0.694910 0.573470 -0.629876
O11   O     O_R   0.305090 0.426530 0.134200 -0.623117
O12   O     O_R   0.694910 0.573470 0.865800 -0.637037
O13   O     O_R   0.426530 0.134200 0.305090 -0.641190
O14   O     O_R   0.573470 0.865800 0.694910 -0.644863
O15   O     O_R   0.134190 0.426530 0.134200 -0.647072
O16   O     O_R   0.865810 0.573470 0.865800 -0.637781
O17   O     O_R   0.426530 0.134200 0.134190 -0.627710
O18   O     O_R   0.573470 0.865800 0.865810 -0.634339
O19   O     O_R   0.134200 0.134190 0.426530 -0.594987
O20   O     O_R   0.865800 0.865810 0.573470 -0.635661
O21   O     O_R   0.426530 0.305080 0.134210 -0.653048
O22   O     O_R   0.573470 0.694920 0.865790 -0.640591
O23   O     O_R   0.305080 0.134210 0.426530 -0.622901
O24   O     O_R   0.694920 0.865790 0.573470 -0.649253
O25   O     O_R   0.134210 0.426530 0.305080 -0.656392
O26   O     O_R   0.865790 0.573470 0.694920 -0.658119
C1    C     C_R   0.389004 0.108766 0.111074 0.929000
C2    C     C_R   0.611764 0.888529 0.892225 0.895052
C3    C     C_R   0.106163 0.112676 0.390030 0.881377
C4    C     C_R   0.891875 0.887907 0.610205 0.937932
C5    C     C_R   0.115583 0.388807 0.104035 0.867147
C6    C     C_R   0.890525 0.610792 0.890263 0.935923
C7    C     C_R   0.110764 0.390160 0.389785 0.823403
C8    C     C_R   0.889386 0.609876 0.610280 0.881652
C9    C     C_R   0.390269 0.389704 0.110976 0.906820
C10   C     C_R   0.609757 0.610357 0.889760 0.911204
C11   C     C_R   0.389603 0.111211 0.390284 0.855135
C12   C     C_R   0.610859 0.889415 0.609223 0.853717
C13   C     C_R   0.069777 0.015527 0.320313 0.362543
C14   C     C_R   0.831378 0.065746 0.621299 0.330677
C15   C     C_R   0.044650 0.319949 0.035787 0.330420
C16   C     C_R   0.040774 0.661763 0.855746 0.317175
C17   C     C_R   0.378053 0.928530 0.177066 0.314720
C18   C     C_R   0.668465 0.012633 0.904397 0.337000
C19   C     C_R   0.097597 0.941676 0.296395 -0.207133
C20   C     C_R   0.817727 0.132321 0.648312 -0.183271
C21   C     C_R   0.974627 0.291504 0.062019 -0.154417
C22   C     C_R   0.092001 0.694997 0.860719 -0.131096
C23   C     C_R   0.365036 0.850781 0.197584 -0.146439
C24   C     C_R   0.675436 0.096509 0.868860 -0.216569
C25   C     C_R   0.091413 0.861598 0.361606 -0.154557
C26   C     C_R   0.888830 0.152770 0.632018 -0.176025
C27   C     C_R   0.889855 0.351918 0.068891 -0.186072
C28   C     C_R   0.147792 0.640324 0.910710 -0.173781
C29   C     C_R   0.421876 0.795921 0.146240 -0.165676
C30   C     C_R   0.600610 0.169463 0.880105 -0.188626
C31   C     C_R   0.047160 0.856954 0.450767 0.294957
C32   C     C_R   0.972501 0.117252 0.576697 0.305569
C33   C     C_R   0.876352 0.442665 0.035716 0.280237
C34   C     C_R   0.153542 0.551789 0.955555 0.286933
C35   C     C_R   0.492898 0.817601 0.072921 0.252945
C36   C     C_R   0.519226 0.158071 0.937883 0.264522
C37   C     C_R   0.012822 0.933843 0.474277 -0.077120
C38   C     C_R   0.981853 0.066459 0.531242 -0.039617
C39   C     C_R   0.949625 0.471323 0.000761 -0.082087
C40   C     C_R   0.084360 0.525060 0.972052 -0.047559
C41   C     C_R   0.496838 0.904236 0.040180 -0.042378
C42   C     C_R   0.513292 0.071324 0.981241 -0.064145
C43   C     C_R   0.042746 0.005465 0.411509 -0.024342
C44   C     C_R   0.917775 0.025520 0.569982 -0.052991
C45   C     C_R   0.025195 0.409374 0.023217 -0.072605
C46   C     C_R   0.024856 0.582088 0.922173 -0.048605
C47   C     C_R   0.438318 0.961449 0.092746 -0.047141
C48   C     C_R   0.583213 0.003768 0.948575 -0.036390
C49   C     C_R   0.943689 0.947229 0.553317 -0.060830
C50   C     C_R   0.043689 0.061489 0.444950 -0.078168
C51   C     C_R   0.953400 0.556387 0.940699 -0.079052
C52   C     C_R   0.077855 0.440382 0.029979 -0.044323
C53   C     C_R   0.563851 0.931526 0.961722 -0.066911
C54   C     C_R   0.443886 0.048072 0.059043 -0.079717
C55   C     C_R   0.186490 0.666447 0.207597 0.194061
C56   C     C_R   0.812154 0.337977 0.796183 0.174134
C57   C     C_R   0.662008 0.189607 0.174670 0.192816
C58   C     C_R   0.336656 0.811710 0.830406 0.179047
C59   C     C_R   0.238224 0.221813 0.644804 0.164801
C60   C     C_R   0.799651 0.819333 0.325421 0.190042
C61   C     C_R   0.155598 0.610314 0.294241 0.199554
C62   C     C_R   0.845808 0.389439 0.707705 0.186364
C63   C     C_R   0.615129 0.280537 0.144482 0.223816
C64   C     C_R   0.385478 0.720959 0.858626 0.203915
C65   C     C_R   0.316262 0.182829 0.585000 0.179380
C66   C     C_R   0.710990 0.849401 0.378086 0.201899
C67   C     C_R   0.084163 0.585159 0.316376 -0.056041
C68   C     C_R   0.917040 0.415320 0.684645 -0.075526
C69   C     C_R   0.587003 0.313740 0.071016 -0.064851
C70   C     C_R   0.412527 0.686832 0.933101 -0.065656
C71   C     C_R   0.327370 0.103410 0.579840 -0.098570
C72   C     C_R   0.684236 0.917238 0.411403 -0.087662
C73   C     C_R   0.048388 0.610973 0.251374 -0.148522
C74   C     C_R   0.948851 0.395865 0.750555 -0.109195
C75   C     C_R   0.603649 0.256388 0.030453 -0.122813
C76   C     C_R   0.393980 0.743266 0.975639 -0.139884
C77   C     C_R   0.258366 0.069054 0.626264 -0.116342
C78   C     C_R   0.745968 0.952657 0.393455 -0.096773
C79   C     C_R   0.081188 0.663478 0.165288 -0.143334
C80   C     C_R   0.912273 0.349214 0.838373 -0.133418
C81   C     C_R   0.646826 0.166519 0.062456 -0.127104
C82   C     C_R   0.349772 0.832975 0.945090 -0.133389
C83   C     C_R   0.181486 0.107684 0.684508 -0.050228
C84   C     C_R   0.833467 0.921337 0.343722 -0.135986
H1    H     H_    0.051221 0.684174 0.116615 0.223882
H2    H     H_    0.938183 0.334443 0.888152 0.210018
H3    H     H_    0.658777 0.123373 0.030180 0.206224
H4    H     H_    0.336293 0.875359 0.979055 0.211354
H5    H     H_    0.131232 0.076411 0.723171 0.264162
H6    H     H_    0.879763 0.950225 0.330274 0.212017
C85   C     C_R   0.147165 0.695070 0.143781 0.249402
C86   C     C_R   0.847665 0.315676 0.860798 0.247531
C87   C     C_R   0.678003 0.132689 0.133050 0.244520
C88   C     C_R   0.318805 0.867378 0.874320 0.263504
C89   C     C_R   0.172581 0.180704 0.698774 0.226439
C90   C     C_R   0.860467 0.856697 0.307343 0.242678
C91   C     C_R   0.985480 0.590741 0.464910 -0.120748
C92   C     C_R   0.015211 0.409320 0.535469 -0.154764
C93   C     C_R   0.591409 0.464106 0.981054 -0.101711
C94   C     C_R   0.408477 0.536536 0.023841 -0.088718
C95   C     C_R   0.468936 0.991723 0.588432 -0.105641
C96   C     C_R   0.533973 0.010729 0.408448 -0.106321
C97   C     C_R   0.945724 0.552569 0.555291 -0.026795
C98   C     C_R   0.055036 0.447437 0.444997 -0.033454
C99   C     C_R   0.552386 0.555312 0.946942 -0.029949
C100  C     C_R   0.447582 0.445032 0.055955 -0.031856
C101  C     C_R   0.556791 0.946183 0.550867 -0.042876
C102  C     C_R   0.445758 0.056213 0.446534 -0.054150
C103  C     C_R   0.960739 0.460518 0.591023 0.097049
C104  C     C_R   0.040440 0.539424 0.409540 0.083432
C105  C     C_R   0.459437 0.591732 0.968533 0.084829
C106  C     C_R   0.540466 0.408741 0.035077 0.074955
C107  C     C_R   0.590539 0.957573 0.458767 0.101992
C108  C     C_R   0.414292 0.048892 0.536717 0.090601
H7    H     H_    0.879409 0.193516 0.665537 0.239461
H8    H     H_    0.118419 0.803738 0.342498 0.258222
H9    H     H_    0.196110 0.663577 0.902301 0.259127
H10   H     H_    0.835162 0.328261 0.097692 0.272059
H11   H     H_    0.606414 0.234733 0.846518 0.257530
H12   H     H_    0.417141 0.731035 0.170719 0.257940
H13   H     H_    0.974698 0.661135 0.436799 0.194187
H14   H     H_    0.025578 0.339184 0.563482 0.207265
H15   H     H_    0.662274 0.435224 0.965920 0.190250
H16   H     H_    0.337472 0.565915 0.041050 0.183310
H17   H     H_    0.443142 0.986023 0.658108 0.184367
H18   H     H_    0.559814 0.017383 0.338540 0.183151
N1    N     N_R   0.051257 0.100886 0.254934 0.221767
O27   O     O_R   0.983406 0.166728 0.277104 -0.377984
O28   O     O_R   0.098431 0.111369 0.171801 -0.344996
N2    N     N_R   0.755927 0.049359 0.635150 0.193480
O29   O     O_R   0.747522 0.047009 0.569250 -0.371468
O30   O     O_R   0.688379 0.054105 0.707099 -0.404664
N3    N     N_R   0.134125 0.265091 0.003885 0.257429
O31   O     O_R   0.197338 0.298812 0.959509 -0.260650
O32   O     O_R   0.149418 0.190657 0.997813 -0.252637
N4    N     N_R   0.023784 0.698523 0.773581 0.223204
O33   O     O_R   0.033249 0.646105 0.738114 -0.350796
O34   O     O_R   0.020244 0.779759 0.724724 -0.333268
N5    N     N_R   0.340900 0.963139 0.248286 0.191839
O35   O     O_R   0.393226 0.968934 0.272874 -0.370588
O36   O     O_R   0.262178 0.963644 0.303478 -0.407267
N6    N     N_R   0.746841 0.937671 0.912026 0.239569
O37   O     O_R   0.743873 0.869637 0.984254 -0.270075
O38   O     O_R   0.823006 0.941248 0.852008 -0.340000
H19   H     H_    0.122075 0.946576 0.227240 0.244352
H20   H     H_    0.752358 0.166336 0.684521 0.214931
H21   H     H_    0.985354 0.223019 0.076760 0.255962
H22   H     H_    0.099689 0.758463 0.815224 0.244778
H23   H     H_    0.317278 0.826959 0.259810 0.226524
H24   H     H_    0.739469 0.104635 0.834253 0.233238
N7    N     N_R   0.050424 0.771985 0.516592 0.213883
O39   O     O_R   0.035201 0.715928 0.506038 -0.369773
O40   O     O_R   0.095088 0.742322 0.568676 -0.239966
N8    N     N_R   0.046588 0.113290 0.587606 0.233344
O41   O     O_R   0.043410 0.178628 0.600848 -0.433739
O42   O     O_R   0.110935 0.039027 0.599113 -0.334364
N9    N     N_R   0.787925 0.503351 0.047789 0.225720
O43   O     O_R   0.727368 0.485198 0.048312 -0.322590
O44   O     O_R   0.764816 0.569393 0.072603 -0.285880
N10   N     N_R   0.236904 0.489006 0.966630 0.229726
O45   O     O_R   0.266632 0.414016 0.954172 -0.274241
O46   O     O_R   0.292556 0.515179 0.964214 -0.374078
N11   N     N_R   0.567942 0.746528 0.045139 0.199715
O47   O     O_R   0.645047 0.737304 0.039693 -0.295196
O48   O     O_R   0.557060 0.679869 0.048352 -0.373706
N12   N     N_R   0.442603 0.234984 0.944413 0.203745
O49   O     O_R   0.448098 0.306352 0.937533 -0.338406
O50   O     O_R   0.372004 0.239013 0.940258 -0.264972
N13   N     N_R   0.170138 0.759631 0.058835 0.224538
O51   O     O_R   0.173992 0.753306 0.988696 -0.404368
O52   O     O_R   0.163969 0.834939 0.055317 -0.243979
N14   N     N_R   0.820615 0.256946 0.948616 0.220091
O53   O     O_R   0.803217 0.276535 0.016477 -0.429686
O54   O     O_R   0.836022 0.175806 0.959492 -0.244614
N15   N     N_R   0.727809 0.040971 0.160221 0.208704
O55   O     O_R   0.703373 0.982530 0.165026 -0.337137
O56   O     O_R   0.806918 0.018171 0.159747 -0.263162
N16   N     N_R   0.267205 0.958540 0.849259 0.210697
O57   O     O_R   0.297344 0.018177 0.832355 -0.361704
O58   O     O_R   0.183477 0.979543 0.866170 -0.246311
N17   N     N_R   0.101531 0.206575 0.773166 0.230318
O59   O     O_R   0.035310 0.177484 0.812531 -0.322362
O60   O     O_R   0.111363 0.242249 0.813310 -0.304652
N18   N     N_R   0.948860 0.832321 0.249243 0.217794
O61   O     O_R   0.013447 0.818627 0.270820 -0.429184
O62   O     O_R   0.962347 0.846775 0.166937 -0.234647
N19   N     N_R   0.260333 0.690524 0.183519 0.205404
O63   O     O_R   0.334920 0.629017 0.190373 -0.357071
O64   O     O_R   0.248572 0.770642 0.172478 -0.378011
N20   N     N_R   0.739533 0.311781 0.821377 0.211268
O65   O     O_R   0.750499 0.228683 0.846885 -0.407991
O66   O     O_R   0.665630 0.370898 0.809457 -0.330486
N21   N     N_R   0.689391 0.154710 0.250074 0.219621
O67   O     O_R   0.630508 0.161112 0.326485 -0.334634
O68   O     O_R   0.771768 0.134359 0.238401 -0.290560
N22   N     N_R   0.308542 0.847983 0.755181 0.212850
O69   O     O_R   0.225070 0.876851 0.765908 -0.298422
O70   O     O_R   0.366318 0.841800 0.678279 -0.331578
N23   N     N_R   0.227260 0.301113 0.652424 0.279568
O71   O     O_R   0.160888 0.371671 0.636640 -0.339018
O72   O     O_R   0.287023 0.305095 0.668158 -0.204628
N24   N     N_R   0.828810 0.747449 0.295174 0.223789
O73   O     O_R   0.853344 0.760551 0.210817 -0.260687
O74   O     O_R   0.819429 0.671974 0.352528 -0.330712
N25   N     N_R   0.194935 0.580882 0.360014 0.259439
O75   O     O_R   0.215346 0.635081 0.367724 -0.264920
O76   O     O_R   0.211673 0.499206 0.411897 -0.294804
N26   N     N_R   0.808414 0.414838 0.641664 0.246300
O77   O     O_R   0.787509 0.358780 0.637576 -0.317356
O78   O     O_R   0.792586 0.495215 0.586780 -0.322860
N27   N     N_R   0.597946 0.338816 0.187051 0.257724
O79   O     O_R   0.659505 0.333333 0.207699 -0.235073
O80   O     O_R   0.520248 0.396683 0.206806 -0.306768
N28   N     N_R   0.406805 0.663954 0.812545 0.257197
O81   O     O_R   0.348882 0.670615 0.786010 -0.258580
O82   O     O_R   0.485569 0.607315 0.793656 -0.312978
N29   N     N_R   0.382851 0.224601 0.529152 0.240549
O83   O     O_R   0.464637 0.180439 0.525605 -0.292677
O84   O     O_R   0.361478 0.307816 0.482147 -0.244562
N30   N     N_R   0.648215 0.812794 0.395606 0.247061
O85   O     O_R   0.646068 0.800430 0.332012 -0.219876
O86   O     O_R   0.592228 0.792547 0.474967 -0.305496
H25   H     H_    0.993990 0.591281 0.267966 0.220263
H26   H     H_    0.001420 0.418043 0.733994 0.233576
H27   H     H_    0.581753 0.281498 0.974592 0.229432
H28   H     H_    0.414336 0.717607 0.032515 0.235815
H29   H     H_    0.265849 0.009778 0.620060 0.254031
H30   H     H_    0.726018 0.004893 0.418406 0.237376

loop_
_geom_bond_atom_site_label_1
_geom_bond_atom_site_label_2
_geom_bond_distance
_ccdc_geom_bond_type
C67   C73   1.399732 A    
N10   O46   1.299350 A    
N13   O51   1.299814 A    
Zn8   O2    1.927136 S    
C31   N7    1.427235 S    
C75   H27   1.080485 S    
C81   H3    1.082384 S    
C32   N8    1.430720 S    
C4    C49   1.456715 S    
Zn2   O10   1.946439 S    
C59   C65   1.412387 A    
Zn3   O15   1.933573 S    
N25   O75   1.300841 A    
O26   C8    1.281554 A    
C23   H23   1.083362 S    
C73   H25   1.082822 S    
C63   N27   1.439427 S    
N20   O65   1.297603 A    
N22   O70   1.301203 A    
N1    O27   1.301951 A    
C19   C25   1.386005 A    
C58   C64   1.416028 A    
N29   O83   1.300881 A    
N3    O32   1.301500 A    
C55   C85   1.412694 A    
N5    O35   1.301622 A    
C64   N28   1.440528 S    
N13   O52   1.300061 A    
Zn5   O1    1.976168 S    
C60   C90   1.412023 A    
C82   H4    1.083208 S    
C91   C97   1.394630 A    
C47   C54   1.435841 A    
Zn2   O24   1.950859 S    
N2    O29   1.301547 A    
O19   C3    1.280519 A    
C15   N3    1.443972 S    
C62   C68   1.411275 A    
O10   C8    1.296256 A    
C94   C100  1.399322 A    
C80   C86   1.396229 A    
C67   C104  1.476492 S    
C33   N9    1.435390 S    
C89   N17   1.437674 S    
N29   O84   1.301140 A    
C79   C85   1.400006 A    
N4    O33   1.301842 A    
Zn3   O25   1.939436 S    
C34   C40   1.427433 A    
C48   C53   1.415619 A    
Zn6   O14   1.941666 S    
C58   C88   1.411492 A    
Zn1   O23   1.950857 S    
C81   C87   1.398126 A    
N24   O73   1.300425 A    
C24   H24   1.079279 S    
C74   C80   1.389417 A    
C17   N5    1.435407 S    
C77   H29   1.081226 S    
Zn7   O3    1.953954 S    
N30   O86   1.301283 A    
O12   C10   1.300790 A    
C79   H1    1.082980 S    
C74   H26   1.081343 S    
C44   C49   1.411627 A    
C87   N15   1.430814 S    
C32   C38   1.423771 A    
C29   C35   1.394540 A    
N8    O42   1.301899 A    
O11   C9    1.301077 A    
N12   O49   1.301131 A    
C66   N30   1.438526 S    
C57   C63   1.413866 A    
C38   C44   1.410039 A    
C18   C24   1.395231 A    
C3    C50   1.491424 S    
Zn3   O11   1.957894 S    
C17   C23   1.398560 A    
C30   C36   1.397544 A    
O4    C2    1.266149 A    
C83   C89   1.401680 A    
N23   O71   1.299889 A    
C17   C47   1.432089 A    
O5    C3    1.281819 A    
C82   C88   1.396518 A    
C96   C102  1.400190 A    
C13   C19   1.400843 A    
C92   C103  1.387949 A    
Zn7   O7    1.955773 S    
N10   O45   1.299727 A    
C97   C103  1.416063 A    
C26   C32   1.400907 A    
Zn8   O8    1.955775 S    
C40   C46   1.429013 A    
N27   O79   1.300991 A    
O21   C9    1.289422 A    
C8    C97   1.459437 S    
C35   N11   1.438740 S    
O22   C10   1.288616 A    
N22   O69   1.300632 A    
O13   C11   1.290412 A    
C59   C89   1.416486 A    
C19   H19   1.082861 S    
N1    O28   1.297808 A    
C85   N13   1.431678 S    
C23   C29   1.384007 A    
C12   C101  1.463689 S    
C37   C49   1.417354 A    
N5    O36   1.299896 A    
C2    C53   1.484019 S    
C24   C30   1.387858 A    
C65   C71   1.411416 A    
Zn4   O26   1.939434 S    
C63   C69   1.412717 A    
C64   C70   1.414125 A    
C95   H17   1.085356 S    
C28   H9    1.079397 S    
C95   C101  1.394219 A    
N9    O43   1.301243 A    
C96   C107  1.392829 A    
C102  C108  1.408370 A    
Zn1   O1    1.958014 S    
C16   N4    1.433352 S    
N26   O78   1.301278 A    
C42   C48   1.401028 A    
N3    O31   1.299616 A    
C101  C107  1.418658 A    
N14   O53   1.298412 A    
C41   C47   1.430583 A    
C20   C26   1.388135 A    
Zn8   O6    1.961545 S    
C43   C50   1.432593 A    
C59   N23   1.432935 S    
C31   C37   1.422181 A    
C71   C108  1.469235 S    
C30   H11   1.081327 S    
Zn6   O22   1.955705 S    
C16   C22   1.398236 A    
C72   C107  1.481813 S    
C15   C45   1.418713 A    
C16   C46   1.429489 A    
N8    O41   1.300216 A    
Zn4   O12   1.957892 S    
C6    C51   1.480043 S    
C55   C61   1.412760 A    
C14   C20   1.397643 A    
N17   O59   1.301611 A    
N9    O44   1.300164 A    
C76   H28   1.078061 S    
C46   C51   1.440987 A    
Zn3   O1    1.971838 S    
C65   N29   1.438308 S    
C78   C84   1.389141 A    
N19   O63   1.301159 A    
C1    C54   1.466918 S    
C27   C33   1.401702 A    
N18   O62   1.300127 A    
N21   O67   1.300993 A    
O20   C4    1.263617 A    
Zn8   O4    1.953956 S    
C39   C51   1.418705 A    
C21   H21   1.082123 S    
N15   O55   1.301222 A    
C56   C86   1.410259 A    
C9    C100  1.474247 S    
N25   O76   1.301163 A    
C84   H6    1.083271 S    
C40   C52   1.417464 A    
N11   O48   1.300407 A    
C68   C74   1.401563 A    
N23   O72   1.301133 A    
O7    C5    1.276693 A    
C7    C98   1.461561 S    
C38   C50   1.439236 A    
C57   C87   1.412321 A    
O8    C6    1.277919 A    
Zn5   O17   1.929512 S    
C33   C39   1.423676 A    
C41   C53   1.417201 A    
N6    O37   1.301914 A    
O14   C12   1.298432 A    
C93   H15   1.084226 S    
O17   C1    1.284102 A    
C93   C99   1.398711 A    
C10   C99   1.471961 S    
N27   O80   1.301152 A    
C14   C44   1.424145 A    
C11   C102  1.462632 S    
C22   C28   1.379557 A    
C68   C103  1.478794 S    
C13   C43   1.422563 A    
C36   C42   1.425952 A    
Zn4   O2    1.971841 S    
O6    C4    1.278786 A    
Zn2   O2    1.958011 S    
Zn5   O21   1.955705 S    
C76   C82   1.388401 A    
C37   C43   1.404302 A    
N28   O81   1.300795 A    
C70   C76   1.399078 A    
C42   C54   1.416668 A    
C61   N25   1.440458 S    
C25   H8    1.081043 S    
O18   C2    1.304556 A    
C62   N26   1.440524 S    
Zn7   O1    1.927138 S    
C94   C105  1.391157 A    
C18   N6    1.437944 S    
C99   C105  1.418804 A    
C36   N12   1.433641 S    
C57   N21   1.430545 S    
C58   N22   1.431107 S    
C88   N16   1.428668 S    
O24   C12   1.282943 A    
C70   C105  1.479180 S    
C20   H20   1.080966 S    
N18   O61   1.299814 A    
C29   H12   1.081850 S    
N16   O58   1.300041 A    
C39   C45   1.397264 A    
C15   C21   1.403642 A    
N20   O66   1.301203 A    
C56   N20   1.427290 S    
Zn6   O2    1.976169 S    
Zn2   O20   1.946414 S    
C84   C90   1.397847 A    
C56   C62   1.412539 A    
Zn6   O18   1.929509 S    
C14   N2    1.437728 S    
C66   C72   1.413646 A    
Zn1   O9    1.946440 S    
C91   H13   1.084756 S    
C28   C34   1.394916 A    
C69   C75   1.399476 A    
C96   H18   1.084769 S    
O25   C7    1.282390 A    
N30   O85   1.301209 A    
O3    C1    1.278735 A    
N28   O82   1.301574 A    
C83   H5    1.082039 S    
N26   O77   1.300502 A    
N19   O64   1.300278 A    
N21   O68   1.300608 A    
C98   C104  1.416437 A    
C25   C31   1.397269 A    
C55   N19   1.430183 S    
C60   N24   1.432727 S    
N7    O39   1.300015 A    
C18   C48   1.423889 A    
C72   C78   1.401654 A    
C22   H22   1.083001 S    
C86   N14   1.429569 S    
Zn4   O16   1.933571 S    
C21   C27   1.391994 A    
N2    O30   1.300758 A    
O16   C6    1.288695 A    
N24   O74   1.301081 A    
C35   C41   1.426737 A    
N14   O54   1.300210 A    
C26   H7    1.081556 S    
C94   H16   1.084015 S    
C60   C66   1.414993 A    
C71   C77   1.393195 A    
N11   O47   1.300796 A    
C92   H14   1.081939 S    
C27   H10   1.079639 S    
O9    C7    1.296665 A    
N17   O60   1.301455 A    
N7    O40   1.298028 A    
C75   C81   1.389750 A    
C77   C83   1.386648 A    
C13   N1    1.432449 S    
C100  C106  1.418841 A    
Zn7   O5    1.961543 S    
Zn5   O13   1.941663 S    
N16   O57   1.300954 A    
N12   O50   1.299485 A    
C95   C108  1.388542 A    
O23   C11   1.290558 A    
Zn1   O19   1.946413 S    
N15   O56   1.299181 A    
C73   C79   1.389934 A    
C34   N10   1.439706 S    
C93   C106  1.392286 A    
N4    O34   1.300947 A    
C5    C52   1.490362 S    
C90   N18   1.429531 S    
C92   C98   1.395834 A    
O15   C5    1.292544 A    
C45   C52   1.410136 A    
C80   H2    1.082742 S    
C91   C104  1.387467 A    
C61   C67   1.411640 A    
C69   C106  1.477804 S    
C78   H30   1.083260 S    
N6    O38   1.301822 A    
