data_mof_unit_1052.cif
_audit_creation_date              2013-03-05T16:07:57-0500
_audit_creation_method            fapswitch 2.2
_symmetry_space_group_name_H-M    P1
_symmetry_Int_Tables_number       1
_space_group_crystal_system       triclinic
_cell_length_a                    6.944716
_cell_length_b                    14.568627
_cell_length_c                    15.985861
_cell_angle_alpha                 90.264335
_cell_angle_beta                  89.892685
_cell_angle_gamma                 90.081899
_cell_volume                      1617.34743761

loop_
_atom_site_label
_atom_site_type_symbol
_atom_site_description
_atom_site_fract_x
_atom_site_fract_y
_atom_site_fract_z
_atom_type_partial_charge
O1    O     O_R   0.494380 0.415640 0.412830 -0.583510
O2    O     O_R   0.823960 0.405540 0.586560 -0.604757
O3    O     O_R   0.994270 0.584360 0.587170 -0.602790
C1    C     C_R   0.655038 0.383457 0.615235 0.924537
O4    O     O_R   0.824090 0.404620 0.413450 -0.596870
O5    O     O_R   0.994400 0.583430 0.412820 -0.573766
C2    C     C_R   0.655174 0.381563 0.385358 1.066191
O6    O     O_R   0.494250 0.416570 0.587180 -0.598640
O7    O     O_3   0.660800 0.558670 0.500000 -0.273576
V1    V     V_3+5 0.935650 0.489120 0.500000 1.169081
O8    O     O_R   0.324110 0.594460 0.413440 -0.578794
C3    C     C_R   0.155548 0.616346 0.384353 0.974621
O9    O     O_R   0.323980 0.595380 0.586550 -0.601749
C4    C     C_R   0.154773 0.617373 0.615764 0.871040
V2    V     V_3+5 0.435660 0.510880 0.500000 1.175657
O10   O     O_3   0.160640 0.441330 0.500000 -0.282820
C5    C     C_3   0.930291 0.702763 0.714729 -0.332472
H1    H     H_    0.842918 0.726444 0.660644 0.151227
H2    H     H_    0.866035 0.637104 0.736792 0.169591
C6    C     C_3   0.917394 0.774933 0.785488 -0.314497
H3    H     H_    0.838049 0.745888 0.839631 0.204397
H4    H     H_    0.830238 0.834103 0.763272 0.140456
H5    H     H_    0.149636 0.806813 0.604381 0.147091
H6    H     H_    0.126633 0.912088 0.711467 0.159927
C7    C     C_3   0.228247 0.780857 0.660050 -0.353578
C8    C     C_3   0.256078 0.652498 0.764471 -0.470151
C9    C     C_3   0.142923 0.686857 0.686960 0.076830
H7    H     H_    0.408815 0.639283 0.746928 0.144709
H8    H     H_    0.195336 0.585673 0.785310 0.182956
C10   C     C_3   0.121488 0.808956 0.811559 -0.046213
C11   C     C_3   0.213936 0.852415 0.732310 -0.430969
C12   C     C_3   0.250065 0.725186 0.836456 0.274128
H9    H     H_    0.399942 0.751276 0.844838 0.071367
H10   H     H_    0.381847 0.772385 0.641606 0.157216
H11   H     H_    0.360476 0.878961 0.746998 0.156043
C13   C     C_R   0.270969 0.750213 0.186154 0.207104
C14   C     C_R   0.117509 0.811723 0.180100 -0.229989
C15   C     C_R   0.968400 0.803521 0.239439 -0.062782
H12   H     H_    0.846484 0.849480 0.237292 0.143158
C16   C     C_R   0.981817 0.740178 0.305702 -0.071832
H13   H     H_    0.869153 0.738846 0.352473 0.117139
C17   C     C_R   0.143915 0.682725 0.314238 -0.269033
C18   C     C_R   0.283558 0.686310 0.250580 0.104814
C19   C     C_3   0.497442 0.698560 0.255834 0.175213
C20   C     C_3   0.481249 0.769019 0.185791 -0.570762
H14   H     H_    0.544884 0.726641 0.317139 0.058999
H15   H     H_    0.547976 0.749128 0.125164 0.266377
H16   H     H_    0.514066 0.840173 0.206763 0.175589
C21   C     C_R   0.494360 0.316970 0.742498 0.175884
C22   C     C_R   0.647368 0.317376 0.685276 -0.222485
C23   C     C_R   0.798420 0.254756 0.698872 -0.147861
H17   H     H_    0.920115 0.252770 0.656693 0.138200
C24   C     C_R   0.787438 0.189525 0.763460 -0.155180
H18   H     H_    0.901475 0.139510 0.769322 0.127928
C25   C     C_R   0.624796 0.184808 0.816135 -0.223223
C26   C     C_R   0.483074 0.252166 0.806167 0.184575
C27   C     C_3   0.271083 0.241504 0.795563 -0.472092
C28   C     C_3   0.283322 0.312600 0.726500 -0.460564
H19   H     H_    0.189480 0.265698 0.851318 0.206188
H20   H     H_    0.231981 0.171892 0.772464 0.183781
H21   H     H_    0.209743 0.378113 0.742505 0.194574
H22   H     H_    0.250416 0.284511 0.663361 0.193187
C29   C     C_R   0.525063 0.325323 0.247565 0.287867
C30   C     C_R   0.647760 0.313972 0.316013 -0.285302
C31   C     C_R   0.773458 0.238257 0.314014 -0.296758
H23   H     H_    0.873946 0.228292 0.364945 0.164523
C32   C     C_R   0.762227 0.171122 0.249783 0.395237
C33   C     C_R   0.626507 0.181018 0.183516 -0.381768
C34   C     C_R   0.516248 0.261533 0.182869 0.112672
C35   C     C_3   0.305044 0.276021 0.171683 -0.451919
C36   C     C_3   0.314831 0.345458 0.243013 -0.426030
H24   H     H_    0.270980 0.307679 0.110342 0.203927
H25   H     H_    0.235216 0.323243 0.299885 0.194126
H26   H     H_    0.285521 0.416899 0.222591 0.227544
O11   O     O_R   0.771490 0.080820 0.910070 -0.603637
O12   O     O_R   0.441590 0.092730 0.083780 -0.582412
O13   O     O_R   0.271350 0.913900 0.084390 -0.588971
C37   C     C_R   0.610764 0.112876 0.114382 0.996022
O14   O     O_R   0.441780 0.091820 0.910670 -0.603537
O15   O     O_R   0.271540 0.912980 0.910040 -0.601453
C38   C     C_R   0.610986 0.113916 0.881988 0.923436
O16   O     O_R   0.771300 0.081740 0.084420 -0.559753
O17   O     O_3   0.604960 0.938700 0.997240 -0.276862
V3    V     V_3+5 0.330090 0.008230 0.997220 1.196395
O18   O     O_R   0.941820 0.901930 0.910640 -0.599448
C39   C     C_R   0.110699 0.879584 0.881804 0.901665
O19   O     O_R   0.941630 0.902840 0.083750 -0.588215
C40   C     C_R   0.110039 0.881315 0.112928 1.078641
V4    V     V_3+5 0.830090 0.986410 0.997190 1.205720
O20   O     O_3   0.105080 0.055990 0.997200 -0.265328
N1    N     N_R   0.600122 0.615190 0.230782 0.260474
O21   O     O_R   0.740106 0.618406 0.176609 -0.361033
O22   O     O_R   0.572609 0.540057 0.272478 -0.431548
N2    N     N_R   0.872601 0.088692 0.258920 0.216118
O23   O     O_R   0.853706 0.040205 0.326578 -0.436201
O24   O     O_R   0.017915 0.072626 0.209658 -0.435956
H27   H     H_    0.219004 0.214320 0.187293 0.246913
N3    N     N_R   0.189325 0.683800 0.915856 0.227859
O25   O     O_R   0.030094 0.636976 0.921386 -0.395849
O26   O     O_R   0.301066 0.689601 0.980918 -0.405978

loop_
_geom_bond_atom_site_label_1
_geom_bond_atom_site_label_2
_geom_bond_distance
_ccdc_geom_bond_type
C28   H22   1.111402 S    
C10   C12   1.566549 S    
O19   C40   1.299304 A    
C8    C12   1.560791 S    
C14   C40   1.481228 S    
O15   V3    2.003961 S    
O12   V3    2.003839 S    
C6    C10   1.557767 S    
C24   H18   1.081412 S    
C8    C9    1.553677 S    
O16   V4    2.005400 S    
C13   C14   1.397181 A    
O12   C37   1.305989 A    
O5    C3    1.299256 A    
O14   V3    2.001941 S    
C27   H19   1.111574 S    
V2    O10   2.160785 S    
C5    C6    1.543342 S    
C26   C27   1.490073 S    
O15   C39   1.298631 A    
O8    V2    2.004941 S    
C29   C34   1.388598 A    
O13   C40   1.298855 A    
C33   C34   1.401807 A    
C31   C32   1.416971 A    
C32   N2    1.433761 S    
C3    C17   1.486118 S    
C35   C36   1.522377 S    
O1    V2    2.003736 S    
C4    C9    1.521871 S    
C10   C39   1.521368 S    
O7    V1    2.162302 S    
C35   H27   1.107840 S    
C1    O6    1.298508 A    
C7    H10   1.113055 S    
C28   H21   1.111832 S    
C16   C17   1.410951 A    
O9    C4    1.303554 A    
N2    O23   1.300866 A    
V3    O20   1.711449 S    
C19   H14   1.110623 S    
C5    H1    1.113566 S    
C20   H15   1.110918 S    
C33   C37   1.486235 S    
C15   H12   1.080877 S    
O17   V4    1.710099 S    
C23   H17   1.080512 S    
C5    C9    1.558486 S    
N1    O21   1.301662 A    
O4    C2    1.300022 A    
O18   V4    2.003528 S    
O11   C38   1.296870 A    
C27   H20   1.111180 S    
O13   V3    2.002683 S    
O18   C39   1.300632 A    
C21   C28   1.489438 S    
C32   C33   1.427191 A    
C1    C22   1.480839 S    
C23   C24   1.408377 A    
O2    C1    1.299262 A    
C18   C19   1.498262 S    
C14   C15   1.408345 A    
N1    O22   1.297908 A    
C37   O16   1.294439 A    
O17   V3    2.162288 S    
C25   C26   1.400666 A    
C22   C23   1.409025 A    
C13   C20   1.485432 S    
N2    O24   1.299750 A    
C19   N1    1.463211 S    
O3    C4    1.296557 A    
C16   H13   1.081431 S    
C29   C36   1.491561 S    
C21   C22   1.400820 A    
O6    V2    2.004243 S    
N3    O26   1.301197 A    
O19   V4    2.004823 S    
C11   H11   1.113247 S    
C25   C38   1.481028 S    
C17   C18   1.405499 A    
C24   C25   1.409362 A    
O2    V1    2.001963 S    
C19   C20   1.526905 S    
C36   H25   1.112340 S    
C20   H16   1.111433 S    
O1    C2    1.297695 A    
C8    H7    1.113465 S    
C7    C11   1.555571 S    
C6    H4    1.113862 S    
O5    V1    2.002610 S    
C36   H26   1.111426 S    
O8    C3    1.301032 A    
C7    C9    1.553619 S    
C21   C26   1.393465 A    
O14   C38   1.301137 A    
C30   C31   1.407869 A    
O9    V2    2.003569 S    
O7    V2    1.710633 S    
H6    C11   1.113240 S    
O4    V1    2.003890 S    
C31   H23   1.083740 S    
O3    V1    2.003849 S    
V1    O10   1.711499 S    
C12   H9    1.115665 S    
C15   C16   1.411364 A    
C27   C28   1.519497 S    
C10   C11   1.556019 S    
C5    H2    1.113487 S    
C12   N3    1.468622 S    
H5    C7    1.112879 S    
C34   C35   1.493352 S    
C2    C30   1.480263 S    
O11   V4    2.004592 S    
C29   C30   1.398659 A    
C6    H3    1.110290 S    
C8    H8    1.112654 S    
N3    O25   1.301548 A    
C13   C18   1.394449 A    
C35   H24   1.111574 S    
V4    O20   2.160805 S    
