data_mof_unit_536.cif
_audit_creation_date              2012-12-11T15:14:46-0500
_audit_creation_method            fapswitch 2.2
_symmetry_space_group_name_H-M    P1
_symmetry_Int_Tables_number       1
_space_group_crystal_system       triclinic
_cell_length_a                    22.165256
_cell_length_b                    7.237366
_cell_length_c                    19.326455
_cell_angle_alpha                 89.988361
_cell_angle_beta                  99.342021
_cell_angle_gamma                 89.992645
_cell_volume                      3059.19284679

loop_
_atom_site_label
_atom_site_type_symbol
_atom_type_description
_atom_site_fract_x
_atom_site_fract_y
_atom_site_fract_z
_atom_type_partial_charge
O1    O     O_R   0.448470 0.506130 0.415700 -0.532219
O2    O     O_R   0.551530 0.006130 0.584300 -0.532342
O3    O     O_R   0.436320 0.174490 0.555800 -0.527487
O4    O     O_R   0.563680 0.674490 0.444200 -0.527361
C1    C     C_R   0.421208 0.344116 0.575172 0.697765
C2    C     C_R   0.578796 0.844124 0.424835 0.697718
O5    O     O_R   0.441350 0.176340 0.414480 -0.532315
O6    O     O_R   0.558650 0.676340 0.585520 -0.532186
O7    O     O_R   0.556600 0.007100 0.441970 -0.522532
O8    O     O_R   0.443400 0.507100 0.558030 -0.522388
C3    C     C_R   0.427380 0.344535 0.388847 0.772324
C4    C     C_R   0.572627 0.844479 0.611151 0.772248
O9    O     O_3   0.537810 0.339550 0.509190 -0.374957
O10   O     O_3   0.462190 0.839550 0.490810 -0.374978
V1    V     V_3+5 0.492990 0.064280 0.498300 1.556647
V2    V     V_3+5 0.507010 0.564280 0.501700 1.557018
C5    C     C_R   0.869638 0.985493 0.694166 0.380659
C6    C     C_R   0.130188 0.482202 0.305931 0.380618
C7    C     C_R   0.886180 0.942226 0.820384 -0.188212
C8    C     C_R   0.113823 0.441869 0.179592 -0.188183
C9    C     C_R   0.590305 0.810428 0.740735 0.077206
C10   C     C_R   0.409842 0.312623 0.259183 0.076980
C11   C     C_R   0.630054 0.774869 0.804259 0.396728
C12   C     C_R   0.370191 0.277990 0.195516 0.396825
C13   C     C_R   0.693521 0.779693 0.806262 0.321910
C14   C     C_R   0.306707 0.281954 0.193439 0.321950
C15   C     C_R   0.719103 0.850611 0.748438 -0.069216
C16   C     C_R   0.280978 0.351055 0.251437 -0.069333
C17   C     C_R   0.678960 0.871599 0.683354 -0.070969
C18   C     C_R   0.321039 0.371009 0.316621 -0.070996
C19   C     C_R   0.782914 0.896760 0.752417 0.043095
C20   C     C_R   0.217106 0.396399 0.247520 0.043125
C21   C     C_R   0.806567 0.937941 0.689546 -0.085627
C22   C     C_R   0.193335 0.435601 0.310476 -0.085610
C23   C     C_R   0.766393 0.930172 0.624419 0.283433
C24   C     C_R   0.233467 0.426826 0.375611 0.283452
C25   C     C_R   0.703894 0.906469 0.622550 -0.152893
C26   C     C_R   0.296003 0.404026 0.377486 -0.152659
C27   C     C_R   0.823346 0.912178 0.817370 -0.270469
C28   C     C_R   0.176710 0.412859 0.182582 -0.270664
C29   C     C_R   0.909184 0.976893 0.758449 0.241595
C30   C     C_R   0.090704 0.474528 0.241590 0.241514
C31   C     C_R   0.614701 0.848187 0.679406 -0.165020
C32   C     C_R   0.385334 0.348530 0.320577 -0.165069
H1    H     H_    0.806859 0.907401 0.866857 0.178093
H2    H     H_    0.193246 0.409531 0.133109 0.178024
H3    H     H_    0.674829 0.910286 0.571810 0.118443
H4    H     H_    0.325022 0.407025 0.428262 0.118157
C33   C     C_3   0.777320 0.840967 0.311553 0.315082
C34   C     C_3   0.222741 0.340787 0.688583 0.315050
C35   C     C_3   0.792498 0.023948 0.277026 -0.255059
C36   C     C_3   0.207534 0.523819 0.723033 -0.255694
H5    H     H_    0.827211 0.126811 0.299947 0.189614
H6    H     H_    0.172793 0.626619 0.700081 0.189458
C37   C     C_1   0.875136 0.941802 0.120800 -0.107181
C38   C     C_1   0.124902 0.441816 0.879253 -0.107114
C39   C     C_1   0.624758 0.852243 0.379215 -0.067709
C40   C     C_1   0.375262 0.352205 0.620816 -0.067673
C41   C     C_3   0.776349 0.737961 0.242355 0.369178
C42   C     C_3   0.223762 0.237918 0.757832 0.369478
C43   C     C_3   0.790927 0.918248 0.206834 0.003668
C44   C     C_3   0.209155 0.418256 0.793276 0.003682
C45   C     C_3   0.706961 0.772273 0.222113 -0.217257
C46   C     C_3   0.293146 0.272317 0.778024 -0.217074
C47   C     C_3   0.708416 0.877175 0.292424 0.006243
C48   C     C_3   0.291640 0.377085 0.707659 0.006240
C49   C     C_3   0.721519 0.956377 0.186144 -0.194533
C50   C     C_3   0.278557 0.456475 0.813921 -0.194336
C51   C     C_3   0.722660 0.059271 0.256834 0.300107
C52   C     C_3   0.277367 0.559237 0.743179 0.300099
C53   C     C_1   0.837026 0.932842 0.159359 0.111643
C54   C     C_1   0.163039 0.432861 0.840729 0.111626
C55   C     C_1   0.662709 0.861234 0.340430 0.171374
C56   C     C_1   0.337327 0.361161 0.659625 0.171394
H7    H     H_    0.698509 0.007010 0.134305 0.186688
H8    H     H_    0.301570 0.507232 0.865730 0.186768
H9    H     H_    0.672367 0.669198 0.199218 0.212843
H10   H     H_    0.327760 0.169271 0.800940 0.212695
O11   O     O_R   0.056650 0.288730 0.942060 -0.522717
O12   O     O_R   0.943350 0.788730 0.057940 -0.522825
O13   O     O_R   0.058660 0.616870 0.085540 -0.531921
O14   O     O_R   0.941340 0.116870 0.914460 -0.531818
C57   C     C_R   0.072719 0.448789 0.111153 0.758736
C58   C     C_R   0.927291 0.948850 0.888833 0.758768
O15   O     O_R   0.063700 0.618520 0.944220 -0.533241
O16   O     O_R   0.936300 0.118520 0.055780 -0.533082
O17   O     O_R   0.948460 0.787610 0.915680 -0.531284
O18   O     O_R   0.051540 0.287610 0.084320 -0.531271
C59   C     C_R   0.078885 0.450230 0.924744 0.713066
C60   C     C_R   0.921123 0.950226 0.075269 0.712952
O19   O     O_3   0.962230 0.453430 0.990860 -0.376032
O20   O     O_3   0.037770 0.953430 0.009140 -0.376143
V3    V     V_3+5 0.007010 0.728750 0.001700 1.531596
V4    V     V_3+5 0.992990 0.228750 0.998300 1.531972
Br1   Br    Br    0.994820 0.029454 0.761133 -0.432545
Br2   Br    Br    0.004974 0.525578 0.238957 -0.432282
O21   O     O_3   0.806101 0.775889 0.376675 -0.578283
H11   H     H_    0.850224 0.770571 0.373353 0.341100
O22   O     O_3   0.193937 0.275499 0.623522 -0.578157
H12   H     H_    0.149803 0.270691 0.626815 0.341198
Br3   Br    Br    0.681150 0.290061 0.267632 -0.491155
Br4   Br    Br    0.318820 0.790049 0.732266 -0.491243
O23   O     O_3   0.805913 0.570353 0.234409 -0.603393
H13   H     H_    0.799762 0.493657 0.275141 0.336508
O24   O     O_3   0.194243 0.070306 0.765879 -0.603490
H14   H     H_    0.200267 0.993674 0.725096 0.336565
Br5   Br    Br    0.791514 0.934792 0.533537 -0.419103
Br6   Br    Br    0.208260 0.428814 0.466448 -0.419127
O25   O     O_3   0.893571 0.052612 0.637903 -0.562817
H15   H     H_    0.867577 0.159149 0.619749 0.334405
O26   O     O_3   0.106094 0.547412 0.362367 -0.562820
H16   H     H_    0.131906 0.653952 0.380885 0.334622
Br7   Br    Br    0.502438 0.791786 0.734853 -0.479314
Br8   Br    Br    0.497744 0.295264 0.265124 -0.479180
O27   O     O_3   0.728329 0.695754 0.863193 -0.610188
H17   H     H_    0.761155 0.625457 0.845606 0.293884
O28   O     O_3   0.272048 0.198945 0.136211 -0.610193
H18   H     H_    0.239276 0.127761 0.153525 0.293891
O29   O     O_3   0.609365 0.721602 0.865028 -0.585639
H19   H     H_    0.564562 0.735371 0.859632 0.347208
O30   O     O_3   0.391006 0.226530 0.134622 -0.585612
H20   H     H_    0.435804 0.240597 0.140145 0.347256

loop_
_geom_bond_atom_site_label_1
_geom_bond_atom_site_label_2
_ccdc_geom_bond_type
C45   C47   S    
O14   V4    S    
C24   Br6   S    
O26   H16   S    
O1    C3    A    
C58   O17   A    
O2    C4    A    
C2    O7    A    
O21   H11   S    
C29   Br1   S    
O5    C3    A    
C34   O22   S    
C33   C47   S    
C1    C40   S    
C30   Br2   S    
C46   C50   S    
C23   C25   A    
C12   C14   A    
C37   C60   S    
C6    C30   A    
C11   O29   S    
C8    C28   A    
C15   C17   A    
O27   H17   S    
C48   C56   S    
C47   C55   S    
C18   C26   A    
C42   C44   S    
C39   C55   T    
O20   V3    S    
O16   V4    S    
C9    C31   A    
O15   V3    S    
C4    C31   S    
C10   C32   A    
C38   C54   T    
C35   C43   S    
C34   C36   S    
C14   O28   S    
C52   Br4   S    
C25   H3    S    
C26   H4    S    
C27   H1    S    
C43   C53   S    
O5    V1    S    
C57   O18   A    
O6    V2    S    
C17   C31   A    
C2    C39   S    
C18   C32   A    
C5    C21   A    
C14   C16   A    
O13   C57   A    
C36   H6    S    
O18   V4    S    
C45   C49   S    
C41   C43   S    
C15   C19   A    
C16   C20   A    
C36   C52   S    
C6    O26   S    
O11   V4    S    
O4    C2    A    
O16   C60   A    
O15   C59   A    
C33   C35   S    
C49   C51   S    
C46   C48   S    
O4    V2    S    
C28   H2    S    
O13   V3    S    
C43   C49   S    
O22   H12   S    
O6    C4    A    
C19   C21   A    
C44   C54   S    
C3    C32   S    
O1    V2    S    
O2    V1    S    
C6    C22   A    
O30   H20   S    
C7    C27   A    
C9    Br7   S    
C38   C59   S    
O14   C58   A    
C9    C11   A    
C13   C15   A    
C10   C12   A    
C8    C57   S    
C49   H7    S    
C7    C58   S    
O3    V1    S    
C40   C56   T    
C45   H9    S    
C46   H10   S    
O3    C1    A    
C5    O25   S    
C8    C30   A    
O29   H19   S    
C34   C48   S    
C51   Br3   S    
C50   H8    S    
O24   H14   S    
C41   C45   S    
C33   C41   S    
C44   C50   S    
C42   C46   S    
C34   C42   S    
C13   O27   S    
O7    V1    S    
C41   O23   S    
C1    O8    A    
O8    V2    S    
O25   H15   S    
O19   V4    S    
C48   C52   S    
C47   C51   S    
O17   V3    S    
C16   C18   A    
C12   O30   S    
C21   C23   A    
C19   C27   A    
C22   C24   A    
C20   C28   A    
O12   C60   A    
C5    C29   A    
O11   C59   A    
C23   Br5   S    
C24   C26   A    
C33   O21   S    
C10   Br8   S    
C11   C13   A    
C50   C52   S    
O9    V2    S    
C17   C25   A    
O23   H13   S    
O10   V1    S    
C36   C44   S    
C35   C51   S    
C35   H5    S    
O12   V3    S    
O28   H18   S    
C37   C53   T    
C42   O24   S    
C7    C29   A    
C20   C22   A    
