data_mof_unit_1617.cif
_audit_creation_date              2012-12-10T21:07:02-0500
_audit_creation_method            fapswitch 2.2
_symmetry_space_group_name_H-M    P1
_symmetry_Int_Tables_number       1
_space_group_crystal_system       triclinic
_cell_length_a                    10.697556
_cell_length_b                    15.834719
_cell_length_c                    15.104802
_cell_angle_alpha                 89.950729
_cell_angle_beta                  90.51109
_cell_angle_gamma                 88.869515
_cell_volume                      2558.04342983

loop_
_atom_site_label
_atom_site_type_symbol
_atom_type_description
_atom_site_fract_x
_atom_site_fract_y
_atom_site_fract_z
_atom_type_partial_charge
C1    C     C_R   0.499842 0.338952 0.499957 0.875502
C2    C     C_R   0.491104 0.086952 0.494684 0.063213
C3    C     C_R   0.547473 0.953935 0.428716 -0.167613
C4    C     C_R   0.452527 0.046064 0.571284 -0.167614
C5    C     C_1   0.507743 0.824031 0.502943 0.075422
C6    C     C_1   0.492257 0.175969 0.497057 0.075422
C7    C     C_1   0.495597 0.250718 0.499319 -0.117492
C8    C     C_1   0.504403 0.749282 0.500681 -0.117492
C9    C     C_R   0.494640 0.422786 0.952782 -0.013271
C10   C     C_R   0.505360 0.577214 0.047218 -0.013272
C11   C     C_R   0.497436 0.499969 0.905029 -0.124836
C12   C     C_R   0.500158 0.661048 0.500042 0.875502
C13   C     C_R   0.502563 0.500031 0.094971 -0.124836
C14   C     C_R   0.504668 0.577104 0.952409 -0.081105
C15   C     C_R   0.495331 0.422896 0.047591 -0.081104
C16   C     C_R   0.259929 0.501561 0.499451 0.846775
C17   C     C_R   0.740071 0.498439 0.500549 0.846776
C18   C     C_1   0.499220 0.499905 0.806880 0.110329
C19   C     C_1   0.500780 0.500095 0.193120 0.110327
C20   C     C_R   0.181189 0.785093 0.398684 -0.071131
C21   C     C_R   0.818811 0.214907 0.601316 -0.071131
C22   C     C_R   0.132305 0.716521 0.448125 -0.043303
C23   C     C_R   0.872321 0.500360 0.501982 -0.177027
C24   C     C_R   0.867695 0.283479 0.551875 -0.043303
C25   C     C_R   0.127465 0.635284 0.409204 0.033514
C26   C     C_R   0.872535 0.364716 0.590796 0.033514
C27   C     C_R   0.170357 0.622806 0.323007 -0.029035
C28   C     C_R   0.829643 0.377194 0.676993 -0.029035
C29   C     C_R   0.218455 0.689218 0.274890 -0.144254
C30   C     C_R   0.781545 0.310782 0.725110 -0.144254
C31   C     C_R   0.224417 0.770554 0.311098 -0.083458
C32   C     C_R   0.775583 0.229446 0.688902 -0.083459
C33   C     C_R   0.931171 0.565033 0.455028 -0.078797
C34   C     C_R   0.127679 0.499640 0.498018 -0.177027
C35   C     C_R   0.068829 0.434967 0.544972 -0.078797
C36   C     C_2   0.277735 0.838288 0.255405 0.907632
C37   C     C_2   0.722264 0.161712 0.744596 0.907632
C38   C     C_2   0.498336 0.341748 0.902817 0.963721
C39   C     C_2   0.501664 0.658252 0.097183 0.963719
C40   C     C_2   0.182794 0.872015 0.435785 0.543540
C41   C     C_2   0.817206 0.127984 0.564216 0.543542
C42   C     C_2   0.078653 0.728145 0.537926 0.470470
C43   C     C_2   0.921347 0.271855 0.462074 0.470470
C44   C     C_2   0.855373 0.634354 0.411863 0.499732
C45   C     C_R   0.938694 0.435493 0.547013 -0.039709
C46   C     C_2   0.144626 0.365646 0.588137 0.499733
C47   C     C_2   0.423291 0.917103 0.662492 0.992731
C48   C     C_2   0.576710 0.082897 0.337508 0.992731
C49   C     C_2   0.483532 0.342952 0.098899 0.489869
C50   C     C_2   0.516467 0.657048 0.901101 0.489867
C51   C     C_R   0.061306 0.564507 0.452987 -0.039708
C52   C     C_R   0.462156 0.958458 0.578512 -0.006587
C53   C     C_R   0.537844 0.041542 0.421488 -0.006587
C54   C     C_R   0.508896 0.913048 0.505316 0.063213
H1    H     H_    0.163831 0.561313 0.292077 0.152826
H2    H     H_    0.568879 0.727056 0.198765 0.360703
H3    H     H_    0.163192 0.926012 0.393305 0.110595
H4    H     H_    0.836808 0.073987 0.606695 0.110595
H5    H     H_    0.091783 0.678976 0.587438 0.058103
H6    H     H_    0.908218 0.321023 0.412562 0.058103
H7    H     H_    0.768819 0.656328 0.441688 0.048978
H8    H     H_    0.231181 0.343672 0.558311 0.048978
H9    H     H_    0.431937 0.814830 0.742471 0.362245
H10   H     H_    0.568063 0.185170 0.257528 0.362245
H11   H     H_    0.527780 0.336352 0.163527 0.061930
H12   H     H_    0.836169 0.438687 0.707923 0.152826
H13   H     H_    0.472218 0.663648 0.836473 0.061929
H14   H     H_    0.251100 0.676817 0.208404 0.180868
H15   H     H_    0.748900 0.323184 0.791596 0.180868
H16   H     H_    0.418098 0.083272 0.626565 0.201351
H17   H     H_    0.581902 0.916728 0.373435 0.201351
H18   H     H_    0.379337 0.944097 0.248555 0.372288
H19   H     H_    0.620663 0.055903 0.751445 0.372289
H20   H     H_    0.431121 0.272944 0.801235 0.360704
N1    N     N_1   0.499960 0.500020 0.270550 -0.075183
N2    N     N_1   0.500040 0.499980 0.729450 -0.075183
O1    O     O_R   0.500000 0.378020 0.573650 -0.609633
O2    O     O_R   0.347591 0.902502 0.293779 -0.848614
O3    O     O_2   0.737231 0.163195 0.824954 -0.515817
O4    O     O_R   0.652409 0.097498 0.706221 -0.848614
O5    O     O_2   0.572827 0.285720 0.924377 -0.554182
O6    O     O_R   0.418068 0.330029 0.830463 -0.763638
O7    O     O_2   0.427172 0.714281 0.075623 -0.554182
O8    O     O_R   0.581931 0.669972 0.169537 -0.763635
O9    O     O_2   0.208762 0.884466 0.513433 -0.544191
O10   O     O_2   0.791239 0.115534 0.486567 -0.544191
O11   O     O_2   0.013317 0.789775 0.555748 -0.500590
O12   O     O_R   0.500000 0.621980 0.426350 -0.609633
O13   O     O_2   0.986683 0.210225 0.444253 -0.500590
O14   O     O_2   0.886592 0.665720 0.341792 -0.522239
O15   O     O_2   0.113408 0.334280 0.658208 -0.522239
O16   O     O_2   0.356048 0.955572 0.714412 -0.568557
O17   O     O_R   0.464816 0.835174 0.683590 -0.791634
O18   O     O_2   0.643953 0.044428 0.285588 -0.568557
O19   O     O_R   0.535183 0.164826 0.316410 -0.791634
O20   O     O_2   0.420071 0.285143 0.071463 -0.495307
O21   O     O_2   0.579929 0.714857 0.928537 -0.495305
O22   O     O_R   0.500060 0.378020 0.426320 -0.592762
O23   O     O_R   0.499940 0.621980 0.573680 -0.592762
O24   O     O_R   0.316730 0.500010 0.573660 -0.608314
O25   O     O_R   0.683270 0.499990 0.426340 -0.608314
O26   O     O_R   0.316790 0.500010 0.426330 -0.619511
O27   O     O_R   0.683210 0.499990 0.573670 -0.619510
O28   O     O_2   0.262767 0.836806 0.175046 -0.515817
Zn1   Zn    Zn3+2 0.499960 0.500000 0.598370 1.005448
Zn2   Zn    Zn3+2 0.500040 0.500000 0.401630 1.005448

loop_
_geom_bond_atom_site_label_1
_geom_bond_atom_site_label_2
_ccdc_geom_bond_type
C11   C18   S    
N2    Zn1   S    
C23   C45   A    
C48   O19   S    
C27   C29   A    
C1    O1    A    
C47   O16   D    
C3    H17   S    
C4    H16   S    
C19   N1    T    
C22   C42   S    
C41   O10   D    
C37   O3    D    
C34   C51   A    
C17   C23   S    
C49   H11   S    
C46   H8    S    
C24   C26   A    
C39   O8    S    
C20   C40   S    
C3    C54   A    
C27   H1    S    
C34   C35   A    
C17   O25   A    
C12   O23   A    
H18   O2    S    
C26   C45   S    
C16   C34   S    
C23   C33   A    
C22   C25   A    
H2    O8    S    
C50   H13   S    
C38   O6    S    
C2    C6    S    
H20   O6    S    
C37   O4    S    
C52   C54   A    
C4    C52   A    
C47   O17   S    
C48   C53   S    
O23   Zn1   S    
C21   C32   A    
C12   O12   A    
C5    C54   S    
C10   C14   A    
C13   C19   S    
C16   O24   A    
C46   O15   D    
C10   C13   A    
C10   C39   S    
C40   O9    D    
C1    O22   A    
C28   H12   S    
C25   C51   S    
C29   H14   S    
O12   Zn2   S    
C8    C12   S    
O24   Zn1   S    
O27   Zn1   S    
C43   O13   D    
C32   C37   S    
C9    C11   A    
C47   C52   S    
C48   O18   D    
C43   H6    S    
C21   C41   S    
C16   O26   A    
C20   C22   A    
C13   C15   A    
C38   O5    D    
C33   C51   A    
C35   C45   A    
C30   H15   S    
C44   O14   D    
O25   Zn2   S    
C50   O21   D    
C18   N2    T    
C40   H3    S    
C1    C7    S    
C33   C44   S    
H10   O19   S    
C2    C53   A    
C42   H5    S    
C41   H4    S    
C5    C8    T    
C6    C7    T    
C44   H7    S    
C25   C27   A    
H9    O17   S    
C26   C28   A    
O22   Zn2   S    
C36   O28   D    
O1    Zn1   S    
C17   O27   A    
C39   O7    D    
C29   C31   A    
C36   O2    S    
C30   C32   A    
C3    C53   A    
C14   C50   S    
C2    C4    A    
C28   C30   A    
C9    C38   S    
C11   C14   A    
H19   O4    S    
O26   Zn2   S    
C15   C49   S    
C49   O20   D    
C9    C15   A    
N1    Zn2   S    
C21   C24   A    
C24   C43   S    
C31   C36   S    
C42   O11   D    
C35   C46   S    
C20   C31   A    
