data_mof_unit_324.cif
_audit_creation_date              2012-12-11T15:59:48-0500
_audit_creation_method            fapswitch 2.2
_symmetry_space_group_name_H-M    P1
_symmetry_Int_Tables_number       1
_space_group_crystal_system       triclinic
_cell_length_a                    10.782411
_cell_length_b                    10.730732
_cell_length_c                    17.060189
_cell_angle_alpha                 100.115637
_cell_angle_beta                  100.11485
_cell_angle_gamma                 60.080019
_cell_volume                      1675.26028299

loop_
_atom_site_label
_atom_site_type_symbol
_atom_type_description
_atom_site_fract_x
_atom_site_fract_y
_atom_site_fract_z
_atom_type_partial_charge
Br1   Br    Br    0.575760 0.892716 0.819728 -0.479965
C1    C     C_R   0.375769 0.724315 0.388362 0.536651
C2    C     C_R   0.872843 0.321839 0.340363 0.000847
C3    C     C_R   0.361927 0.801107 0.151712 0.005408
C4    C     C_R   0.406545 0.374584 0.356399 0.562406
C5    C     C_R   0.458413 0.826836 0.211036 0.022827
C6    C     C_R   0.445935 0.827656 0.292081 0.024595
C7    C     C_R   0.294173 0.713758 0.247980 -0.158419
C8    C     C_R   0.290758 0.732796 0.169766 -0.142308
C9    C     C_R   0.562114 0.857744 0.192333 -0.080559
C10   C     C_R   0.635424 0.909582 0.251952 -0.128161
C11   C     C_R   0.608945 0.929601 0.331089 -0.103772
C12   C     C_R   0.932234 0.168698 0.214801 0.026644
C13   C     C_R   0.513262 0.891682 0.351207 -0.076769
C14   C     C_R   0.364795 0.766351 0.309921 0.009585
C15   C     C_R   0.293459 0.269477 0.797342 -0.033611
C16   C     C_R   0.783503 0.373063 0.406715 0.525894
C17   C     C_R   0.435269 0.191187 0.769246 0.042305
C18   C     C_R   0.456721 0.258502 0.715314 -0.006341
C19   C     C_R   0.201668 0.393767 0.677403 -0.118240
C20   C     C_R   0.176947 0.380541 0.751923 -0.045385
C21   C     C_R   0.562911 0.065449 0.797763 0.204406
C22   C     C_R   0.699878 0.039018 0.787862 -0.056920
C23   C     C_R   0.912993 0.186127 0.297011 0.023628
C24   C     C_R   0.715058 0.130098 0.748033 -0.119591
C25   C     C_R   0.593386 0.243938 0.715152 -0.086304
C26   C     C_R   0.341503 0.334417 0.660093 -0.019058
C27   C     C_1   0.851548 0.327650 0.704910 -0.018279
C28   C     C_R   0.381851 0.714009 0.631088 0.558983
C29   C     C_1   0.898340 0.293048 0.771861 -0.059434
C30   C     C_1   0.358119 0.762784 0.713428 0.003413
C31   C     C_1   0.324388 0.809820 0.780372 0.007978
C32   C     C_R   0.960511 0.280412 0.100000 0.568211
C33   C     C_R   0.321856 0.303302 0.119226 0.559952
C34   C     C_R   0.895258 0.422957 0.311646 -0.136203
C35   C     C_R   0.299899 0.883836 0.082301 0.541788
C36   C     C_R   0.945286 0.272269 0.854791 0.534560
C37   C     C_R   0.278136 0.250503 0.877121 0.536382
C38   C     C_R   0.280565 0.880637 0.857748 0.551611
C39   C     C_R   0.371462 0.349627 0.585223 0.548019
C40   C     C_R   0.780337 0.377255 0.628417 0.544741
C41   C     C_1   0.374839 0.361756 0.272105 -0.050415
C42   C     C_1   0.349060 0.343787 0.201270 -0.050929
C43   C     C_R   0.936373 0.283230 0.183040 -0.002287
C44   C     C_2   0.034975 0.494033 0.779699 0.225456
C45   C     C_R   0.929147 0.402398 0.234867 -0.154194
C46   C     C_R   0.943220 0.039036 0.169895 -0.079711
C47   C     C_R   0.954544 0.927242 0.206852 -0.145264
C48   C     C_R   0.955431 0.939708 0.289113 -0.121309
C49   C     C_R   0.932547 0.068822 0.333950 -0.077803
Cr1   Cr    Cr6+3 0.608100 0.610860 0.522250 1.052608
Cr2   Cr    Cr6+3 0.288890 0.599990 0.488420 1.006089
Cr3   Cr    Cr6+3 0.603040 0.289190 0.489390 0.986585
Cr4   Cr    Cr6+3 0.053960 0.052250 0.967380 1.006214
Cr5   Cr    Cr6+3 0.059890 0.373160 0.992710 1.008590
Cr6   Cr    Cr6+3 0.373370 0.061690 0.991710 1.050522
H1    H     H_    0.876306 0.524517 0.346380 0.150430
H2    H     H_    0.941564 0.485629 0.214819 0.139320
H3    H     H_    0.964732 0.829048 0.171344 0.104499
H4    H     H_    0.969101 0.850717 0.317830 0.120261
H5    H     H_    0.933211 0.075180 0.398003 0.134646
H6    H     H_    0.236793 0.661652 0.260407 0.125217
H7    H     H_    0.590193 0.839325 0.132037 0.147027
H8    H     H_    0.223110 0.704105 0.124063 0.137822
H9    H     H_    0.012678 0.517733 0.840914 0.181245
H10   H     H_    0.709505 0.938174 0.236002 0.129982
H11   H     H_    0.663160 0.974085 0.377105 0.136367
H12   H     H_    0.490381 0.918248 0.412825 0.154744
H13   H     H_    0.114588 0.462070 0.636157 0.182092
H14   H     H_    0.795685 0.943373 0.807635 0.164949
H15   H     H_    0.821239 0.104006 0.737538 0.134980
H16   H     H_    0.603033 0.319644 0.687107 0.149070
H17   H     H_    0.940374 0.017839 0.106293 0.180237
O1    O     O_R   0.749810 0.499790 0.438040 -0.523975
O2    O     O_R   0.411730 0.181020 0.091530 -0.496697
O3    O     O_R   0.365010 0.944360 0.063320 -0.507976
O4    O     O_R   0.477660 0.726260 0.439290 -0.507504
O5    O     O_R   0.159380 0.906670 0.876210 -0.524327
O6    O     O_R   0.930820 0.177420 0.886730 -0.480881
O7    O     O_R   0.910360 0.395420 0.895720 -0.497406
O8    O     O_R   0.186010 0.361730 0.919870 -0.544023
O9    O     O_R   0.400000 0.173010 0.914630 -0.467927
O10   O     O_R   0.354140 0.936940 0.899340 -0.463880
O11   O     O_3   0.162410 0.162370 0.983930 -0.306907
O12   O     O_R   0.298970 0.468800 0.557390 -0.513124
O13   O     O_R   0.260150 0.743000 0.412270 -0.521555
O14   O     O_R   0.297740 0.466550 0.394720 -0.504900
O15   O     O_R   0.488080 0.253500 0.386430 -0.505108
O16   O     O_R   0.722670 0.303800 0.421940 -0.526228
O17   O     O_R   0.751130 0.502220 0.613520 -0.443263
O18   O     O_R   0.478890 0.728510 0.601960 -0.453377
O19   O     O_R   0.261470 0.745430 0.587750 -0.507989
O20   O     O_2   0.938474 0.571977 0.732962 -0.485134
O21   O     O_R   0.489400 0.255930 0.561910 -0.510279
O22   O     O_R   0.723890 0.306050 0.584610 -0.533968
O23   O     O_3   0.500010 0.500010 0.500020 -0.304214
O24   O     O_R   0.171100 0.914680 0.053100 -0.541467
O25   O     O_R   0.941680 0.184840 0.050710 -0.506072
O26   O     O_R   0.922080 0.403420 0.072610 -0.504282
O27   O     O_R   0.196880 0.369150 0.083850 -0.516093

loop_
_geom_bond_atom_site_label_1
_geom_bond_atom_site_label_2
_ccdc_geom_bond_type
C4    C41   S    
C3    C35   S    
C15   C20   A    
Cr6   O3    S    
Cr3   O22   S    
C8    H8    S    
C25   H16   S    
C9    H7    S    
Cr1   O1    S    
C44   O20   D    
Cr4   O11   S    
C36   O6    A    
C48   H4    S    
Cr6   O10   S    
Cr2   O12   S    
C17   C18   A    
Cr1   O17   S    
C27   C40   S    
C32   O25   A    
C31   C38   S    
C18   C25   A    
C35   O3    A    
Cr1   O18   S    
C4    O15   A    
C6    C13   A    
C30   C31   T    
C7    C8    A    
Cr5   O27   S    
C33   O27   A    
Cr4   O24   S    
C2    C16   S    
C35   O24   A    
C24   H15   S    
Cr5   O8    S    
C18   C26   A    
C10   H10   S    
Cr1   O23   S    
C6    C14   A    
C40   O17   A    
Br1   C21   S    
Cr6   O2    S    
C45   H2    S    
Cr3   O23   S    
C22   H14   S    
C2    C23   A    
C36   O7    A    
C43   C45   A    
Cr6   O11   S    
C20   C44   S    
C23   C49   A    
C11   H11   S    
C38   O5    A    
C16   O16   A    
C46   H17   S    
C3    C5    A    
C12   C46   A    
C15   C37   S    
C24   C25   A    
C29   C36   S    
C32   O26   A    
C39   O12   A    
Cr1   O4    S    
C46   C47   A    
C2    C34   A    
C26   C39   S    
C12   C43   A    
C1    C14   S    
C47   C48   A    
C11   C13   A    
C7    C14   A    
C37   O8    A    
Cr3   O16   S    
C16   O1    A    
C19   H13   S    
Cr2   O19   S    
C41   C42   T    
C28   O18   A    
C47   H3    S    
Cr4   O6    S    
Cr3   O21   S    
C17   C21   A    
C32   C43   S    
Cr2   O14   S    
C33   C42   S    
C39   O21   A    
C5    C9    A    
C10   C11   A    
Cr6   O9    S    
C5    C6    A    
C19   C26   A    
C33   O2    A    
C1    O13   A    
C34   H1    S    
C27   C29   T    
Cr5   O11   S    
C38   O10   A    
C28   C30   S    
C1    O4    A    
C44   H9    S    
Cr5   O7    S    
C40   O22   A    
Cr2   O13   S    
Cr2   O23   S    
Cr3   O15   S    
C22   C24   A    
C9    C10   A    
C4    O14   A    
C19   C20   A    
C12   C23   A    
C15   C17   A    
C48   C49   A    
Cr5   O26   S    
C49   H5    S    
C13   H12   S    
C21   C22   A    
Cr4   O25   S    
C3    C8    A    
C34   C45   A    
C28   O19   A    
C37   O9    A    
C7    H6    S    
Cr4   O5    S    
