data_mof_unit_3679.cif
_audit_creation_date              2012-12-10T16:43:26-0500
_audit_creation_method            fapswitch 2.2
_symmetry_space_group_name_H-M    P1
_symmetry_Int_Tables_number       1
_space_group_crystal_system       triclinic
_cell_length_a                    12.263111
_cell_length_b                    12.149596
_cell_length_c                    23.683966
_cell_angle_alpha                 90.121303
_cell_angle_beta                  89.50319
_cell_angle_gamma                 89.049777
_cell_volume                      3528.09085049

loop_
_atom_site_label
_atom_site_type_symbol
_atom_type_description
_atom_site_fract_x
_atom_site_fract_y
_atom_site_fract_z
_atom_type_partial_charge
C1    C     C_3   0.003966 0.000441 0.250486 0.177412
C2    C     C_3   0.997717 0.999911 0.748382 0.190843
C3    C     C_R   0.002113 0.102307 0.209477 0.071361
C4    C     C_R   0.996905 0.900530 0.790969 0.028168
C5    C     C_R   0.898295 0.001772 0.706863 0.050176
C6    C     C_R   0.105292 0.999099 0.290830 0.055957
C7    C     C_R   0.002665 0.901547 0.207408 0.061628
C8    C     C_R   0.000387 0.099759 0.790697 0.030785
C9    C     C_R   0.096291 0.997300 0.705827 0.041999
C10   C     C_R   0.906408 0.997562 0.294293 0.051097
C11   C     C_R   0.999700 0.651676 0.922181 0.869933
C12   C     C_R   0.000400 0.349540 0.078325 0.880418
C13   C     C_R   0.348046 0.000155 0.422517 0.911052
C14   C     C_R   0.649118 0.999634 0.578845 0.881693
C15   C     C_R   0.001053 0.346153 0.923265 0.875597
C16   C     C_R   0.998327 0.651027 0.078006 0.875135
C17   C     C_R   0.653701 0.998917 0.423141 0.900019
C18   C     C_R   0.350250 0.000421 0.578773 0.885361
C19   C     C_R   0.090114 0.110935 0.170114 0.251912
C20   C     C_R   0.901033 0.839814 0.804395 0.381390
C21   C     C_R   0.834847 0.098593 0.694919 0.352214
C22   C     C_R   0.121160 0.906237 0.327007 0.251519
C23   C     C_R   0.911610 0.893682 0.170303 0.240862
C24   C     C_R   0.097858 0.157704 0.804051 0.374817
C25   C     C_R   0.159152 0.900115 0.693328 0.354615
C26   C     C_R   0.895493 0.085681 0.334248 0.278680
C27   C     C_R   0.091950 0.879377 0.823931 0.279762
C28   C     C_R   0.913247 0.179410 0.204627 0.374652
C29   C     C_R   0.838993 0.903543 0.302672 0.366866
C30   C     C_R   0.116803 0.093370 0.673142 0.290910
C31   C     C_R   0.906338 0.121548 0.824801 0.293754
C32   C     C_R   0.090721 0.824003 0.199646 0.421780
C33   C     C_R   0.170079 0.093898 0.301296 0.388545
C34   C     C_R   0.878696 0.906026 0.673649 0.287836
C35   C     C_R   0.094921 0.198789 0.131476 0.293993
C36   C     C_R   0.905234 0.754190 0.844513 0.243598
C37   C     C_R   0.745784 0.093844 0.657515 0.270230
C38   C     C_R   0.208588 0.902273 0.365373 0.290815
C39   C     C_R   0.904203 0.805198 0.131602 0.303415
C40   C     C_R   0.099107 0.233300 0.849320 0.237265
C41   C     C_R   0.248266 0.904131 0.655404 0.279188
C42   C     C_R   0.814384 0.084599 0.376674 0.282884
C43   C     C_R   0.090726 0.801877 0.868038 0.270927
C44   C     C_R   0.910196 0.256252 0.159893 0.254212
C45   C     C_R   0.762586 0.901700 0.347548 0.236902
C46   C     C_R   0.204571 0.096488 0.634819 0.257832
C47   C     C_R   0.910686 0.193770 0.871052 0.283295
C48   C     C_R   0.079013 0.734680 0.162763 0.252574
C49   C     C_R   0.239172 0.096409 0.348395 0.230783
C50   C     C_R   0.793823 0.903845 0.634289 0.256171
C51   C     C_R   0.001844 0.266768 0.124013 -0.317012
C52   C     C_R   0.998771 0.736863 0.877455 -0.302400
C53   C     C_R   0.730688 0.999028 0.624331 -0.310725
C54   C     C_R   0.264252 0.999497 0.378067 -0.311622
C55   C     C_R   0.994105 0.733440 0.123860 -0.330370
C56   C     C_R   0.003500 0.257273 0.880336 -0.326317
C57   C     C_R   0.266789 0.000618 0.623889 -0.310055
C58   C     C_R   0.743409 0.995828 0.381033 -0.299263
Cu1   Cu    Cu3+1 0.889520 0.500000 0.000000 0.952733
Cu2   Cu    Cu3+1 0.110480 0.500000 0.000000 0.973380
Cu3   Cu    Cu3+1 0.500000 0.889520 0.500000 0.950999
Cu4   Cu    Cu3+1 0.500000 0.110480 0.500000 0.977749
O1    O     O_R   0.907020 0.615090 0.941240 -0.556655
O2    O     O_R   0.092980 0.384910 0.058760 -0.573862
O3    O     O_R   0.384910 0.907020 0.441240 -0.563481
O4    O     O_R   0.615090 0.092980 0.558760 -0.559225
O5    O     O_R   0.092980 0.384910 0.941240 -0.552768
O6    O     O_R   0.907020 0.615090 0.058760 -0.567203
O7    O     O_R   0.615090 0.092980 0.441240 -0.549841
O8    O     O_R   0.384910 0.907020 0.558760 -0.550429
O9    O     O_R   0.907020 0.384910 0.058760 -0.581027
O10   O     O_R   0.092980 0.615090 0.941240 -0.547593
O11   O     O_R   0.384910 0.092980 0.558760 -0.577990
O12   O     O_R   0.615090 0.907020 0.441240 -0.574028
O13   O     O_R   0.092980 0.615090 0.058760 -0.572405
O14   O     O_R   0.907020 0.384910 0.941240 -0.574085
O15   O     O_R   0.615090 0.907020 0.558760 -0.579022
O16   O     O_R   0.384910 0.092980 0.441240 -0.558651
O17   O     O_3   0.183899 0.209684 0.094969 -0.607826
C59   C     C_3   0.282246 0.232867 0.123882 0.078987
H1    H     H_    0.349022 0.228595 0.092011 0.153714
H2    H     H_    0.303726 0.171093 0.156426 0.184083
C60   C     C_3   0.281959 0.347693 0.150756 -0.342058
H3    H     H_    0.259181 0.410819 0.119014 0.257981
H4    H     H_    0.222292 0.349568 0.186151 0.215562
C61   C     C_3   0.393828 0.375288 0.174177 -0.945028
H5    H     H_    0.419411 0.313346 0.206078 0.264753
H6    H     H_    0.390060 0.457589 0.194652 0.266919
H7    H     H_    0.455313 0.377261 0.139522 0.250440
O18   O     O_3   0.813510 0.691893 0.854102 -0.593063
C62   C     C_3   0.818500 0.598216 0.818762 0.088922
H8    H     H_    0.897866 0.552852 0.823182 0.140863
H9    H     H_    0.807612 0.622768 0.773836 0.143132
C63   C     C_3   0.726762 0.521321 0.835904 -0.314146
H10   H     H_    0.733216 0.502050 0.881629 0.253009
H11   H     H_    0.646699 0.562914 0.828588 0.207794
C64   C     C_3   0.732261 0.414099 0.802512 -0.899816
H12   H     H_    0.722173 0.430836 0.756817 0.234767
H13   H     H_    0.665939 0.359521 0.816991 0.256140
H14   H     H_    0.811742 0.371251 0.809132 0.285017
O19   O     O_3   0.676482 0.184431 0.649866 -0.592209
C65   C     C_3   0.619314 0.213667 0.700258 0.059978
H15   H     H_    0.568523 0.287831 0.690800 0.153883
H16   H     H_    0.674566 0.237777 0.734535 0.187927
C66   C     C_3   0.544304 0.123045 0.721805 -0.391911
H17   H     H_    0.486940 0.099431 0.688098 0.204687
H18   H     H_    0.594112 0.049735 0.733554 0.238861
C67   C     C_3   0.480770 0.161850 0.774056 -0.923014
H19   H     H_    0.537828 0.180917 0.808778 0.260373
H20   H     H_    0.425488 0.096305 0.788763 0.279438
H21   H     H_    0.431546 0.236760 0.764175 0.245154
O20   O     O_3   0.231184 0.806726 0.395672 -0.570248
C68   C     C_3   0.271490 0.721229 0.359721 0.093824
H22   H     H_    0.275022 0.743499 0.314128 0.137561
H23   H     H_    0.216553 0.649853 0.363718 0.144180
C69   C     C_3   0.386435 0.684131 0.377062 -0.342029
H24   H     H_    0.415538 0.618449 0.347565 0.158570
H25   H     H_    0.443445 0.753813 0.373149 0.247649
C70   C     C_3   0.389055 0.638622 0.437121 -0.722578
H26   H     H_    0.361726 0.701743 0.468297 0.292826
H27   H     H_    0.473112 0.611387 0.447623 0.196573
H28   H     H_    0.335654 0.566554 0.440542 0.221754
O21   O     O_3   0.810574 0.789881 0.100045 -0.600131
C71   C     C_3   0.722011 0.758065 0.135217 0.065565
H29   H     H_    0.645553 0.776108 0.111932 0.155496
H30   H     H_    0.715709 0.806085 0.175135 0.179416
C72   C     C_3   0.726086 0.634530 0.148713 -0.298186
H31   H     H_    0.721473 0.586230 0.108956 0.243848
H32   H     H_    0.803733 0.613194 0.170157 0.220624
C73   C     C_3   0.631337 0.602572 0.187256 -0.949576
H33   H     H_    0.633462 0.649922 0.227396 0.260830
H34   H     H_    0.637608 0.513605 0.197443 0.266943
H35   H     H_    0.552304 0.618797 0.166004 0.259031
O22   O     O_3   0.196179 0.282398 0.863762 -0.585528
C74   C     C_3   0.255819 0.209396 0.898869 0.085307
H36   H     H_    0.277558 0.131834 0.875938 0.167026
H37   H     H_    0.207790 0.188540 0.937499 0.145938
C75   C     C_3   0.360949 0.264667 0.916933 -0.303055
H38   H     H_    0.406979 0.291328 0.878861 0.221506
H39   H     H_    0.340465 0.338788 0.942765 0.228851
C76   C     C_3   0.432951 0.186644 0.951302 -0.950280
H40   H     H_    0.389427 0.160403 0.990193 0.264164
H41   H     H_    0.508490 0.229428 0.963568 0.267963
H42   H     H_    0.456080 0.112803 0.925868 0.262334
O23   O     O_3   0.314080 0.811309 0.645568 -0.593033
C77   C     C_3   0.371600 0.776912 0.694487 0.083471
H43   H     H_    0.423053 0.704718 0.682060 0.152382
H44   H     H_    0.316871 0.747089 0.728392 0.181614
C78   C     C_3   0.446451 0.865275 0.718062 -0.399845
H45   H     H_    0.502266 0.893951 0.684206 0.206468
H46   H     H_    0.396231 0.936074 0.733501 0.238860
C79   C     C_3   0.512670 0.820566 0.767455 -0.910083
H47   H     H_    0.457752 0.787063 0.800534 0.265788
H48   H     H_    0.559765 0.888025 0.786567 0.269960
H49   H     H_    0.569996 0.754569 0.752743 0.248023
O24   O     O_3   0.805669 0.171188 0.414629 -0.584847
C80   C     C_3   0.873921 0.147944 0.461011 0.047593
H50   H     H_    0.960679 0.138678 0.447028 0.127331
H51   H     H_    0.848305 0.071017 0.482660 0.132780
C81   C     C_3   0.865198 0.243086 0.503076 -0.309029
H52   H     H_    0.891834 0.320200 0.482292 0.214767
H53   H     H_    0.778859 0.254179 0.516946 0.250500
C82   C     C_3   0.935806 0.221471 0.554654 -0.900923
H54   H     H_    0.022924 0.212805 0.542071 0.264762
H55   H     H_    0.910615 0.144826 0.576159 0.258011
H56   H     H_    0.926443 0.291408 0.584640 0.257420
O25   O     O_3   0.182077 0.788670 0.901330 -0.584496
C83   C     C_3   0.173282 0.862431 0.947342 0.059256
H57   H     H_    0.104082 0.839138 0.975436 0.146918
H58   H     H_    0.160513 0.948965 0.932753 0.119628
C84   C     C_3   0.278917 0.856450 0.980856 -0.295870
H59   H     H_    0.297461 0.769388 0.992150 0.239304
H60   H     H_    0.347063 0.887736 0.954454 0.209111
C85   C     C_3   0.269525 0.924406 0.034803 -0.943481
H61   H     H_    0.249290 0.011650 0.024794 0.264785
H62   H     H_    0.348178 0.921130 0.057664 0.261921
H63   H     H_    0.204855 0.890254 0.062510 0.260504
O26   O     O_3   0.823344 0.331149 0.154445 -0.604967
C86   C     C_3   0.722260 0.279914 0.142958 0.114244
H64   H     H_    0.659484 0.346488 0.140333 0.144185
H65   H     H_    0.693865 0.226055 0.177408 0.186447
C87   C     C_3   0.721484 0.217130 0.086840 -0.366403
H66   H     H_    0.732754 0.276187 0.051669 0.238230
H67   H     H_    0.788474 0.154526 0.085688 0.207389
C88   C     C_3   0.613380 0.158627 0.078855 -0.968887
H68   H     H_    0.598996 0.099862 0.113906 0.270538
H69   H     H_    0.615018 0.111794 0.038577 0.263497
H70   H     H_    0.545239 0.219768 0.077520 0.255023
O27   O     O_3   0.708624 0.805157 0.359776 -0.600266
C89   C     C_3   0.778849 0.736471 0.391964 0.093290
H71   H     H_    0.815221 0.782240 0.427956 0.140504
H72   H     H_    0.845878 0.702251 0.364885 0.171879
C90   C     C_3   0.713945 0.641150 0.416232 -0.317891
H73   H     H_    0.652882 0.674433 0.446937 0.222086
H74   H     H_    0.670287 0.598731 0.381700 0.223979
C91   C     C_3   0.788037 0.558093 0.446224 -0.952701
H75   H     H_    0.847351 0.520432 0.415841 0.261181
H76   H     H_    0.737975 0.491790 0.464836 0.261543
H77   H     H_    0.833217 0.598942 0.480663 0.260958
O28   O     O_3   0.224915 0.193000 0.605607 -0.584120
C92   C     C_3   0.290909 0.261306 0.639210 0.113817
H78   H     H_    0.373670 0.224051 0.643292 0.128367
H79   H     H_    0.256512 0.273892 0.682459 0.152611
C93   C     C_3   0.303183 0.373548 0.610917 -0.344482
H80   H     H_    0.370301 0.418476 0.631612 0.165892
H81   H     H_    0.325485 0.361951 0.565671 0.231522
C94   C     C_3   0.198766 0.443338 0.615705 -0.809805
H82   H     H_    0.178497 0.459924 0.660764 0.244462
H83   H     H_    0.129606 0.400670 0.595799 0.263416
H84   H     H_    0.210582 0.523218 0.593981 0.244609
O29   O     O_3   0.823742 0.196432 0.908632 -0.592918
C95   C     C_3   0.849232 0.131571 0.956597 0.068784
H85   H     H_    0.779450 0.141207 0.985817 0.176339
H86   H     H_    0.922446 0.162168 0.978837 0.120996
C96   C     C_3   0.861923 0.007693 0.943599 -0.407498
H87   H     H_    0.789954 0.979146 0.919809 0.259625
H88   H     H_    0.936612 0.991826 0.917805 0.184778
C97   C     C_3   0.871805 0.941176 0.997856 -0.859879
H89   H     H_    0.943867 0.967498 0.022271 0.234658
H90   H     H_    0.881723 0.852417 0.987396 0.277669
H91   H     H_    0.797097 0.952767 0.024181 0.277838
O30   O     O_3   0.145752 0.642515 0.168976 -0.602977
C98   C     C_3   0.085047 0.558247 0.195727 0.112690
H92   H     H_    0.096198 0.481596 0.171031 0.140846
H93   H     H_    0.994862 0.573208 0.197372 0.128286
C99   C     C_3   0.125286 0.540784 0.255861 -0.389027
H94   H     H_    0.211814 0.512185 0.254985 0.216396
H95   H     H_    0.119877 0.620284 0.278826 0.252153
C100  C     C_3   0.055798 0.457063 0.287067 -0.892289
H96   H     H_    0.054097 0.378365 0.263273 0.293959
H97   H     H_    0.970956 0.489139 0.292407 0.260807
H98   H     H_    0.090393 0.441703 0.329446 0.253787
O31   O     O_3   0.278467 0.196522 0.366716 -0.582691
C101  C     C_3   0.197821 0.245799 0.402128 0.102022
H99   H     H_    0.177134 0.190730 0.438193 0.139271
H100  H     H_    0.122710 0.264259 0.377852 0.178094
C102  C     C_3   0.239179 0.353969 0.425869 -0.332491
H101  H     H_    0.312589 0.337585 0.451940 0.230412
H102  H     H_    0.262085 0.409070 0.390446 0.214871
C103  C     C_3   0.151232 0.410706 0.462197 -0.957164
H103  H     H_    0.079078 0.432668 0.436261 0.253226
H104  H     H_    0.183200 0.486970 0.481233 0.265150
H105  H     H_    0.125481 0.355374 0.496799 0.277330
O32   O     O_3   0.778633 0.809769 0.602242 -0.600478
C104  C     C_3   0.715511 0.734421 0.633545 0.100301
H106  H     H_    0.632776 0.769521 0.642358 0.160680
H107  H     H_    0.754676 0.713011 0.674426 0.158490
C105  C     C_3   0.704066 0.629134 0.598798 -0.322408
H108  H     H_    0.665499 0.649347 0.557719 0.231567
H109  H     H_    0.786383 0.592804 0.590278 0.217753
C106  C     C_3   0.634849 0.544478 0.629490 -0.962659
H110  H     H_    0.670902 0.524196 0.671069 0.252267
H111  H     H_    0.631500 0.467949 0.603877 0.268330
H112  H     H_    0.550460 0.576796 0.635851 0.251451
O33   O     O_3   0.172829 0.032911 0.171456 -0.727523
H113  H     H_    0.204887 0.025329 0.133203 0.339503
O34   O     O_3   0.802972 0.865710 0.778932 -0.713836
H114  H     H_    0.742097 0.827449 0.797578 0.352851
O35   O     O_3   0.862361 0.198544 0.718115 -0.706153
H115  H     H_    0.839819 0.258627 0.692209 0.343450
O36   O     O_3   0.052553 0.817744 0.322394 -0.729743
H116  H     H_    0.054545 0.774066 0.357632 0.332649
O37   O     O_3   0.828846 0.972023 0.174092 -0.735947
H117  H     H_    0.786814 0.972780 0.138568 0.338384
O38   O     O_3   0.193947 0.136160 0.775048 -0.717505
H118  H     H_    0.242584 0.200024 0.777825 0.339595
O39   O     O_3   0.131278 0.800470 0.716723 -0.703359
H119  H     H_    0.149955 0.740596 0.689601 0.342650
O40   O     O_3   0.962146 0.175737 0.328725 -0.739519
H120  H     H_    0.934079 0.238343 0.351692 0.355170
O41   O     O_3   0.186048 0.936335 0.812200 -0.713637
H121  H     H_    0.249328 0.903671 0.832108 0.357718
O42   O     O_3   0.826331 0.176254 0.241401 -0.710274
H122  H     H_    0.804312 0.253279 0.250577 0.339002
O43   O     O_3   0.854626 0.809374 0.270651 -0.729994
H123  H     H_    0.788620 0.763570 0.272013 0.341090
O44   O     O_3   0.054315 0.186968 0.682810 -0.709506
H124  H     H_    0.067252 0.243106 0.653536 0.359360
O45   O     O_3   0.810703 0.067597 0.813421 -0.704762
H125  H     H_    0.748057 0.104882 0.832476 0.360608
O46   O     O_3   0.189935 0.838778 0.225519 -0.715747
H126  H     H_    0.245808 0.787289 0.209664 0.346334
O47   O     O_3   0.156147 0.188994 0.270254 -0.735070
H127  H     H_    0.219450 0.237615 0.275196 0.349687
O48   O     O_3   0.940755 0.812232 0.682338 -0.713941
H128  H     H_    0.939700 0.764056 0.648582 0.349281

loop_
_geom_bond_atom_site_label_1
_geom_bond_atom_site_label_2
_ccdc_geom_bond_type
Cu3   O8    S    
C29   O43   S    
C74   C75   S    
C27   O41   S    
C84   H59   S    
C33   O47   S    
C18   O8    A    
C89   H71   S    
C47   O29   S    
C24   O38   S    
C48   C55   A    
C16   O13   A    
C92   H79   S    
C92   H78   S    
C20   C36   A    
C73   H34   S    
O43   H123  S    
C12   C51   S    
C42   C58   A    
C72   H32   S    
O26   C86   S    
C97   H89   S    
C98   C99   S    
C9    C25   A    
O21   C71   S    
C13   O3    A    
C42   O24   S    
O32   C104  S    
C17   O7    A    
C84   H60   S    
O35   H115  S    
C80   H50   S    
C60   H3    S    
C24   C40   A    
C98   H93   S    
C3    C28   A    
C82   H55   S    
C68   H22   S    
C100  H98   S    
C50   O32   S    
C76   H41   S    
O23   C77   S    
O36   H116  S    
C12   O2    A    
C61   H6    S    
C43   C52   A    
C88   H69   S    
C78   H45   S    
Cu2   O10   S    
C22   O36   S    
C33   C49   A    
C49   C54   A    
C6    C22   A    
C34   O48   S    
C39   O21   S    
C69   H24   S    
C65   C66   S    
O34   H114  S    
C14   O15   A    
O18   C62   S    
C87   H66   S    
C103  H103  S    
C49   O31   S    
C11   C52   S    
C89   C90   S    
C25   O39   S    
C85   H61   S    
C46   O28   S    
C83   C84   S    
C39   C55   A    
C82   H54   S    
Cu2   O5    S    
Cu3   O15   S    
O28   C92   S    
C40   C56   A    
C94   H84   S    
C93   H80   S    
O45   H125  S    
C95   C96   S    
Cu4   O11   S    
C3    C19   A    
O44   H124  S    
C16   O6    A    
C67   H19   S    
C73   H35   S    
C31   O45   S    
O38   H118  S    
C104  C105  S    
C36   C52   A    
C105  C106  S    
C20   O34   S    
C68   C69   S    
C37   C53   A    
C10   C26   A    
C83   H58   S    
C15   O14   A    
Cu1   Cu2   S    
C80   H51   S    
C6    C33   A    
C31   C47   A    
O40   H120  S    
C41   O23   S    
C32   C48   A    
Cu3   Cu4   S    
C101  H100  S    
C91   H77   S    
C36   O18   S    
O20   C68   S    
C64   H13   S    
C100  H96   S    
C105  H109  S    
C64   H12   S    
C77   H44   S    
C70   H27   S    
C102  H102  S    
C84   C85   S    
C45   C58   A    
C34   C50   A    
C50   C53   A    
Cu4   O4    S    
C94   H82   S    
O19   C65   S    
C74   H36   S    
C82   H56   S    
C98   H92   S    
C106  H110  S    
C96   C97   S    
C44   O26   S    
O25   C83   S    
C11   O10   A    
C21   O35   S    
C106  H112  S    
C63   C64   S    
C90   H74   S    
O46   H126  S    
C26   O40   S    
C40   O22   S    
C87   C88   S    
C28   C44   A    
C103  H105  S    
C86   H64   S    
Cu4   O7    S    
C29   C45   A    
C1    C3    S    
C101  C102  S    
C81   H53   S    
C2    C4    S    
C96   H87   S    
C81   C82   S    
O48   H128  S    
Cu3   O3    S    
Cu1   O6    S    
C62   H9    S    
C77   C78   S    
C66   H18   S    
C18   C57   S    
C97   H90   S    
O29   C95   S    
C38   C54   A    
C79   H49   S    
C23   O37   S    
O39   H119  S    
C90   C91   S    
C15   O5    A    
C5    C34   A    
C14   C53   S    
C103  H104  S    
O42   H122  S    
C14   O4    A    
C21   C37   A    
C63   H10   S    
C66   C67   S    
C79   H47   S    
C63   H11   S    
C85   H63   S    
C77   H43   S    
C75   H39   S    
C9    C30   A    
C69   H25   S    
C71   C72   S    
O27   C89   S    
C44   C51   A    
C91   H76   S    
C83   H57   S    
C60   H4    S    
C12   O9    A    
C93   H81   S    
C99   H94   S    
C80   C81   S    
C99   H95   S    
C104  H107  S    
C46   C57   A    
C35   C51   A    
C17   O12   A    
C92   C93   S    
C4    C27   A    
C59   H1    S    
C78   C79   S    
C2    C5    S    
C101  H99   S    
C25   C41   A    
O33   H113  S    
C75   C76   S    
C62   H8    S    
C64   H14   S    
C105  H108  S    
C26   C42   A    
C97   H91   S    
C71   H30   S    
C13   C54   S    
O31   C101  S    
C70   H28   S    
C45   O27   S    
Cu1   O1    S    
C74   H37   S    
C13   O16   A    
O24   C80   S    
C30   O44   S    
C89   H72   S    
C7    C32   A    
C1    C6    S    
C87   H67   S    
C61   H5    S    
C8    C31   A    
C28   O42   S    
Cu4   O16   S    
C2    C8    S    
C1    C10   S    
C79   H48   S    
C91   H75   S    
C88   H70   S    
C61   H7    S    
C70   H26   S    
C67   H21   S    
O22   C74   S    
C76   H42   S    
C43   O25   S    
Cu3   O12   S    
C18   O11   A    
C99   C100  S    
C66   H17   S    
C17   C58   S    
Cu2   O13   S    
C11   O1    A    
C69   C70   S    
C30   C46   A    
Cu2   O2    S    
C81   H52   S    
C86   C87   S    
C78   H46   S    
C73   H33   S    
C72   C73   S    
C41   C57   A    
C94   H83   S    
C100  H97   S    
C19   C35   A    
C76   H40   S    
C15   C56   S    
C62   C63   S    
C37   O19   S    
C10   C29   A    
C88   H68   S    
C32   O46   S    
C7    C23   A    
C48   O30   S    
C65   H16   S    
O37   H117  S    
C102  H101  S    
C19   O33   S    
C35   O17   S    
C59   C60   S    
C8    C24   A    
C59   H2    S    
C67   H20   S    
C93   C94   S    
C65   H15   S    
O30   C98   S    
C85   H62   S    
C16   C55   S    
C96   H88   S    
C106  H111  S    
C75   H38   S    
C95   H86   S    
O17   C59   S    
C4    C20   A    
C27   C43   A    
C60   C61   S    
C5    C21   A    
C95   H85   S    
C90   H73   S    
C102  C103  S    
O47   H127  S    
C72   H31   S    
C71   H29   S    
C1    C7    S    
C86   H65   S    
C104  H106  S    
C2    C9    S    
C38   O20   S    
Cu1   O14   S    
C23   C39   A    
O41   H121  S    
Cu1   O9    S    
C47   C56   A    
C68   H23   S    
C22   C38   A    
