data_mof_unit_629.cif
_audit_creation_date              2012-12-10T18:11:46-0500
_audit_creation_method            fapswitch 2.2
_symmetry_space_group_name_H-M    P1
_symmetry_Int_Tables_number       1
_space_group_crystal_system       triclinic
_cell_length_a                    15.820087
_cell_length_b                    11.133423
_cell_length_c                    9.664848
_cell_angle_alpha                 91.001167
_cell_angle_beta                  90.475805
_cell_angle_gamma                 88.31909
_cell_volume                      1701.24232878

loop_
_atom_site_label
_atom_site_type_symbol
_atom_type_description
_atom_site_fract_x
_atom_site_fract_y
_atom_site_fract_z
_atom_type_partial_charge
C1    C     C_R   0.502654 0.260601 0.500166 0.832560
C2    C     C_3   0.083947 0.495559 0.491922 0.062024
C3    C     C_3   0.971734 0.588830 0.577005 -0.216652
C4    C     C_3   0.916674 0.496460 0.499720 0.023919
C5    C     C_3   0.025703 0.601458 0.444038 -0.223953
C6    C     C_3   0.969268 0.509279 0.367591 0.094049
C7    C     C_1   0.175684 0.491844 0.492338 0.001617
C8    C     C_1   0.824912 0.496804 0.502168 0.013694
C9    C     C_3   0.546013 0.071284 0.638441 0.687143
C10   C     C_3   0.555364 0.928279 0.621722 0.580487
C11   C     C_3   0.405123 0.080443 0.505869 -0.153300
C12   C     C_R   0.340914 0.492447 0.499187 0.766847
C13   C     C_3   0.550889 0.063740 0.375906 0.559597
C14   C     C_3   0.500739 0.122683 0.504756 -0.200848
C15   C     C_3   0.493379 0.879963 0.500613 -0.219412
C16   C     C_3   0.401665 0.941297 0.528873 -0.174575
C17   C     C_3   0.528532 0.926699 0.355940 0.504530
C18   C     C_3   0.503727 0.624103 0.085184 -0.353635
C19   C     C_3   0.495200 0.625783 0.920516 -0.344262
C20   C     C_3   0.583273 0.446413 0.077193 -0.012677
C21   C     C_3   0.420369 0.448175 0.077533 0.325181
C22   C     C_3   0.582259 0.450680 0.911222 0.301912
C23   C     C_R   0.495721 0.740201 0.500789 0.949427
C24   C     C_3   0.432329 0.429721 0.914760 0.406931
C25   C     C_R   0.659511 0.499298 0.500538 0.852810
C26   C     C_3   0.975680 0.393285 0.547079 0.306211
C27   C     C_3   0.027880 0.405430 0.415949 0.335338
C28   C     C_1   0.251270 0.490303 0.496226 -0.172310
C29   C     C_1   0.749261 0.497842 0.501882 -0.157972
C30   C     C_3   0.031342 0.483781 0.624024 0.086147
Cu1   Cu    Cu3+1 0.500040 0.499860 0.642410 0.990298
Cu2   Cu    Cu3+1 0.499960 0.500140 0.357590 0.900003
H1    H     H_    0.389210 0.926580 0.638456 0.209529
H2    H     H_    0.381374 0.097094 0.400184 0.108842
H3    H     H_    0.561839 0.669981 0.119755 0.203513
H4    H     H_    0.453439 0.680964 0.126184 0.179917
H5    H     H_    0.435149 0.671672 0.888146 0.190321
H6    H     H_    0.546505 0.680941 0.880189 0.220322
H7    H     H_    0.635129 0.507183 0.109250 0.160121
H8    H     H_    0.634701 0.510333 0.881420 0.086670
H9    H     H_    0.450224 0.334223 0.890517 0.160189
H10   H     H_    0.047717 0.687164 0.402025 0.156082
H11   H     H_    0.946805 0.664078 0.643142 0.163098
N1    N     N_3   0.501840 0.500250 0.143650 -0.217409
N2    N     N_3   0.501160 0.503300 0.856280 -0.174639
O1    O     O_R   0.500050 0.317570 0.620260 -0.497593
O2    O     O_R   0.499980 0.317810 0.379740 -0.641942
O3    O     O_R   0.379110 0.499870 0.620240 -0.523469
O4    O     O_R   0.379040 0.500110 0.379720 -0.622748
O5    O     O_R   0.500020 0.682190 0.620260 -0.559073
O6    O     O_R   0.499950 0.682430 0.379740 -0.576188
O7    O     O_R   0.620960 0.499890 0.620280 -0.581501
O8    O     O_R   0.620890 0.500130 0.379760 -0.587486
O9    O     O_3   0.058663 0.310072 0.332944 -0.736859
H12   H     H_    0.007819 0.268808 0.298267 0.333090
O10   O     O_3   0.540938 0.873748 0.750196 -0.787293
H13   H     H_    0.482479 0.890461 0.780738 0.305871
C31   C     C_3   0.338553 0.158188 0.593731 -0.264842
C32   C     C_3   0.301696 0.104852 0.725222 -0.819065
H14   H     H_    0.256721 0.033117 0.701006 0.234005
H15   H     H_    0.350985 0.068252 0.795357 0.278340
H16   H     H_    0.265229 0.176330 0.782088 0.218656
H17   H     H_    0.362468 0.246684 0.623436 0.215282
H18   H     H_    0.283163 0.180035 0.525900 0.171820
O11   O     O_3   0.533309 0.123053 0.253535 -0.790537
H19   H     H_    0.471808 0.133422 0.248843 0.306978
O12   O     O_3   0.638868 0.072496 0.397705 -0.631313
H20   H     H_    0.652978 0.158708 0.394413 0.348556
O13   O     O_3   0.602603 0.857730 0.323148 -0.648416
H21   H     H_    0.633803 0.898027 0.249346 0.365382
C33   C     C_3   0.462612 0.908287 0.233425 -0.384142
C34   C     C_3   0.495850 0.913359 0.084382 -0.795589
H22   H     H_    0.506957 0.006359 0.052704 0.277298
H23   H     H_    0.554848 0.860232 0.067170 0.257363
H24   H     H_    0.446509 0.878630 0.013305 0.213443
H25   H     H_    0.428487 0.825901 0.247940 0.197082
H26   H     H_    0.410548 0.975061 0.234776 0.151458
C35   C     C_3   0.319026 0.894025 0.459138 -0.421178
C36   C     C_3   0.299878 0.765862 0.491283 -0.860168
H27   H     H_    0.334716 0.708917 0.415820 0.254745
H28   H     H_    0.317640 0.743198 0.599349 0.259748
H29   H     H_    0.231312 0.750748 0.475720 0.242273
H30   H     H_    0.264473 0.948990 0.497582 0.236617
H31   H     H_    0.313325 0.905807 0.346865 0.195315
O14   O     O_3   0.948228 0.285288 0.600212 -0.715007
H32   H     H_    0.000526 0.237492 0.620804 0.326495
C37   C     C_3   0.403375 0.323041 0.137879 -0.349748
C38   C     C_3   0.349000 0.230962 0.059846 -0.992130
H33   H     H_    0.291517 0.269773 0.011767 0.278341
H34   H     H_    0.386959 0.181797 0.980429 0.267651
H35   H     H_    0.328448 0.162333 0.133519 0.249956
H36   H     H_    0.465479 0.282503 0.138063 0.226023
H37   H     H_    0.378500 0.329182 0.243589 0.257877
C39   C     C_3   0.338421 0.536674 0.104117 -0.242310
C40   C     C_3   0.250921 0.482619 0.120580 -0.792568
H38   H     H_    0.228213 0.443878 0.021423 0.257023
H39   H     H_    0.249858 0.414998 0.203104 0.275855
H40   H     H_    0.204840 0.555386 0.150954 0.217403
H41   H     H_    0.345705 0.598619 0.192547 0.192203
H42   H     H_    0.330934 0.602622 0.019972 0.188376
O15   O     O_3   0.354454 0.454352 0.849779 -0.721592
H43   H     H_    0.327913 0.377222 0.824919 0.314591
C41   C     C_3   0.620716 0.325025 0.130628 -0.303623
C42   C     C_3   0.716896 0.312251 0.112465 -0.891339
H44   H     H_    0.735503 0.324132 0.003436 0.262485
H45   H     H_    0.749232 0.379809 0.178354 0.241379
H46   H     H_    0.739038 0.221435 0.145205 0.272007
H47   H     H_    0.611697 0.317684 0.241494 0.279645
H48   H     H_    0.592557 0.247673 0.075540 0.265250
C43   C     C_3   0.929707 0.525008 0.224399 -0.384005
C44   C     C_3   0.995782 0.553766 0.117646 -0.826852
H49   H     H_    0.030248 0.635451 0.148954 0.247202
H50   H     H_    0.041563 0.476880 0.105031 0.275948
H51   H     H_    0.963550 0.571356 0.017385 0.245345
H52   H     H_    0.897812 0.441223 0.192984 0.199650
H53   H     H_    0.881616 0.599681 0.229152 0.213505
O16   O     O_3   0.597576 0.336054 0.850643 -0.703685
H54   H     H_    0.652724 0.336349 0.802475 0.348812
C45   C     C_3   0.068520 0.470471 0.769209 -0.388517
C46   C     C_3   0.108933 0.586968 0.818220 -0.817848
H55   H     H_    0.163153 0.608311 0.751727 0.270408
H56   H     H_    0.061962 0.662970 0.816862 0.246311
H57   H     H_    0.132224 0.577815 0.925621 0.244473
H58   H     H_    0.017205 0.447102 0.840363 0.217228
H59   H     H_    0.116823 0.395999 0.769072 0.199673
O17   O     O_3   0.496518 0.104486 0.754358 -0.754249
H60   H     H_    0.530701 0.091465 0.839445 0.331188
O18   O     O_3   0.626036 0.123621 0.654315 -0.699410
H61   H     H_    0.653243 0.092262 0.739777 0.323835
O19   O     O_3   0.639109 0.895876 0.583819 -0.631706
H62   H     H_    0.675399 0.895930 0.668145 0.346844

loop_
_geom_bond_atom_site_label_1
_geom_bond_atom_site_label_2
_ccdc_geom_bond_type
C22   O16   S    
C5    H10   S    
C21   C37   S    
C17   O13   S    
O15   H43   S    
C40   H38   S    
Cu1   O7    S    
C4    C8    S    
O18   H61   S    
C42   H45   S    
C12   O4    A    
C40   H40   S    
C20   C41   S    
C13   O11   S    
C45   H58   S    
C3    H11   S    
C26   C27   S    
O17   H60   S    
C12   C28   S    
C24   N2    S    
C25   O8    A    
C24   O15   S    
C10   C15   S    
C5    C6    S    
C11   C14   S    
C1    O1    A    
C30   C45   S    
C15   C16   S    
O10   H13   S    
C18   C19   S    
C43   C44   S    
C19   H5    S    
C2    C7    S    
C35   H30   S    
Cu1   Cu2   S    
Cu1   O1    S    
C2    C27   S    
C11   C31   S    
C10   O10   S    
C18   H3    S    
C46   H57   S    
C12   O3    A    
C15   C23   S    
C41   H48   S    
C32   H14   S    
C37   H36   S    
C31   H18   S    
C24   H9    S    
C6    C43   S    
O13   H21   S    
C34   H24   S    
C9    C10   S    
C42   H44   S    
C20   N1    S    
C46   H56   S    
C25   C29   S    
C27   O9    S    
C9    O18   S    
C32   H15   S    
O12   H20   S    
C4    C6    S    
C36   H28   S    
C20   H7    S    
C35   C36   S    
C1    O2    A    
C23   O5    A    
C31   C32   S    
O14   H32   S    
C7    C28   T    
C3    C30   S    
C9    C14   S    
C10   O19   S    
Cu2   O6    S    
C19   H6    S    
C18   N1    S    
C16   H1    S    
C21   N1    S    
C11   C16   S    
C23   O6    A    
C6    C27   S    
C38   H35   S    
C39   H42   S    
C22   H8    S    
C40   H39   S    
Cu2   N1    S    
C44   H50   S    
C41   H47   S    
C45   H59   S    
C34   H23   S    
C38   H34   S    
C17   C33   S    
Cu1   O3    S    
Cu1   N2    S    
Cu2   O2    S    
C2    C5    S    
C8    C29   T    
Cu1   O5    S    
C3    C4    S    
C43   H53   S    
Cu2   O8    S    
C33   H26   S    
C46   H55   S    
C13   O12   S    
C31   H17   S    
C15   C17   S    
O9    H12   S    
C32   H16   S    
C44   H49   S    
C11   H2    S    
C20   C22   S    
C34   H22   S    
C3    C5    S    
C36   H29   S    
C4    C26   S    
C45   C46   S    
C19   N2    S    
C26   C30   S    
C9    O17   S    
C13   C17   S    
C2    C30   S    
O19   H62   S    
C25   O7    A    
C33   C34   S    
O16   H54   S    
C33   H25   S    
C39   H41   S    
C26   O14   S    
C37   H37   S    
C44   H51   S    
C16   C35   S    
C39   C40   S    
Cu2   O4    S    
C36   H27   S    
C35   H31   S    
C22   N2    S    
C38   H33   S    
C37   C38   S    
O11   H19   S    
C21   C39   S    
C21   C24   S    
C41   C42   S    
C1    C14   S    
C13   C14   S    
C18   H4    S    
C43   H52   S    
C42   H46   S    
