data_mof_unit_268.cif
_audit_creation_date              2012-12-10T19:12:20-0500
_audit_creation_method            fapswitch 2.2
_symmetry_space_group_name_H-M    P1
_symmetry_Int_Tables_number       1
_space_group_crystal_system       triclinic
_cell_length_a                    7.892081
_cell_length_b                    9.08964
_cell_length_c                    17.093675
_cell_angle_alpha                 89.692448
_cell_angle_beta                  91.798091
_cell_angle_gamma                 89.948617
_cell_volume                      1225.61272014

loop_
_atom_site_label
_atom_site_type_symbol
_atom_type_description
_atom_site_fract_x
_atom_site_fract_y
_atom_site_fract_z
_atom_type_partial_charge
C1    C     C_R   0.500034 0.220452 0.500080 0.835611
C2    C     C_R   0.499959 0.779553 0.499640 0.822130
C3    C     C_R   0.517478 0.500349 0.650612 0.830100
C4    C     C_R   0.482381 0.505625 0.348168 0.818678
C5    C     C_R   0.514519 0.510753 0.736078 -0.111110
C6    C     C_R   0.481550 0.516667 0.260371 -0.132014
C7    C     C_R   0.422766 0.628161 0.768896 0.065809
C8    C     C_R   0.635058 0.530042 0.220390 0.090369
C9    C     C_R   0.374161 0.618811 0.847562 0.106442
C10   C     C_R   0.634625 0.505100 0.139089 0.104145
C11   C     C_R   0.425457 0.495935 0.893284 0.254223
C12   C     C_R   0.486737 0.533755 0.095092 0.238047
C13   C     C_R   0.526642 0.383361 0.861904 0.145889
C14   C     C_R   0.334819 0.555904 0.134042 0.166313
C15   C     C_R   0.571732 0.390723 0.782541 0.076133
C16   C     C_R   0.329766 0.517903 0.214344 0.087024
C17   C     C_1   0.500065 0.065473 0.500014 -0.177680
C18   C     C_1   0.499942 0.934524 0.499852 -0.176835
Cu1   Cu    Cu3+1 0.669080 0.500010 0.500000 0.987186
Cu2   Cu    Cu3+1 0.330920 0.499990 0.500000 0.991050
N1    N     N_1   0.076820 0.499970 0.500010 -0.052941
N2    N     N_1   0.923180 0.500030 0.499990 -0.054454
N3    N     N_2   0.386768 0.489820 0.973344 -0.236387
N4    N     N_2   0.500977 0.550376 0.013154 -0.246323
O1    O     O_R   0.642760 0.288400 0.500000 -0.574505
O2    O     O_R   0.357240 0.711600 0.500000 -0.575322
O3    O     O_R   0.357190 0.288380 0.500000 -0.574903
O4    O     O_R   0.642810 0.711620 0.500000 -0.577000
O5    O     O_R   0.658410 0.498660 0.613920 -0.580085
O6    O     O_R   0.341590 0.501340 0.386080 -0.580909
O7    O     O_R   0.372840 0.498650 0.613930 -0.574656
O8    O     O_R   0.627160 0.501350 0.386070 -0.583997
C19   C     C_3   0.790292 0.592213 0.260597 -0.822489
H1    H     H_    0.755329 0.684158 0.299506 0.237297
H2    H     H_    0.854008 0.503890 0.295253 0.262133
H3    H     H_    0.876030 0.643225 0.218484 0.213873
C20   C     C_3   0.372953 0.761683 0.719247 -0.800997
H4    H     H_    0.444953 0.769643 0.664832 0.213341
H5    H     H_    0.235636 0.757193 0.703286 0.234633
H6    H     H_    0.401052 0.865175 0.750884 0.228120
C21   C     C_3   0.787106 0.441759 0.099682 -0.390726
C22   C     C_3   0.823246 0.284786 0.127938 -0.841129
H7    H     H_    0.715937 0.211771 0.110466 0.252812
H8    H     H_    0.940108 0.243418 0.100923 0.245975
H9    H     H_    0.841392 0.280328 0.192579 0.261001
H10   H     H_    0.895440 0.513054 0.110714 0.201598
H11   H     H_    0.771478 0.437674 0.035058 0.227403
C23   C     C_3   0.265783 0.738235 0.882995 -0.350563
C24   C     C_3   0.374800 0.859398 0.920419 -0.827279
H12   H     H_    0.445890 0.818057 0.972885 0.268611
H13   H     H_    0.467918 0.901605 0.878732 0.244685
H14   H     H_    0.292528 0.951589 0.938392 0.235992
H15   H     H_    0.177904 0.787832 0.838296 0.200890
H16   H     H_    0.181283 0.690813 0.927075 0.205431
C25   C     C_3   0.582923 0.254076 0.912740 -0.842808
H17   H     H_    0.535195 0.257413 0.972959 0.251982
H18   H     H_    0.723487 0.250580 0.917680 0.231497
H19   H     H_    0.534505 0.150826 0.886321 0.226183
C26   C     C_3   0.191076 0.637326 0.093503 -0.859296
H20   H     H_    0.099303 0.678902 0.135744 0.222641
H21   H     H_    0.240894 0.736846 0.064481 0.240743
H22   H     H_    0.127561 0.566355 0.049066 0.239962
C27   C     C_3   0.674232 0.269866 0.745031 -0.816496
H23   H     H_    0.716742 0.181234 0.785626 0.232481
H24   H     H_    0.597499 0.217551 0.697248 0.215134
H25   H     H_    0.790354 0.317930 0.720323 0.245479
C28   C     C_3   0.166794 0.474192 0.249108 -0.851918
H26   H     H_    0.071681 0.449322 0.203154 0.251709
H27   H     H_    0.182315 0.370053 0.282851 0.244080
H28   H     H_    0.124950 0.564753 0.287058 0.257985

loop_
_geom_bond_atom_site_label_1
_geom_bond_atom_site_label_2
_ccdc_geom_bond_type
C23   H16   S    
C3    O7    A    
C25   H17   S    
C27   H24   S    
C19   H3    S    
C20   H4    S    
C14   C26   S    
Cu2   O3    S    
C2    C18   S    
C11   C13   A    
C21   C22   S    
C12   N4    S    
C1    C17   S    
Cu1   Cu2   S    
N3    N4    D    
C24   H14   S    
C13   C25   S    
C28   H28   S    
C25   H18   S    
C19   H1    S    
C7    C20   S    
C27   H25   S    
C26   H20   S    
C2    O2    A    
C16   C28   S    
Cu2   O6    S    
N1    N2    T    
C10   C21   S    
C1    O1    A    
Cu1   O4    S    
C9    C11   A    
C3    O5    A    
C4    O8    A    
C21   H10   S    
C22   H8    S    
Cu1   O8    S    
C10   C12   A    
C11   N3    S    
C23   C24   S    
C19   H2    S    
C12   C14   A    
C17   C18   T    
C20   H6    S    
C8    C19   S    
C13   C15   A    
C21   H11   S    
C23   H15   S    
Cu1   O1    S    
C14   C16   A    
C5    C15   A    
C4    C6    S    
C26   H21   S    
C22   H7    S    
C6    C16   A    
C27   H23   S    
Cu1   O5    S    
C7    C9    A    
C20   H5    S    
Cu1   N2    S    
Cu2   N1    S    
C9    C23   S    
C5    C7    A    
C24   H12   S    
C25   H19   S    
C1    O3    A    
C15   C27   S    
C2    O4    A    
C26   H22   S    
C6    C8    A    
C3    C5    S    
C28   H27   S    
C22   H9    S    
C8    C10   A    
C4    O6    A    
C28   H26   S    
Cu2   O2    S    
C24   H13   S    
Cu2   O7    S    
