data_mof_unit_4441.cif
_audit_creation_date              2013-03-05T15:42:47-0500
_audit_creation_method            fapswitch 2.2
_symmetry_space_group_name_H-M    P1
_symmetry_Int_Tables_number       1
_space_group_crystal_system       triclinic
_cell_length_a                    6.935605
_cell_length_b                    14.86084
_cell_length_c                    16.180586
_cell_angle_alpha                 90.453525
_cell_angle_beta                  89.68289
_cell_angle_gamma                 90.100188
_cell_volume                      1667.63525196

loop_
_atom_site_label
_atom_site_type_symbol
_atom_site_description
_atom_site_fract_x
_atom_site_fract_y
_atom_site_fract_z
_atom_type_partial_charge
O1    O     O_R   0.494400 0.416610 0.413880 -0.562203
O2    O     O_R   0.823920 0.406790 0.585520 -0.563132
O3    O     O_R   0.994250 0.583390 0.586120 -0.553078
C1    C     C_R   0.654958 0.384175 0.612935 0.831356
O4    O     O_R   0.824110 0.405730 0.414490 -0.566028
O5    O     O_R   0.994440 0.582310 0.413870 -0.569492
C2    C     C_R   0.655973 0.382904 0.386938 0.817888
O6    O     O_R   0.494210 0.417690 0.586130 -0.567194
O7    O     O_3   0.660810 0.557940 0.500000 -0.269986
V1    V     V_3+5 0.935650 0.489250 0.500000 1.109883
O8    O     O_R   0.324160 0.593210 0.414480 -0.564267
C3    C     C_R   0.157074 0.614261 0.385875 0.801374
O9    O     O_R   0.323970 0.594270 0.585510 -0.558638
C4    C     C_R   0.155287 0.614422 0.615258 0.808340
V2    V     V_3+5 0.435660 0.510750 0.500000 1.115912
O10   O     O_3   0.160630 0.442060 0.500000 -0.287599
H1    H     H_    0.352755 0.905129 0.508166 0.074027
C5    C     C_R   0.048118 0.566793 0.783216 -0.170103
C6    C     C_R   0.995466 0.540390 0.863321 0.370223
C7    C     C_R   0.986783 0.605493 0.926819 0.153169
C8    C     C_R   0.026611 0.695571 0.908896 -0.158539
C9    C     C_R   0.076851 0.723526 0.828221 0.000506
C10   C     C_R   0.088735 0.657666 0.764155 -0.023458
C11   C     C_R   0.116496 0.815513 0.811421 -0.104979
C12   C     C_R   0.166451 0.841627 0.728950 -0.082312
C13   C     C_R   0.191721 0.773973 0.666622 -0.001379
C14   C     C_R   0.145715 0.682864 0.683163 -0.081364
C15   C     C_R   0.189036 0.933635 0.705548 0.340502
C16   C     C_R   0.265254 0.955666 0.627382 0.178166
C17   C     C_R   0.299524 0.888169 0.569165 -0.159380
C18   C     C_R   0.257746 0.799324 0.587295 -0.109947
H2    H     H_    0.055691 0.515201 0.735775 0.104538
H3    H     H_    0.020463 0.743008 0.959873 0.066868
H4    H     H_    0.278756 0.751020 0.537820 0.085830
C19   C     C_2   0.996680 0.706805 0.279788 -0.098251
C20   C     C_2   0.161193 0.679182 0.316638 0.047488
H5    H     H_    0.860004 0.680340 0.301947 0.069615
C21   C     C_2   0.984557 0.766020 0.205777 -0.094360
C22   C     C_2   0.121070 0.825678 0.183564 -0.191312
H6    H     H_    0.853703 0.761250 0.169407 0.084968
H7    H     H_    0.247404 0.836953 0.220304 0.110429
C23   C     C_2   0.777356 0.205615 0.778790 0.026723
C24   C     C_2   0.613269 0.178705 0.815727 -0.230734
H8    H     H_    0.913121 0.180287 0.801622 0.182899
H9    H     H_    0.475522 0.200729 0.792045 0.102182
C25   C     C_2   0.784339 0.259978 0.701643 0.190130
C26   C     C_2   0.645242 0.321137 0.683511 -0.227422
H10   H     H_    0.523237 0.329815 0.724996 0.062106
C27   C     C_2   0.762761 0.195322 0.223687 -0.075161
C28   C     C_2   0.616759 0.190458 0.168667 0.017932
H11   H     H_    0.873435 0.143651 0.221427 0.068628
C29   C     C_2   0.793833 0.268802 0.285325 0.182867
C30   C     C_2   0.643041 0.311294 0.323037 -0.241559
H12   H     H_    0.497779 0.289704 0.308934 0.092894
O11   O     O_R   0.770210 0.079270 0.910680 -0.523192
O12   O     O_R   0.440150 0.091160 0.082270 -0.574888
O13   O     O_R   0.269970 0.914530 0.082860 -0.567923
C31   C     C_R   0.608631 0.114583 0.109063 0.798319
O14   O     O_R   0.440480 0.090100 0.911240 -0.525465
O15   O     O_R   0.270310 0.913460 0.910610 -0.557035
C32   C     C_R   0.609356 0.112654 0.883817 0.904161
O16   O     O_R   0.769870 0.080340 0.082930 -0.574259
O17   O     O_3   0.603660 0.938980 0.996790 -0.283931
V3    V     V_3+5 0.328750 0.007610 0.996740 1.185232
O18   O     O_R   0.940600 0.902510 0.911180 -0.535501
C33   C     C_R   0.109160 0.882615 0.880984 0.893691
O19   O     O_R   0.940270 0.903570 0.082200 -0.574038
C34   C     C_R   0.108463 0.883472 0.110910 0.804013
V4    V     V_3+5 0.828770 0.986010 0.996670 1.183935
O20   O     O_3   0.103730 0.054750 0.996710 -0.259171
N1    N     N_2   0.345526 0.704405 0.284532 -0.425748
H13   H     H_    0.426823 0.650324 0.264534 0.196594
C35   C     C_3   0.454916 0.765917 0.336333 -0.251082
H14   H     H_    0.573479 0.795917 0.299279 0.104924
H15   H     H_    0.519585 0.730302 0.389416 0.137926
H16   H     H_    0.361739 0.821376 0.359863 0.096935
N2    N     N_2   0.937522 0.240707 0.644865 -0.415403
H17   H     H_    0.904582 0.246420 0.583095 0.178751
C36   C     C_3   0.124287 0.276718 0.666855 -0.061641
H18   H     H_    0.120082 0.351365 0.669178 0.133481
H19   H     H_    0.232478 0.255718 0.619799 0.074149
H20   H     H_    0.170369 0.250878 0.727689 0.148122
N3    N     N_2   0.476998 0.260450 0.162600 -0.448719
H21   H     H_    0.341181 0.238290 0.146558 0.219616
C37   C     C_3   0.538631 0.336124 0.113276 -0.187652
H22   H     H_    0.426357 0.389280 0.115518 0.101971
H23   H     H_    0.560616 0.314691 0.047921 0.139827
H24   H     H_    0.674840 0.365116 0.137719 0.130688
N4    N     N_2   0.989313 0.287557 0.306266 -0.419901
H25   H     H_    0.028607 0.354435 0.307527 0.217932
C38   C     C_3   0.064653 0.234002 0.373037 -0.181260
H26   H     H_    0.216638 0.252960 0.385100 0.102760
H27   H     H_    0.059800 0.161405 0.356307 0.082729
H28   H     H_    0.979745 0.245389 0.430528 0.103874
N5    N     N_R   0.951048 0.447461 0.879185 0.083485
O21   O     O_R   0.821963 0.425553 0.934161 -0.372892
O22   O     O_R   0.033411 0.384065 0.835918 -0.422552
N6    N     N_2   0.941219 0.580875 0.009532 -0.386044
H29   H     H_    0.868748 0.630154 0.042465 0.187317
C39   C     C_3   0.102417 0.545333 0.055235 -0.177747
H30   H     H_    0.215130 0.597940 0.063182 0.084654
H31   H     H_    0.165318 0.486094 0.022681 0.148376
H32   H     H_    0.052369 0.523596 0.117278 0.096475
N7    N     N_R   0.102244 0.004178 0.753229 0.066843
O23   O     O_R   0.201546 0.075138 0.773354 -0.397818
O24   O     O_R   0.915456 0.005905 0.760284 -0.415590
N8    N     N_2   0.294924 0.047020 0.605193 -0.389533
H33   H     H_    0.239074 0.062561 0.548048 0.181275
C40   C     C_3   0.493131 0.076220 0.613040 -0.170946
H34   H     H_    0.503249 0.149350 0.600495 0.078552
H35   H     H_    0.586417 0.039725 0.567872 0.087823
H36   H     H_    0.546105 0.063772 0.676581 0.159931

loop_
_geom_bond_atom_site_label_1
_geom_bond_atom_site_label_2
_geom_bond_distance
_ccdc_geom_bond_type
C31   O16   1.296800 A    
N5    O21   1.301370 A    
C35   H15   1.109648 S    
C22   C34   1.464473 S    
C6    C7    1.406791 A    
C1    O6    1.299948 A    
N7    O24   1.300159 A    
C22   H7    1.073724 S    
N2    H17   1.030686 S    
C12   C15   1.429778 A    
O14   V3    2.007190 S    
C5    H2    1.081768 S    
C15   C16   1.408840 A    
C19   H5    1.085807 S    
C40   H35   1.112026 S    
O5    C3    1.303389 A    
C17   C18   1.384591 A    
C8    H3    1.081498 S    
V2    O10   2.161889 S    
N6    H29   1.032004 S    
C5    C6    1.403413 A    
C35   H14   1.109906 S    
O8    V2    2.014074 S    
C26   H10   1.084413 S    
C27   H11   1.086957 S    
N8    H33   1.032461 S    
O12   V3    2.008758 S    
O1    V2    2.007432 S    
V3    O20   1.711788 S    
C4    C14   1.492594 S    
N4    C38   1.447413 S    
O7    V1    2.163873 S    
C20   N1    1.427899 S    
C11   C33   1.498553 S    
C37   H23   1.111762 S    
O15   C33   1.299911 A    
C13   C18   1.414106 A    
C8    C9    1.414576 A    
H1    C17   1.083316 S    
N8    C40   1.446773 S    
C29   N4    1.425794 S    
C23   H8    1.082628 S    
N7    O23   1.298816 A    
C28   N3    1.427346 S    
N2    C36   1.445865 S    
O14   C32   1.294726 A    
O19   C34   1.294292 A    
C28   C31   1.479144 S    
O17   V4    1.709450 S    
C19   C21   1.494537 S    
C11   C12   1.433161 A    
C40   H36   1.110711 S    
C38   H26   1.108594 S    
N1    C35   1.451291 S    
C12   C13   1.428702 A    
C30   H12   1.081799 S    
C39   H32   1.110642 S    
C5    C10   1.415096 A    
O16   V4    2.011165 S    
O19   V4    2.014005 S    
C19   C20   1.356078 D    
O2    C1    1.295445 A    
C16   C17   1.390451 A    
C38   H27   1.110717 S    
C15   N7    1.428570 S    
N3    H21   1.031213 S    
C27   C29   1.489226 S    
C39   H31   1.110963 S    
C13   C14   1.417724 A    
C18   H4    1.080453 S    
C24   H9    1.083417 S    
C37   H22   1.110436 S    
O11   V4    2.015041 S    
O3    C4    1.297302 A    
N3    C37   1.446765 S    
O18   C33   1.298252 A    
O6    V2    2.014549 S    
C10   C14   1.419627 A    
O9    V2    2.004805 S    
C23   C25   1.492786 S    
C35   H16   1.111752 S    
C9    C11   1.421948 A    
C36   H18   1.110088 S    
C3    C20   1.484359 S    
C23   C24   1.344213 D    
C2    C30   1.480841 S    
O13   C34   1.292143 A    
O2    V1    2.007140 S    
C6    N5    1.439176 S    
C29   C30   1.361623 D    
C24   C32   1.481464 S    
O13   V3    2.010870 S    
O4    C2    1.294468 A    
C37   H24   1.111083 S    
C25   C26   1.361338 D    
O1    C2    1.299922 A    
O5    V1    2.010788 S    
C36   H20   1.108334 S    
O8    C3    1.290156 A    
N5    O22   1.300401 A    
C25   N2    1.428586 S    
C36   H19   1.109458 S    
O15   V3    2.009356 S    
O7    V2    1.710676 S    
N1    H13   1.031497 S    
O3    V1    2.009369 S    
V1    O10   1.711837 S    
C40   H34   1.109179 S    
C38   H28   1.110213 S    
C21   H6    1.086282 S    
C21   C22   1.345345 D    
O18   V4    2.004775 S    
O11   C32   1.300147 A    
C39   H30   1.111853 S    
O12   C31   1.294735 A    
V4    O20   2.161811 S    
N6    C39   1.446773 S    
O17   V3    2.163887 S    
O4    V1    2.008641 S    
C7    N6    1.423928 S    
C7    C8    1.398681 A    
C27   C28   1.353470 D    
C9    C10   1.422173 A    
C16   N8    1.421355 S    
N4    H25   1.030178 S    
O9    C4    1.297228 A    
C1    C26   1.483939 S    
