data_mof_unit_1977.cif
_audit_creation_date              2012-12-10T18:31:56-0500
_audit_creation_method            fapswitch 2.2
_symmetry_space_group_name_H-M    P1
_symmetry_Int_Tables_number       1
_space_group_crystal_system       triclinic
_cell_length_a                    10.649741
_cell_length_b                    14.931608
_cell_length_c                    15.444966
_cell_angle_alpha                 82.205914
_cell_angle_beta                  89.713706
_cell_angle_gamma                 104.06565
_cell_volume                      2358.53674334

loop_
_atom_site_label
_atom_site_type_symbol
_atom_type_description
_atom_site_fract_x
_atom_site_fract_y
_atom_site_fract_z
_atom_type_partial_charge
C1    C     C_R   0.484290 0.441853 0.662321 0.846502
C2    C     C_3   0.120635 0.497767 0.505296 0.132922
C3    C     C_3   0.067882 0.487668 0.412926 -0.487490
C4    C     C_3   0.101912 0.591272 0.530989 -0.376216
C5    C     C_R   0.494175 0.407623 0.754649 -0.063016
C6    C     C_R   0.556162 0.592973 0.245273 -0.116324
C7    C     C_R   0.478850 0.283288 0.875113 -0.200321
C8    C     C_R   0.463827 0.312348 0.786944 -0.199635
C9    C     C_R   0.542827 0.473063 0.810208 -0.260293
C10   C     C_R   0.560728 0.445783 0.898264 0.090121
C11   C     C_R   0.523937 0.349465 0.931434 0.177485
C12   C     C_R   0.741788 0.499922 0.501529 0.854821
C13   C     C_R   0.603517 0.512684 0.955337 0.072753
C14   C     C_R   0.585213 0.483690 0.046151 0.085145
C15   C     C_R   0.556605 0.387003 0.077726 -0.233534
C16   C     C_R   0.528807 0.320971 0.020729 -0.244054
C17   C     C_R   0.660922 0.607607 0.924893 -0.241262
C18   C     C_R   0.684700 0.673731 0.981898 -0.230843
C19   C     C_R   0.646670 0.648253 0.070585 0.152076
C20   C     C_R   0.594237 0.552372 0.102231 0.049713
C21   C     C_R   0.657644 0.715883 0.128401 0.210354
C22   C     C_R   0.613529 0.686962 0.215876 -0.206057
C23   C     C_R   0.521594 0.558292 0.337625 0.879063
C24   C     C_R   0.543687 0.527659 0.187790 -0.271185
C25   C     C_R   0.678805 0.838402 0.645989 -0.304652
C26   C     C_R   0.658381 0.752446 0.616617 0.015251
C27   C     C_R   0.509149 0.792766 0.513979 -0.052613
C28   C     C_R   0.524583 0.881112 0.541339 -0.006467
C29   C     C_R   0.610850 0.902676 0.609278 0.130082
C30   C     C_R   0.458288 0.948024 0.503833 0.039454
C31   C     C_R   0.483733 0.037417 0.532878 0.050428
C32   C     C_R   0.553845 0.050085 0.610768 0.176057
C33   C     C_R   0.622799 0.985488 0.643855 -0.224465
C34   C     C_R   0.257863 0.499351 0.501024 0.851475
C35   C     C_R   0.365923 0.928051 0.439172 -0.225223
C36   C     C_R   0.306704 0.995155 0.399761 -0.213980
C37   C     C_R   0.343311 0.085879 0.419055 0.181252
C38   C     C_R   0.435977 0.109046 0.483182 0.003784
C39   C     C_R   0.289973 0.154404 0.373388 -0.323491
C40   C     C_R   0.331224 0.245714 0.390078 0.011359
C41   C     C_R   0.482259 0.204312 0.490605 -0.074907
C42   C     C_3   0.896187 0.411731 0.569833 0.030781
C43   C     C_3   0.043937 0.413773 0.572480 0.030335
C44   C     C_3   0.925605 0.491652 0.412370 -0.471468
C45   C     C_3   0.958998 0.590019 0.534537 -0.397228
C46   C     C_3   0.877746 0.498411 0.505736 0.137212
H1    H     H_    0.848079 0.348198 0.540859 0.137553
H2    H     H_    0.153184 0.650788 0.481765 0.173887
H3    H     H_    0.915010 0.553144 0.366026 0.184806
H4    H     H_    0.125229 0.544556 0.363684 0.179807
H5    H     H_    0.504824 0.247537 0.047081 0.146599
H6    H     H_    0.728471 0.745368 0.954857 0.159420
H7    H     H_    0.452106 0.209422 0.899696 0.134701
H8    H     H_    0.426800 0.260770 0.744581 0.162295
H9    H     H_    0.561139 0.545996 0.784534 0.161051
H10   H     H_    0.557266 0.360727 0.146358 0.151425
H11   H     H_    0.691339 0.632286 0.857267 0.140238
H12   H     H_    0.680514 0.997506 0.700814 0.151433
H13   H     H_    0.563276 0.229570 0.529559 0.154363
H14   H     H_    0.287955 0.299003 0.357511 0.129922
H15   H     H_    0.235511 0.976751 0.351090 0.141190
H16   H     H_    0.744456 0.853538 0.698445 0.138389
H17   H     H_    0.707031 0.700927 0.646303 0.122248
H18   H     H_    0.335053 0.860487 0.418281 0.133121
H19   H     H_    0.216880 0.137436 0.325634 0.142787
H20   H     H_    0.866805 0.428265 0.388021 0.185869
H21   H     H_    0.076406 0.420277 0.393249 0.180136
H22   H     H_    0.944370 0.651758 0.490253 0.182471
H23   H     H_    0.928815 0.597246 0.601730 0.175925
H24   H     H_    0.143804 0.604355 0.595234 0.186204
N1    N     N_R   0.573860 0.731700 0.552730 -0.099854
N2    N     N_R   0.426060 0.268290 0.447230 -0.100406
O1    O     O_R   0.462770 0.383110 0.605620 -0.616056
O2    O     O_R   0.510160 0.531900 0.639510 -0.615685
O3    O     O_R   0.661510 0.425600 0.483070 -0.631595
O4    O     O_R   0.708900 0.574390 0.516960 -0.627291
O5    O     O_R   0.489840 0.468100 0.360490 -0.618625
O6    O     O_R   0.537230 0.616890 0.394380 -0.619126
O7    O     O_R   0.291100 0.425610 0.483040 -0.628992
O8    O     O_R   0.338490 0.574400 0.516930 -0.625134
Zn1   Zn    Zn3+2 0.468350 0.400660 0.477370 0.925925
Zn2   Zn    Zn3+2 0.531650 0.599340 0.522630 0.928235
H25   H     H_    0.491128 0.456908 0.210514 0.167630
H26   H     H_    0.624551 0.737573 0.261126 0.161453
C47   C     C_3   0.826335 0.399561 0.660419 -0.910614
H27   H     H_    0.721004 0.391441 0.653278 0.236987
H28   H     H_    0.836526 0.334639 0.700954 0.247074
H29   H     H_    0.863806 0.459734 0.695903 0.251031
C48   C     C_3   0.715704 0.818234 0.098750 -0.963329
H30   H     H_    0.716992 0.860380 0.152892 0.244275
H31   H     H_    0.817156 0.828871 0.074177 0.242099
H32   H     H_    0.657893 0.844539 0.046004 0.243439
H33   H     H_    0.445574 0.769394 0.463366 0.122369
C49   C     C_3   0.100532 0.412495 0.664793 -0.889514
H34   H     H_    0.053691 0.346478 0.707102 0.243957
H35   H     H_    0.205330 0.414993 0.661619 0.228524
H36   H     H_    0.087641 0.472114 0.696535 0.251682
C50   C     C_3   0.540416 0.120232 0.669943 -0.958414
H37   H     H_    0.628375 0.179001 0.663506 0.241916
H38   H     H_    0.451872 0.145636 0.657029 0.244101
H39   H     H_    0.528950 0.086988 0.739355 0.244670
H40   H     H_    0.055339 0.348358 0.549702 0.139727

loop_
_geom_bond_atom_site_label_1
_geom_bond_atom_site_label_2
_ccdc_geom_bond_type
C44   H3    S    
C33   H12   S    
C40   H14   S    
C44   H20   S    
C19   C20   A    
C16   H5    S    
C4    H24   S    
C18   H6    S    
C7    C8    A    
C21   C48   S    
C45   C46   S    
C7    C11   A    
C30   C35   A    
C1    C5    S    
C1    O2    A    
C36   C37   A    
C19   C21   A    
C24   H25   S    
C30   C31   A    
C15   C16   A    
C6    C22   A    
C29   C33   A    
C43   C49   S    
C18   C19   A    
C42   C46   S    
C34   O8    A    
C20   C24   A    
C35   H18   S    
C9    H9    S    
C48   H31   S    
C9    C10   A    
N2    Zn1   S    
C25   H16   S    
N1    Zn2   S    
C2    C34   S    
C21   C22   A    
C26   N1    A    
C39   H19   S    
O2    Zn2   S    
O1    Zn1   S    
C3    H4    S    
C44   C46   S    
C4    C45   S    
C47   H28   S    
C25   C29   A    
C3    C44   S    
C45   H23   S    
C14   C20   A    
C41   H13   S    
C38   C41   A    
O8    Zn2   S    
C8    H8    S    
C39   C40   A    
O7    Zn1   S    
O3    Zn1   S    
C49   H36   S    
C25   C26   A    
C47   H27   S    
C35   C36   A    
C22   H26   S    
C2    C4    S    
C26   H17   S    
C5    C9    A    
C37   C38   A    
C34   O7    A    
C11   C16   A    
O6    Zn2   S    
C31   C32   A    
O5    Zn1   S    
C2    C43   S    
C6    C24   A    
C45   H22   S    
C17   C18   A    
C42   C47   S    
C23   O5    A    
C48   H32   S    
C49   H35   S    
C41   N2    A    
C12   C46   S    
C50   H38   S    
C12   O4    A    
C27   H33   S    
C42   C43   S    
C7    H7    S    
O4    Zn2   S    
C36   H15   S    
C27   N1    A    
C4    H2    S    
C47   H29   S    
C28   C29   A    
C40   N2    A    
C3    H21   S    
C10   C13   A    
C5    C8    A    
C50   H39   S    
C31   C38   A    
C13   C17   A    
C1    O1    A    
C32   C33   A    
C28   C30   A    
C2    C3    S    
C43   H40   S    
C37   C39   A    
C15   H10   S    
C6    C23   S    
C32   C50   S    
C42   H1    S    
C23   O6    A    
C49   H34   S    
C10   C11   A    
C50   H37   S    
C12   O3    A    
C27   C28   A    
C14   C15   A    
C48   H30   S    
C13   C14   A    
C17   H11   S    
