data_mof_unit_706.cif
_audit_creation_date              2013-03-05T16:26:36-0500
_audit_creation_method            fapswitch 2.2
_symmetry_space_group_name_H-M    P1
_symmetry_Int_Tables_number       1
_space_group_crystal_system       triclinic
_cell_length_a                    19.4523
_cell_length_b                    18.086179
_cell_length_c                    10.831933
_cell_angle_alpha                 90.085596
_cell_angle_beta                  89.456828
_cell_angle_gamma                 89.981069
_cell_volume                      3810.69089411

loop_
_atom_site_label
_atom_site_type_symbol
_atom_site_description
_atom_site_fract_x
_atom_site_fract_y
_atom_site_fract_z
_atom_type_partial_charge
O1    O     O_R   0.400190 0.561980 0.499980 -0.568904
O2    O     O_R   0.599810 0.438020 0.500020 -0.567177
O3    O     O_R   0.599810 0.561980 0.500020 -0.569218
O4    O     O_R   0.400190 0.438020 0.499980 -0.569082
C1    C     C_R   0.367787 0.500018 0.499722 0.946140
C2    C     C_R   0.632227 0.499999 0.500300 0.942997
O5    O     O_R   0.500000 0.561950 0.319660 -0.591387
O6    O     O_R   0.500000 0.438050 0.680340 -0.600258
O7    O     O_R   0.500000 0.561950 0.680340 -0.589728
O8    O     O_R   0.500000 0.438050 0.319660 -0.597123
C3    C     C_R   0.508514 0.499915 0.262072 0.905666
C4    C     C_R   0.491649 0.500059 0.737979 0.903277
Cu1   Cu    Cu3+1 0.500000 0.573360 0.500000 1.011645
Cu2   Cu    Cu3+1 0.500000 0.426640 0.500000 1.011799
H1    H     H_    0.530974 0.244745 0.095571 0.175353
H2    H     H_    0.468810 0.754957 0.904744 0.167116
H3    H     H_    0.464129 0.245659 0.902457 0.173652
H4    H     H_    0.536065 0.754104 0.097436 0.165919
C5    C     C_R   0.535548 0.635528 0.112358 -0.113054
C6    C     C_R   0.464788 0.364219 0.887526 -0.097898
C7    C     C_R   0.467286 0.636419 0.888685 -0.109664
C8    C     C_R   0.532573 0.363269 0.111619 -0.100110
C9    C     C_R   0.520432 0.702513 0.055388 -0.052833
C10   C     C_R   0.479733 0.297236 0.944589 -0.069408
C11   C     C_R   0.483594 0.702983 0.946256 -0.052868
C12   C     C_R   0.516333 0.296733 0.053942 -0.068256
C13   C     C_R   0.487953 0.567853 0.939698 0.093950
C14   C     C_R   0.512159 0.431912 0.060437 0.077193
C15   C     C_R   0.513627 0.567508 0.060753 0.089575
C16   C     C_R   0.486631 0.432268 0.939242 0.075600
C17   C     C_R   0.483173 0.500141 0.874096 -0.131454
C18   C     C_R   0.517047 0.499688 0.125967 -0.132939
H5    H     H_    0.565986 0.637699 0.195259 0.165274
H6    H     H_    0.434514 0.361939 0.804468 0.196458
H7    H     H_    0.436753 0.639420 0.805999 0.166712
H8    H     H_    0.562832 0.360078 0.194571 0.198264
C19   C     C_R   0.744642 0.465405 0.404623 0.304408
C20   C     C_R   0.257126 0.531223 0.397272 0.294359
C21   C     C_R   0.255396 0.468767 0.598146 0.303753
C22   C     C_R   0.742962 0.534602 0.599576 0.295155
C23   C     C_R   0.816384 0.465690 0.406617 -0.173956
C24   C     C_R   0.185178 0.530805 0.398140 -0.173799
C25   C     C_R   0.183657 0.468957 0.596084 -0.172484
C26   C     C_R   0.814898 0.534219 0.598660 -0.174619
H9    H     H_    0.845104 0.440496 0.331329 0.188577
H10   H     H_    0.157495 0.553571 0.320609 0.189951
H11   H     H_    0.154937 0.446346 0.673494 0.188564
H12   H     H_    0.842578 0.559614 0.674002 0.189715
C27   C     C_R   0.851586 0.499936 0.502831 -0.031538
C28   C     C_R   0.148470 0.499847 0.496890 -0.031952
C29   C     C_R   0.707443 0.500001 0.501618 -0.269632
C30   C     C_R   0.292601 0.500037 0.498267 -0.268802
C31   C     C_R   0.963884 0.567631 0.496985 -0.069381
C32   C     C_R   0.036141 0.432372 0.500479 -0.070697
C33   C     C_R   0.036159 0.567626 0.496498 -0.069427
C34   C     C_R   0.963928 0.432454 0.505352 -0.070791
C35   C     C_R   0.072444 0.499973 0.497229 0.021413
C36   C     C_R   0.927613 0.500057 0.502434 0.021421
C37   C     C_R   0.461272 0.720694 0.416620 -0.005286
C38   C     C_R   0.538464 0.279298 0.583778 -0.001672
C39   C     C_R   0.538810 0.720787 0.583297 -0.005608
C40   C     C_R   0.461483 0.279172 0.416302 -0.003677
H13   H     H_    0.430324 0.689357 0.352652 0.204858
H14   H     H_    0.569195 0.310624 0.648077 0.186029
H15   H     H_    0.569748 0.689509 0.647232 0.206884
H16   H     H_    0.430752 0.310412 0.352017 0.186649
C41   C     C_R   0.459433 0.798523 0.414760 0.198644
C42   C     C_R   0.540339 0.201465 0.585629 0.203540
C43   C     C_R   0.540766 0.798622 0.585061 0.198186
C44   C     C_R   0.459536 0.201329 0.414570 0.203323
C45   C     C_R   0.500096 0.838764 0.499928 -0.152406
C46   C     C_R   0.499953 0.161204 0.500088 -0.149856
N1    N     N_R   0.500000 0.683620 0.500000 -0.240513
N2    N     N_R   0.500000 0.316380 0.500000 -0.232737
C47   C     C_R   0.475440 0.961231 0.602999 -0.063467
C48   C     C_R   0.524640 0.038723 0.397040 -0.061358
C49   C     C_R   0.524672 0.961095 0.396992 -0.063036
C50   C     C_R   0.475391 0.038859 0.603036 -0.061583
H17   H     H_    0.456099 0.931987 0.683289 0.149961
H18   H     H_    0.543990 0.067963 0.316753 0.151733
H19   H     H_    0.544039 0.931748 0.316670 0.149996
H20   H     H_    0.456010 0.068202 0.683351 0.151402
C51   C     C_R   0.499995 0.078432 0.500059 0.186662
C52   C     C_R   0.500073 0.921527 0.499972 0.188268
N3    N     N_R   0.710571 0.432573 0.301070 0.127191
O9    O     O_R   0.662279 0.468625 0.244876 -0.411328
O10   O     O_R   0.735426 0.372995 0.250040 -0.316278
N4    N     N_R   0.292991 0.561829 0.292323 0.133680
O11   O     O_R   0.347314 0.529239 0.247159 -0.368895
O12   O     O_R   0.266332 0.616697 0.231656 -0.299046
N5    N     N_R   0.289473 0.439407 0.704396 0.124848
O13   O     O_R   0.337591 0.477395 0.757572 -0.409788
O14   O     O_R   0.264695 0.381528 0.760435 -0.317205
N6    N     N_R   0.707129 0.568602 0.701739 0.133101
O15   O     O_R   0.653453 0.536941 0.750911 -0.369276
O16   O     O_R   0.733318 0.626061 0.756360 -0.298859
C53   C     C_1   0.926913 0.637189 0.489196 0.285200
N7    N     N_1   0.897416 0.692623 0.482964 -0.190144
C54   C     C_1   0.073024 0.362583 0.496372 0.286660
N8    N     N_1   0.102440 0.306973 0.493076 -0.187239
C55   C     C_1   0.073115 0.637347 0.497934 0.285257
N9    N     N_1   0.102594 0.692913 0.499098 -0.189470
C56   C     C_1   0.927061 0.362913 0.515820 0.286547
N10   N     N_1   0.897650 0.307503 0.524189 -0.186549
N11   N     N_R   0.415014 0.835029 0.328424 0.133808
O17   O     O_R   0.400870 0.803663 0.223476 -0.331124
O18   O     O_R   0.381608 0.894558 0.360086 -0.282474
N12   N     N_R   0.584544 0.164963 0.672314 0.131516
O19   O     O_R   0.618212 0.105583 0.640758 -0.281824
O20   O     O_R   0.598232 0.196202 0.777565 -0.344593
N13   N     N_R   0.585365 0.835219 0.671153 0.134458
O21   O     O_R   0.599912 0.803882 0.775792 -0.330148
O22   O     O_R   0.618595 0.894769 0.639430 -0.282038
N14   N     N_R   0.415171 0.164693 0.328143 0.131494
O23   O     O_R   0.381703 0.105282 0.359799 -0.282384
O24   O     O_R   0.401067 0.195872 0.223175 -0.345501

loop_
_geom_bond_atom_site_label_1
_geom_bond_atom_site_label_2
_geom_bond_distance
_ccdc_geom_bond_type
C26   C27   1.398214 A    
O5    Cu1   1.963994 S    
C55   N9    1.157336 T    
C13   C15   1.407586 A    
N13   O21   1.301491 A    
O3    C2    1.286021 A    
N14   O23   1.301271 A    
C6    C16   1.418402 A    
N3    O9    1.299909 A    
C44   N14   1.440177 S    
O5    C3    1.292743 A    
N11   O18   1.301268 A    
O1    C1    1.285952 A    
Cu2   N2    1.994182 S    
C19   N3    1.436106 S    
C10   C12   1.387810 A    
C20   C24   1.399525 A    
C15   C18   1.418244 A    
C16   C17   1.418748 A    
C19   C29   1.415031 A    
C47   C52   1.406387 A    
C20   C30   1.416680 A    
N12   O19   1.301281 A    
C40   C44   1.408497 A    
C24   H10   1.083635 S    
C23   C27   1.396639 A    
C43   C45   1.420840 A    
O7    Cu1   1.964606 S    
C37   C41   1.408258 A    
C50   C51   1.406421 A    
C6    C10   1.392710 A    
N12   O20   1.301467 A    
C1    C30   1.462767 S    
C2    C29   1.463322 S    
C37   N1    1.359129 A    
O3    Cu1   1.952346 S    
C42   C46   1.420604 A    
C6    H6    1.080675 S    
N3    O10   1.301236 A    
C21   C30   1.414691 A    
C7    C13   1.418013 A    
C8    C14   1.418540 A    
Cu1   Cu2   2.653602 S    
C19   C23   1.395918 A    
O2    C2    1.286356 A    
C48   C51   1.406441 A    
C21   N5    1.435968 S    
C47   C50   1.403986 A    
C53   N7    1.157366 T    
C31   C33   1.405871 A    
C32   C34   1.405203 A    
H3    C10   1.082645 S    
C40   H16   1.081826 S    
C13   C17   1.418480 A    
H4    C9    1.082632 S    
C14   C18   1.419237 A    
C48   C49   1.403986 A    
O8    Cu2   1.964607 S    
C22   N6    1.439330 S    
N5    O13   1.299767 A    
C41   N11   1.440092 S    
H1    C12   1.082625 S    
C21   C25   1.395874 A    
C49   C52   1.406369 A    
C31   C53   1.451838 S    
C27   C36   1.478862 S    
C20   N4    1.439635 S    
C5    C9    1.392985 A    
N5    O14   1.301267 A    
C50   H20   1.083007 S    
C54   N8    1.157329 T    
C49   H19   1.083007 S    
O6    C4    1.292219 A    
N13   O22   1.301261 A    
N6    O16   1.301453 A    
C24   C28   1.398248 A    
N4    O12   1.301374 A    
C3    C18   1.482032 S    
C33   C35   1.412437 A    
C4    C17   1.482039 S    
C5    H5    1.080958 S    
C32   C54   1.452073 S    
O1    Cu1   1.952485 S    
C5    C15   1.417944 A    
C45   C52   1.496871 S    
C39   C43   1.408371 A    
H2    C11   1.082614 S    
C7    C11   1.393070 A    
O6    Cu2   1.963993 S    
C28   C35   1.478867 S    
C48   H18   1.083032 S    
C34   C56   1.452065 S    
Cu1   N1    1.994182 S    
O4    C1    1.286162 A    
N14   O24   1.301449 A    
C31   C36   1.412423 A    
C25   C28   1.396629 A    
C7    H7    1.080785 S    
C22   C29   1.416708 A    
C8    H8    1.080429 S    
N11   O17   1.301504 A    
C33   C55   1.451853 S    
C37   H13   1.081994 S    
C38   H14   1.081831 S    
C39   N1    1.359157 A    
C14   C16   1.407975 A    
C43   N13   1.440240 S    
C47   H17   1.083031 S    
C38   N2    1.359227 A    
C34   C36   1.412429 A    
C41   C45   1.420791 A    
C9    C11   1.388180 A    
O4    Cu2   1.952349 S    
N6    O15   1.300977 A    
O2    Cu2   1.952481 S    
O7    C4    1.292084 A    
C46   C51   1.497018 S    
O8    C3    1.291796 A    
C39   H15   1.081981 S    
C22   C26   1.399277 A    
N4    O11   1.300901 A    
C38   C42   1.408347 A    
C8    C12   1.392835 A    
C56   N10   1.157378 T    
C23   H9    1.083919 S    
C40   N2    1.359249 A    
C44   C46   1.420660 A    
C42   N12   1.440025 S    
C25   H11   1.083840 S    
C26   H12   1.083640 S    
C32   C35   1.412449 A    
