data_mof_unit_4457.cif
_audit_creation_date              2012-12-11T15:06:42-0500
_audit_creation_method            fapswitch 2.2
_symmetry_space_group_name_H-M    P1
_symmetry_Int_Tables_number       1
_space_group_crystal_system       triclinic
_cell_length_a                    7.215924
_cell_length_b                    15.265898
_cell_length_c                    22.316737
_cell_angle_alpha                 89.909464
_cell_angle_beta                  89.835757
_cell_angle_gamma                 90.361684
_cell_volume                      2458.29506862

loop_
_atom_site_label
_atom_site_type_symbol
_atom_type_description
_atom_site_fract_x
_atom_site_fract_y
_atom_site_fract_z
_atom_type_partial_charge
O1    O     O_R   0.390810 0.844810 0.447340 -0.535662
O2    O     O_R   0.109190 0.155190 0.947340 -0.532940
O3    O     O_R   0.890810 0.655190 0.552660 -0.532540
O4    O     O_R   0.609190 0.344810 0.052660 -0.539044
O5    O     O_R   0.720550 0.655820 0.440420 -0.503813
O6    O     O_R   0.779450 0.344180 0.940420 -0.495545
O7    O     O_R   0.220550 0.844180 0.559580 -0.497036
O8    O     O_R   0.279450 0.155820 0.059580 -0.502816
C1    C     C_R   0.551181 0.626813 0.426588 0.798757
C2    C     C_R   0.949335 0.373671 0.926718 0.781999
C3    C     C_R   0.051291 0.873389 0.573524 0.777443
C4    C     C_R   0.447845 0.126997 0.073756 0.780605
O9    O     O_R   0.720530 0.844130 0.440420 -0.521396
O10   O     O_R   0.779470 0.155870 0.940420 -0.520429
O11   O     O_R   0.220530 0.655870 0.559580 -0.520551
O12   O     O_R   0.279470 0.344130 0.059580 -0.514673
O13   O     O_R   0.890830 0.844810 0.552660 -0.553355
O14   O     O_R   0.609170 0.155190 0.052660 -0.549837
O15   O     O_R   0.390830 0.655190 0.447340 -0.549314
O16   O     O_R   0.109170 0.344810 0.947340 -0.555831
C5    C     C_R   0.553323 0.870262 0.424061 0.839173
C6    C     C_R   0.947402 0.130273 0.923650 0.837778
C7    C     C_R   0.052004 0.630436 0.576411 0.838404
C8    C     C_R   0.448166 0.370483 0.075688 0.823153
O17   O     O_3   0.557310 0.749980 0.536820 -0.369117
O18   O     O_3   0.942690 0.250020 0.036820 -0.369131
O19   O     O_3   0.057310 0.750020 0.463180 -0.372634
O20   O     O_3   0.442690 0.249980 0.963180 -0.370206
V1    V     V_3+5 0.832160 0.749980 0.493170 1.677509
V2    V     V_3+5 0.667840 0.250020 0.993170 1.687216
V3    V     V_3+5 0.332160 0.750020 0.506830 1.684457
V4    V     V_3+5 0.167840 0.249980 0.006830 1.687924
C9    C     C_R   0.148049 0.583642 0.870180 -0.013393
C10   C     C_R   0.413881 0.405502 0.370860 -0.009624
C11   C     C_R   0.569256 0.903836 0.129974 -0.050083
C12   C     C_R   0.854820 0.082413 0.629784 -0.008554
H1    H     H_    0.104226 0.525892 0.956249 0.193596
H2    H     H_    0.458961 0.463031 0.457020 0.186258
H3    H     H_    0.527837 0.962147 0.043838 0.185972
H4    H     H_    0.900848 0.025483 0.543830 0.193119
H5    H     H_    0.279112 0.693103 0.789766 0.201344
H6    H     H_    0.272578 0.298360 0.290816 0.196502
H7    H     H_    0.688220 0.789358 0.208759 0.219750
H8    H     H_    0.723147 0.191279 0.709686 0.202460
H9    H     H_    0.228242 0.637108 0.888895 0.209410
H10   H     H_    0.348491 0.347981 0.390135 0.205340
H11   H     H_    0.609839 0.841828 0.110567 0.207751
H12   H     H_    0.775066 0.135432 0.610831 0.215646
C13   C     C_R   0.973006 0.449874 0.886472 -0.168464
C14   C     C_R   0.534809 0.551772 0.385572 -0.174233
C15   C     C_R   0.463037 0.052122 0.115234 -0.161539
C16   C     C_R   0.028978 0.949386 0.613891 -0.169892
C17   C     C_R   0.989393 0.473990 0.594992 0.257952
C18   C     C_R   0.548469 0.521030 0.094760 0.277625
C19   C     C_R   0.532162 0.029519 0.406463 0.261953
C20   C     C_R   0.006700 0.973683 0.905654 0.257701
C21   C     C_R   0.988045 0.399205 0.631189 0.361019
C22   C     C_R   0.650436 0.576302 0.132229 0.331775
C23   C     C_R   0.555631 0.103652 0.370209 0.350141
C24   C     C_R   0.007986 0.898801 0.869679 0.358887
C25   C     C_R   0.018196 0.406087 0.693006 0.378242
C26   C     C_R   0.657660 0.559480 0.193805 0.365428
C27   C     C_R   0.569325 0.095230 0.307661 0.370516
C28   C     C_R   0.979383 0.905429 0.807754 0.377201
C29   C     C_R   0.038709 0.489607 0.719935 -0.076079
C30   C     C_R   0.534384 0.497439 0.220145 -0.061772
C31   C     C_R   0.551179 0.011400 0.280678 -0.071986
C32   C     C_R   0.960365 0.988805 0.780485 -0.076247
C33   C     C_R   0.086541 0.561961 0.681736 -0.136529
C34   C     C_R   0.442870 0.435397 0.181805 -0.128234
C35   C     C_R   0.580419 0.936779 0.318342 -0.147810
C36   C     C_R   0.912798 0.061145 0.818409 -0.136648
C37   C     C_R   0.035766 0.501376 0.783698 0.007733
C38   C     C_R   0.508524 0.491892 0.283687 0.018078
C39   C     C_R   0.528606 0.999021 0.217258 0.015063
C40   C     C_R   0.964467 0.000423 0.716628 0.008521
C41   C     C_R   0.127132 0.575085 0.808124 -0.051645
C42   C     C_R   0.427972 0.415521 0.308528 -0.050979
C43   C     C_R   0.575340 0.916836 0.192141 -0.066767
C44   C     C_R   0.874343 0.073824 0.691888 -0.053870
C45   C     C_R   0.202500 0.638597 0.770570 -0.033136
C46   C     C_R   0.346365 0.353599 0.271224 -0.023388
C47   C     C_R   0.637790 0.849397 0.228756 -0.067070
C48   C     C_R   0.798915 0.137084 0.729156 -0.034179
C49   C     C_R   0.180700 0.634306 0.708678 0.430945
C50   C     C_R   0.340180 0.366013 0.209416 0.437928
C51   C     C_R   0.645596 0.859077 0.290666 0.435255
C52   C     C_R   0.819913 0.133068 0.791088 0.431407
C53   C     C_R   0.943459 0.443413 0.824201 0.668302
C54   C     C_R   0.541220 0.563256 0.323003 0.679634
C55   C     C_R   0.456586 0.063888 0.177840 0.658595
C56   C     C_R   0.056555 0.942666 0.676318 0.670290
C57   C     C_R   0.075199 0.520822 0.908736 -0.156120
C58   C     C_R   0.474282 0.471646 0.409039 -0.157149
C59   C     C_R   0.519696 0.971810 0.091877 -0.164870
C60   C     C_R   0.928461 0.020203 0.591417 -0.164025
C61   C     C_R   0.044959 0.555444 0.618839 -0.219603
C62   C     C_R   0.463278 0.444923 0.118113 -0.200294
C63   C     C_R   0.553149 0.945451 0.381756 -0.215917
C64   C     C_R   0.952948 0.054988 0.881451 -0.217669
F1    F     F_    0.818420 0.384318 0.803832 -0.611989
F2    F     F_    0.543898 0.645854 0.300894 -0.645684
F3    F     F_    0.370401 0.135719 0.199504 -0.630455
F4    F     F_    0.179948 0.883717 0.697020 -0.612970
Cl1   Cl    Cl    0.941483 0.462811 0.517408 -0.543118
Cl2   Cl    Cl    0.547119 0.541334 0.016517 -0.547792
Cl3   Cl    Cl    0.499600 0.042768 0.484694 -0.561369
Cl4   Cl    Cl    0.052688 0.962788 0.983376 -0.548248
Cl5   Cl    Cl    0.085604 0.310003 0.731670 -0.521170
Cl6   Cl    Cl    0.851977 0.600913 0.233405 -0.468428
Cl7   Cl    Cl    0.665301 0.184974 0.267371 -0.496987
Cl8   Cl    Cl    0.911934 0.808952 0.769280 -0.520235
Cl9   Cl    Cl    0.958026 0.295435 0.597924 -0.473398
Cl10  Cl    Cl    0.785654 0.661907 0.100923 -0.462363
Cl11  Cl    Cl    0.584357 0.206942 0.404334 -0.466987
Cl12  Cl    Cl    0.036305 0.795136 0.903309 -0.470281
Cl13  Cl    Cl    0.312033 0.713488 0.670216 -0.524755
Cl14  Cl    Cl    0.175504 0.299548 0.173149 -0.517344
Cl15  Cl    Cl    0.790863 0.783580 0.326605 -0.520111
Cl16  Cl    Cl    0.689438 0.211993 0.829174 -0.524440

loop_
_geom_bond_atom_site_label_1
_geom_bond_atom_site_label_2
_ccdc_geom_bond_type
O17   V3    S    
C47   C51   A    
C22   C26   A    
C19   C23   A    
O19   V1    S    
C9    H9    S    
O3    C7    A    
H6    C46   S    
C44   C48   A    
C25   Cl5   S    
C36   C64   A    
C29   C37   A    
O1    C5    A    
O5    C1    A    
C8    C62   S    
C28   C32   A    
O9    V1    S    
H4    C60   S    
C18   C22   A    
O4    C8    A    
C29   C33   A    
C28   Cl8   S    
C30   C38   A    
O1    V3    S    
H7    C47   S    
O2    V4    S    
C21   C25   A    
O3    V1    S    
C12   C60   A    
C54   F2    S    
C3    C16   S    
C15   C55   A    
C1    O15   A    
C20   Cl4   S    
C2    O16   A    
O2    C6    A    
C16   C60   A    
C10   H10   S    
C52   Cl16  S    
C39   C55   A    
C53   F1    S    
O11   C7    A    
O15   V3    S    
O12   C8    A    
O10   V2    S    
C36   C52   A    
C14   C54   A    
O5    V1    S    
C27   C31   A    
O7    V3    S    
C18   Cl2   S    
H1    C57   S    
O8    V4    S    
C40   C44   A    
C6    C64   S    
C12   C44   A    
C55   F3    S    
C26   C30   A    
O18   V4    S    
C14   C58   A    
C21   Cl9   S    
C17   C61   A    
C46   C50   A    
C35   C63   A    
C20   C24   A    
C19   Cl3   S    
C32   C36   A    
O7    C3    A    
C51   Cl15  S    
C25   C29   A    
C42   C46   A    
C26   Cl6   S    
C41   C45   A    
O8    C4    A    
H5    C45   S    
H2    C58   S    
O9    C5    A    
C50   Cl14  S    
C32   C40   A    
C49   Cl13  S    
H3    C59   S    
C40   C56   A    
C35   C51   A    
C7    C61   S    
C10   C58   A    
O14   V2    S    
C16   C56   A    
C31   C39   A    
C20   C64   A    
C19   C63   A    
C34   C50   A    
C4    C15   S    
C33   C49   A    
O16   V4    S    
C3    O13   A    
C17   C21   A    
O6    V2    S    
C1    C14   S    
C48   C52   A    
C13   C53   A    
H8    C48   S    
C9    C57   A    
O6    C2    A    
O11   V3    S    
C11   C59   A    
O12   V4    S    
C23   C27   A    
C24   C28   A    
O10   C6    A    
O20   V2    S    
C37   C53   A    
O13   V1    S    
C10   C42   A    
C43   C47   A    
C9    C41   A    
C30   C34   A    
C5    C63   S    
C38   C54   A    
C11   C43   A    
C12   H12   S    
C31   C35   A    
C27   Cl7   S    
O4    V2    S    
C24   Cl12  S    
C56   F4    S    
C17   Cl1   S    
C23   Cl11  S    
C38   C42   A    
C4    O14   A    
C22   Cl10  S    
C37   C41   A    
C18   C62   A    
C13   C57   A    
C11   H11   S    
C2    C13   S    
C39   C43   A    
C45   C49   A    
C34   C62   A    
C15   C59   A    
C33   C61   A    
