data_mof_unit_1835.cif
_audit_creation_date              2012-12-10T17:04:27-0500
_audit_creation_method            fapswitch 2.2
_symmetry_space_group_name_H-M    P1
_symmetry_Int_Tables_number       1
_space_group_crystal_system       triclinic
_cell_length_a                    14.890121
_cell_length_b                    10.638331
_cell_length_c                    10.061682
_cell_angle_alpha                 88.894807
_cell_angle_beta                  91.04481
_cell_angle_gamma                 90.345639
_cell_volume                      1593.24398817

loop_
_atom_site_label
_atom_site_type_symbol
_atom_type_description
_atom_site_fract_x
_atom_site_fract_y
_atom_site_fract_z
_atom_type_partial_charge
C1    C     C_R   0.510492 0.263485 0.501799 0.883579
C2    C     C_R   0.184383 0.387390 0.443146 0.340705
C3    C     C_R   0.230326 0.493268 0.495034 -0.323340
C4    C     C_R   0.326766 0.496838 0.498917 1.028058
C5    C     C_R   0.183556 0.599145 0.538549 0.301621
C6    C     C_2   0.551745 0.935432 0.402153 0.009988
C7    C     C_2   0.502143 0.871873 0.491451 -0.178888
C8    C     C_2   0.543117 0.070150 0.396477 -0.327294
C9    C     C_2   0.545216 0.137329 0.507695 0.253363
C10   C     C_2   0.568476 0.532733 0.930468 0.456183
C11   C     C_2   0.571315 0.502795 0.076365 -0.187266
C12   C     C_R   0.906424 0.616060 0.498525 0.000259
C13   C     C_R   0.501046 0.737926 0.498315 0.924580
C14   C     C_R   0.672579 0.500118 0.500977 0.874069
C15   C     C_R   0.813170 0.613444 0.509211 -0.153780
C16   C     C_R   0.767433 0.499711 0.502099 -0.001709
C17   C     C_R   0.811002 0.386734 0.484900 -0.206941
C18   C     C_R   0.903428 0.386376 0.475491 0.123745
C19   C     C_R   0.951687 0.500853 0.482453 0.111734
C20   C     C_1   0.908640 0.849351 0.506687 0.343753
C21   C     C_1   0.612085 0.876972 0.310938 0.273941
C22   C     C_R   0.948161 0.272994 0.462191 -0.177327
C23   C     C_R   0.040815 0.271815 0.454167 -0.058319
C24   C     C_R   0.090537 0.384519 0.456506 -0.010743
C25   C     C_R   0.045183 0.499136 0.477546 -0.080291
C26   C     C_R   0.093527 0.611077 0.499680 -0.130356
C27   C     C_R   0.049106 0.728370 0.490557 0.446676
C28   C     C_R   0.954961 0.730359 0.498311 -0.161768
H1    H     H_    0.775001 0.698976 0.520225 0.157933
H2    H     H_    0.682821 0.176091 0.808873 0.395085
H3    H     H_    0.767744 0.729993 0.965035 0.398240
H4    H     H_    0.349369 0.244053 0.224705 0.385043
H5    H     H_    0.217448 0.538125 0.816055 0.355630
H6    H     H_    0.175568 0.007409 0.559986 0.421510
H7    H     H_    0.459147 0.920362 0.559618 0.208988
H8    H     H_    0.521034 0.110864 0.301577 0.181183
H9    H     H_    0.450301 0.449871 0.895807 0.154671
H10   H     H_    0.636305 0.495030 0.126164 0.220581
H11   H     H_    0.440804 0.520671 0.099937 0.200892
H12   H     H_    0.772681 0.299804 0.478438 0.161175
H13   H     H_    0.911502 0.184882 0.460267 0.187173
H14   H     H_    0.072182 0.181217 0.455135 0.241927
N1    N     N_2   0.500970 0.501330 0.852150 -0.219250
N2    N     N_2   0.500990 0.501360 0.147810 -0.205085
N3    N     N_1   0.871245 0.943927 0.513689 -0.145868
N4    N     N_1   0.660662 0.830352 0.238509 -0.113951
O1    O     O_R   0.499990 0.319060 0.613040 -0.561494
O2    O     O_2   0.666624 0.982537 0.631782 -0.274473
O3    O     O_3   0.657979 0.208316 0.722900 -0.543586
O4    O     O_2   0.733047 0.518064 0.829630 -0.289303
O5    O     O_2   0.644515 0.704715 0.763448 -0.241668
O6    O     O_3   0.712200 0.691962 0.001132 -0.549330
O7    O     O_2   0.300122 0.195401 0.474741 -0.343613
O8    O     O_2   0.183384 0.166578 0.303207 -0.231368
O9    O     O_3   0.312127 0.316581 0.249279 -0.512931
O10   O     O_2   0.301526 0.774989 0.624086 -0.245685
O11   O     O_2   0.155125 0.769996 0.731583 -0.223745
O12   O     O_R   0.500010 0.319100 0.386900 -0.633548
O13   O     O_3   0.267577 0.596366 0.794884 -0.503081
O14   O     O_2   0.199380 0.837534 0.390571 -0.245384
O15   O     O_2   0.055424 0.932079 0.328870 -0.261441
O16   O     O_3   0.115807 0.966896 0.568032 -0.507701
O17   O     O_R   0.367830 0.499950 0.613080 -0.568913
O18   O     O_R   0.367860 0.499990 0.386940 -0.553231
O19   O     O_R   0.499990 0.680900 0.613100 -0.530153
O20   O     O_R   0.500010 0.680940 0.386960 -0.622865
O21   O     O_R   0.632140 0.500010 0.613060 -0.526497
O22   O     O_R   0.632170 0.500050 0.386920 -0.646240
O23   O     O_2   0.532937 0.040530 0.755719 -0.256495
S1    S     S_3+6 0.601342 0.086150 0.657635 0.043788
S2    S     S_3+6 0.665815 0.612574 0.874117 0.074545
S3    S     S_3+6 0.244311 0.260818 0.368734 0.038053
S4    S     S_3+6 0.227020 0.691132 0.672534 0.098295
S5    S     S_3+6 0.107446 0.867957 0.439925 0.098917
Zn1   Zn    Zn3+2 0.499980 0.499970 0.650990 1.137421
Zn2   Zn    Zn3+2 0.500020 0.500030 0.349010 1.021614

loop_
_geom_bond_atom_site_label_1
_geom_bond_atom_site_label_2
_ccdc_geom_bond_type
H9    N1    S    
C11   H10   S    
C23   C24   A    
O2    S1    D    
C6    C7    D    
O15   S5    D    
O22   Zn2   S    
C27   S5    S    
C4    O18   A    
H4    O9    S    
O9    S3    S    
O19   Zn1   S    
C12   C15   A    
H6    O16   S    
H3    O6    S    
O3    S1    S    
O20   Zn2   S    
C10   S2    S    
C2    C3    A    
O18   Zn2   S    
O1    Zn1   S    
C11   N2    D    
H5    O13   S    
O6    S2    S    
C13   O19   A    
C1    O12   A    
C24   C25   A    
C5    S4    S    
C6    C21   S    
C4    O17   A    
C26   C27   A    
H11   N2    S    
C23   H14   S    
O5    S2    D    
C12   C28   A    
C2    S3    S    
C12   C19   A    
O14   S5    D    
H2    O3    S    
C15   H1    S    
C13   O20   A    
C2    C24   A    
O23   S1    D    
C19   C25   A    
C14   C16   S    
C22   H13   S    
O21   Zn1   S    
C10   C11   S    
C14   O21   A    
O12   Zn2   S    
C15   C16   A    
C5    C26   A    
C7    C13   S    
C1    C9    S    
C9    S1    S    
O17   Zn1   S    
N1    Zn1   S    
C17   C18   A    
C21   N4    T    
C8    H8    S    
C20   N3    T    
O11   S4    D    
C27   C28   A    
N2    Zn2   S    
C18   C19   A    
C14   O22   A    
C22   C23   A    
O16   S5    S    
C6    C8    S    
O10   S4    D    
C20   C28   S    
O8    S3    D    
C25   C26   A    
C18   C22   A    
O7    S3    D    
C7    H7    S    
O4    S2    D    
C1    O1    A    
C3    C4    S    
C16   C17   A    
C10   N1    D    
C8    C9    D    
C3    C5    A    
C17   H12   S    
O13   S4    S    
