data_mof_unit_811.cif
_audit_creation_date              2012-10-26T20:18:57-0400
_audit_creation_method            fapswitch 2.2
_symmetry_space_group_name_H-M    P1
_symmetry_Int_Tables_number       1
_space_group_crystal_system       triclinic
_cell_length_a                    15.061582
_cell_length_b                    12.963665
_cell_length_c                    11.83947
_cell_angle_alpha                 99.403487
_cell_angle_beta                  93.327026
_cell_angle_gamma                 92.983109
_cell_volume                      2272.34119769

loop_
_atom_site_label
_atom_site_type_symbol
_atom_type_description
_atom_site_fract_x
_atom_site_fract_y
_atom_site_fract_z
_atom_type_partial_charge
C1    C     C_R   0.497965 0.299749 0.479683 0.649041
C2    C     C_R   0.603997 0.857812 0.546433 0.230532
C3    C     C_R   0.559949 0.133492 0.512069 0.248275
C4    C     C_R   0.445058 0.869981 0.504617 0.222168
C5    C     C_R   0.546874 0.026558 0.522557 -0.067424
C6    C     C_R   0.458849 0.978349 0.505095 -0.089396
C7    C     C_R   0.423256 0.390033 0.023465 -0.013627
C8    C     C_R   0.573840 0.613436 0.977206 -0.009542
C9    C     C_R   0.420303 0.412301 0.144223 0.141041
C10   C     C_R   0.571874 0.597031 0.855574 0.109232
C11   C     C_R   0.541451 0.538567 0.155167 0.169202
C12   C     C_R   0.503729 0.699887 0.520602 0.632868
C13   C     C_R   0.461811 0.457146 0.844208 0.163289
C14   C     C_R   0.529774 0.538429 0.033573 -0.008891
C15   C     C_R   0.472029 0.460144 0.966078 -0.052248
C16   C     C_R   0.329641 0.504211 0.501273 0.584338
C17   C     C_R   0.670694 0.497186 0.498892 0.573622
C18   C     C_R   0.819163 0.567008 0.574002 -0.167773
C19   C     C_R   0.182093 0.426828 0.434446 -0.116941
C20   C     C_R   0.767223 0.492245 0.496820 -0.005265
C21   C     C_R   0.233454 0.507418 0.504149 -0.005614
C22   C     C_R   0.807603 0.417508 0.418166 0.004912
C23   C     C_R   0.040231 0.341240 0.362389 -0.081426
C24   C     C_R   0.193049 0.588493 0.574080 -0.018485
C25   C     C_R   0.902091 0.415306 0.424454 -0.003909
C26   C     C_R   0.098819 0.583038 0.577994 -0.002456
C27   C     C_R   0.953543 0.495536 0.501049 0.000257
C28   C     C_R   0.047492 0.500697 0.504098 -0.004784
C29   C     C_R   0.911205 0.570973 0.574843 -0.035359
C30   C     C_R   0.089945 0.423367 0.432760 -0.031193
C31   C     C_R   0.947474 0.334438 0.359836 0.252285
C32   C     C_R   0.053762 0.654967 0.655085 0.256801
C33   C     C_2   0.387664 0.284874 0.963209 0.223094
C34   C     C_R   0.960980 0.649388 0.650489 -0.100485
C35   C     C_2   0.614445 0.714809 0.041746 0.280010
C36   C     C_2   0.751859 0.346827 0.326661 0.322379
C37   C     C_2   0.247725 0.683605 0.630836 0.301305
C38   C     C_3   0.895971 0.167427 0.361516 -0.092184
C39   C     C_3   0.107757 0.694463 0.840708 -0.100970
C40   C     C_3   0.345262 0.795716 0.357539 -0.068590
C41   C     C_3   0.661893 0.235611 0.640851 -0.049072
C42   C     C_3   0.729882 0.795317 0.465311 -0.105126
C43   C     C_3   0.289741 0.145106 0.320834 -0.117433
C44   C     C_3   0.279708 0.029312 0.612954 -0.049210
C45   C     C_R   0.517082 0.812269 0.529598 0.020562
C46   C     C_3   0.730894 0.011137 0.692034 -0.093207
C47   C     C_2   0.379658 0.405295 0.781125 0.332104
C48   C     C_2   0.621673 0.592154 0.220738 0.304979
C49   C     C_2   0.625674 0.669872 0.799731 0.279012
C50   C     C_2   0.348685 0.359797 0.197898 0.221640
C51   C     C_R   0.487630 0.186883 0.474291 0.011609
C52   C     C_R   0.386138 0.039208 0.486988 0.276504
C53   C     C_R   0.618827 0.966776 0.551068 0.298618
C54   C     C_R   0.401128 0.138827 0.458167 0.232939
Cu1   Cu    Cu3+1 0.506660 0.507730 0.615930 1.059481
Cu2   Cu    Cu3+1 0.493340 0.492270 0.384070 0.992232
H1    H     H_    0.787478 0.626086 0.630471 0.130199
H2    H     H_    0.962846 0.141992 0.385961 0.108549
H3    H     H_    0.857505 0.098567 0.310132 0.170248
H4    H     H_    0.144049 0.621165 0.832170 0.137678
H5    H     H_    0.147370 0.754360 0.904016 0.157992
H6    H     H_    0.041652 0.681666 0.875263 0.112479
H7    H     H_    0.285181 0.741090 0.337229 0.138441
H8    H     H_    0.401124 0.757118 0.313778 0.143666
H9    H     H_    0.331687 0.867534 0.321303 0.145897
H10   H     H_    0.618054 0.207615 0.703917 0.124680
H11   H     H_    0.657149 0.320829 0.644392 0.158152
H12   H     H_    0.214593 0.365969 0.381337 0.159919
H13   H     H_    0.731866 0.225165 0.668825 0.132077
H14   H     H_    0.787238 0.853112 0.491987 0.167720
H15   H     H_    0.694985 0.812069 0.385169 0.129987
H16   H     H_    0.757041 0.717245 0.443858 0.138247
H17   H     H_    0.253083 0.069956 0.326705 0.172743
H18   H     H_    0.339397 0.132299 0.254535 0.109785
H19   H     H_    0.239606 0.195955 0.291064 0.140524
H20   H     H_    0.283159 0.115863 0.640271 0.173924
H21   H     H_    0.324621 0.992577 0.670808 0.153868
H22   H     H_    0.210558 0.999319 0.621735 0.138196
H23   H     H_    0.073479 0.280227 0.310115 0.137744
H24   H     H_    0.747729 0.931602 0.705724 0.181336
H25   H     H_    0.679442 0.040898 0.750921 0.127060
H26   H     H_    0.792311 0.062986 0.715775 0.119048
H27   H     H_    0.316136 0.437640 0.800118 0.080360
H28   H     H_    0.616336 0.647156 0.298429 0.144331
H29   H     H_    0.683046 0.643437 0.755938 0.103913
H30   H     H_    0.362091 0.326707 0.273796 0.175342
H31   H     H_    0.927821 0.706495 0.708171 0.126326
H32   H     H_    0.322492 0.252931 0.978930 0.149023
H33   H     H_    0.678459 0.745897 0.020332 0.128586
H34   H     H_    0.770067 0.338257 0.238435 0.161626
H35   H     H_    0.229691 0.760018 0.614398 0.172669
H36   H     H_    0.859459 0.192450 0.439565 0.160454
N1    N     N_R   0.516670 0.519360 0.790130 -0.275051
N2    N     N_R   0.483330 0.480640 0.209870 -0.294654
O1    O     O_R   0.504720 0.354460 0.582000 -0.476177
O2    O     O_2   0.574510 0.766455 0.115905 -0.523864
O3    O     O_2   0.686567 0.296261 0.349093 -0.454139
O4    O     O_2   0.310159 0.678245 0.699592 -0.472740
O5    O     O_3   0.902769 0.247297 0.293975 -0.587391
O6    O     O_3   0.098984 0.731954 0.735520 -0.587068
O7    O     O_3   0.361590 0.818407 0.478150 -0.544138
O8    O     O_3   0.644642 0.183147 0.526478 -0.489144
O9    O     O_3   0.673940 0.793580 0.557042 -0.583967
O10   O     O_3   0.329984 0.194897 0.428239 -0.565210
O11   O     O_3   0.299649 0.002237 0.497377 -0.543105
O12   O     O_R   0.495280 0.645540 0.418000 -0.559225
O13   O     O_3   0.704285 0.013012 0.575861 -0.534079
O14   O     O_2   0.380937 0.324085 0.713032 -0.466072
O15   O     O_2   0.695560 0.574583 0.187647 -0.558693
O16   O     O_2   0.608203 0.761587 0.807059 -0.489065
O17   O     O_2   0.271770 0.355263 0.157737 -0.576574
O18   O     O_R   0.493480 0.341410 0.386200 -0.500905
O19   O     O_R   0.506520 0.658590 0.613800 -0.427745
O20   O     O_R   0.375880 0.506510 0.597910 -0.452872
O21   O     O_R   0.624120 0.493490 0.402090 -0.487633
O22   O     O_R   0.364640 0.493450 0.402110 -0.527028
O23   O     O_R   0.635360 0.506550 0.597890 -0.556712
O24   O     O_2   0.433707 0.230503 0.899074 -0.483254

loop_
_geom_bond_atom_site_label_1
_geom_bond_atom_site_label_2
_ccdc_geom_bond_type
C25   C31   A    
C46   H24   S    
Cu1   Cu2   S    
C26   C32   A    
C16   C21   S    
C27   C29   A    
Cu1   N1    S    
C42   O9    S    
C41   H11   S    
C44   O11   S    
Cu2   N2    S    
C40   H7    S    
C5    C53   A    
C44   H21   S    
C19   C21   A    
C33   H32   S    
C24   C26   A    
C1    O18   A    
C5    C6    A    
C11   C14   A    
C38   H36   S    
C42   H14   S    
C17   C20   S    
C41   O8    S    
C44   H20   S    
C43   O10   S    
C50   O17   D    
C40   O7    S    
C46   H26   S    
C43   H17   S    
C22   C25   A    
C36   O3    D    
C47   H27   S    
C17   O23   A    
C43   H18   S    
C7    C15   A    
C48   O15   D    
C33   O24   D    
C38   H2    S    
C4    O7    S    
C7    C33   S    
C11   C48   S    
C16   O22   A    
C37   O4    D    
C52   C54   A    
C4    C45   A    
C2    C45   A    
C43   H19   S    
C39   H5    S    
C37   H35   S    
C23   C30   A    
C49   H29   S    
Cu1   O1    S    
C13   C47   S    
C3    C51   A    
C38   O5    S    
Cu1   O19   S    
C10   N1    A    
C35   O2    D    
C29   C34   A    
C48   H28   S    
C13   N1    A    
C8    C35   S    
C32   C34   A    
C46   H25   S    
C53   O13   S    
C18   H1    S    
C1    O1    A    
C46   O13   S    
C42   H16   S    
C24   C37   S    
Cu2   O22   S    
C19   H12   S    
C18   C29   A    
C1    C51   S    
Cu2   O12   S    
C35   H33   S    
C11   N2    A    
C4    C6    A    
C20   C22   A    
C52   O11   S    
C31   O5    S    
C40   H9    S    
C13   C15   A    
C17   O21   A    
C41   H13   S    
C12   O19   A    
Cu1   O23   S    
C36   H34   S    
C7    C9    A    
C39   H6    S    
C8    C14   A    
C9    C50   S    
C12   C45   S    
C3    C5    A    
C2    C53   A    
C16   O20   A    
C41   H10   S    
Cu1   O20   S    
C25   C27   A    
C22   C36   S    
C54   O10   S    
C26   C28   A    
C40   H8    S    
C51   C54   A    
C23   H23   S    
C44   H22   S    
C12   O12   A    
C19   C30   A    
C39   O6    S    
C2    O9    S    
C39   H4    S    
C28   C30   A    
C42   H15   S    
Cu2   O21   S    
C18   C20   A    
C34   H31   S    
C3    O8    S    
C50   H30   S    
C38   H3    S    
C32   O6    S    
C8    C10   A    
C47   O14   D    
C21   C24   A    
C27   C28   A    
C14   C15   A    
C6    C52   A    
C10   C49   S    
C9    N2    A    
Cu2   O18   S    
C23   C31   A    
C49   O16   D    
