data_mof_unit_3181.cif
_audit_creation_date              2012-12-11T20:00:10-0500
_audit_creation_method            fapswitch 2.2
_symmetry_space_group_name_H-M    P1
_symmetry_Int_Tables_number       1
_space_group_crystal_system       triclinic
_cell_length_a                    8.231064
_cell_length_b                    16.34247
_cell_length_c                    27.207383
_cell_angle_alpha                 71.729355
_cell_angle_beta                  96.896648
_cell_angle_gamma                 96.220167
_cell_volume                      3440.45691555

loop_
_atom_site_label
_atom_site_type_symbol
_atom_type_description
_atom_site_fract_x
_atom_site_fract_y
_atom_site_fract_z
_atom_type_partial_charge
Ba1   Ba    Ba6+2 0.337820 0.939830 0.518500 1.780216
Ba2   Ba    Ba6+2 0.851970 0.060110 0.481480 1.822062
C1    C     C_3   0.044355 0.519542 0.629305 -0.248994
C2    C     C_R   0.462494 0.399043 0.191401 0.601202
C3    C     C_2   0.287539 0.281300 0.279968 -0.043855
C4    C     C_3   0.535125 0.634633 0.634911 0.267423
C5    C     C_3   0.275537 0.247838 0.337813 -0.052808
C6    C     C_1   0.472885 0.142982 0.341507 -0.016114
C7    C     C_2   0.514192 0.187930 0.294033 -0.076262
C8    C     C_2   0.413990 0.260108 0.259715 0.222286
C9    C     C_R   0.526837 0.406228 0.104819 -0.142069
C10   C     C_R   0.535340 0.315476 0.122632 -0.132308
C11   C     C_R   0.588951 0.274710 0.089672 0.648935
C12   C     C_3   0.052331 0.617807 0.612330 1.073098
C13   C     C_R   0.483041 0.448523 0.138899 -0.059331
C14   C     C_2   0.354892 0.164072 0.363342 -0.282243
C15   C     C_2   0.856197 0.849229 0.643249 -0.224549
C16   C     C_3   0.504120 0.558615 0.683352 -0.230382
C17   C     C_R   0.630729 0.458744 0.966070 -0.040090
C18   C     C_R   0.608163 0.594499 0.985346 0.040915
C19   C     C_R   0.639207 0.550690 0.950270 -0.001083
C20   C     C_R   0.643914 0.418232 0.927633 0.575803
C21   C     C_R   0.684556 0.466411 0.878060 -0.057602
C22   C     C_R   0.704559 0.556751 0.863231 -0.117494
C23   C     C_3   0.208425 0.018625 0.656153 0.174023
C24   C     C_R   0.677569 0.599325 0.898703 -0.093100
C25   C     C_R   0.689151 0.690428 0.882605 -0.023966
C26   C     C_R   0.726047 0.737460 0.831218 0.633055
C27   C     C_R   0.746220 0.605005 0.812890 0.602817
C28   C     C_3   0.601073 0.884028 0.395419 0.272785
C29   C     C_2   0.911354 0.723842 0.721156 -0.047949
C30   C     C_3   0.918032 0.760531 0.663197 -0.075662
C31   C     C_1   0.725867 0.863347 0.662557 -0.048307
C32   C     C_2   0.683568 0.815234 0.709588 -0.128993
C33   C     C_2   0.787381 0.743561 0.743082 0.205564
C34   C     C_3   0.187146 0.974708 0.713575 0.431768
C35   C     C_R   0.605601 0.411228 0.018931 -0.052578
C36   C     C_R   0.563964 0.454570 0.053012 0.045884
C37   C     C_R   0.560955 0.545823 0.035853 0.029408
C38   C     C_R   0.626745 0.321943 0.039677 -0.070717
C39   C     C_R   0.465372 0.539004 0.119600 -0.042060
C40   C     C_3   0.594006 0.810175 0.372129 -0.301296
C41   C     C_R   0.626396 0.686057 0.968551 -0.090214
C42   C     C_R   0.664810 0.732668 0.918358 -0.024019
C43   C     C_R   0.506443 0.585612 0.069346 -0.073319
C44   C     C_2   0.397252 0.246391 0.515737 0.359069
C45   C     C_3   0.569458 0.398406 0.384800 0.367228
C46   C     C_R   0.814489 0.756361 0.496947 -0.237546
C47   C     C_2   0.270114 0.301297 0.574927 -0.181026
C48   C     C_2   0.276372 0.238629 0.553434 -0.029201
C49   C     C_2   0.522190 0.307861 0.508862 -0.035077
C50   C     C_3   0.538861 0.373199 0.538891 -0.050546
C51   C     C_3   0.375977 0.384066 0.558014 0.090072
C52   C     C_3   0.739132 0.057010 0.672614 0.188905
C53   C     C_2   0.611746 0.460099 0.508361 -0.069329
C54   C     C_2   0.645428 0.524223 0.529562 -0.048300
C55   C     C_R   0.846997 0.610189 0.468563 0.044380
C56   C     C_3   0.589380 0.474589 0.335611 0.472229
C57   C     C_R   0.730730 0.607425 0.502558 -0.029438
C58   C     C_R   0.944361 0.685575 0.447103 -0.090288
C59   C     C_R   0.934870 0.758604 0.464100 0.125875
C60   C     C_R   0.704554 0.683519 0.512778 -0.042013
C61   C     C_3   0.667964 0.027708 0.725353 0.423909
C62   C     C_3   0.138388 0.960613 0.344851 0.226416
C63   C     C_3   0.169315 0.940268 0.295156 -0.219181
C64   C     C_2   0.808166 0.149462 0.661869 0.577392
C65   C     C_2   0.066708 0.045633 0.333478 0.456560
C66   C     C_2   0.274467 0.009475 0.259814 0.553647
C67   C     C_3   0.106771 0.373208 0.398704 0.428816
C68   C     C_2   0.628168 0.557789 0.348527 0.586503
C69   C     C_2   0.195943 0.493058 0.435906 0.344950
C70   C     C_2   0.391583 0.586601 0.148896 0.599310
C71   C     C_2   0.042810 0.683579 0.405313 0.574215
C72   C     C_2   0.586490 0.480989 0.683585 0.531043
C73   C     C_3   0.111889 0.470222 0.389445 0.433786
C74   C     C_R   0.492339 0.267722 0.173183 0.678412
F1    F     F_    0.109324 0.648908 0.563630 -0.680844
F2    F     F_    0.791468 0.026913 0.764757 -0.668902
F3    F     F_    0.293320 0.909817 0.733655 -0.709697
F4    F     F_    0.713606 0.462011 0.309283 -0.647231
F5    F     F_    0.195042 0.513516 0.346311 -0.680560
F6    F     F_    0.610533 0.188749 0.106018 -0.600188
F7    F     F_    0.604155 0.332788 0.935136 -0.678686
F8    F     F_    0.384769 0.187408 0.489446 -0.718546
H1    H     H_    0.690688 0.822522 0.344963 0.138429
H2    H     H_    0.049484 0.929674 0.273423 0.172095
H3    H     H_    0.925444 0.636730 0.609986 -0.310564
H4    H     H_    0.951946 0.494788 0.603136 0.083662
H5    H     H_    0.168443 0.971025 0.634817 0.061957
H6    H     H_    0.338836 0.041176 0.652694 0.063131
H7    H     H_    0.059989 0.945491 0.718823 0.051253
H8    H     H_    0.214245 0.022521 0.735383 0.073521
H9    H     H_    0.008505 0.492965 0.669671 0.094683
H10   H     H_    0.548815 0.578787 0.718049 0.128485
H11   H     H_    0.522789 0.340159 0.373282 0.012694
H12   H     H_    0.612898 0.748368 0.403219 0.045479
H13   H     H_    0.479996 0.414327 0.407112 -0.240989
H14   H     H_    0.472749 0.478217 0.310055 0.110253
H15   H     H_    0.234122 0.353280 0.406353 -0.151289
H16   H     H_    0.041703 0.339262 0.433649 0.028463
H17   H     H_    0.490948 0.693189 0.639965 0.082430
H18   H     H_    0.984722 0.490559 0.382017 0.090408
H19   H     H_    0.622843 0.173679 0.280174 0.150503
H20   H     H_    0.993493 0.674903 0.743361 0.121335
H21   H     H_    0.695447 0.432116 0.850504 0.182016
H22   H     H_    0.679872 0.286832 0.018899 0.203002
H23   H     H_    0.472184 0.803825 0.350726 0.176876
H24   H     H_    0.209962 0.331697 0.256600 0.110619
H25   H     H_    0.615502 0.724131 0.993768 0.099201
H26   H     H_    0.669268 0.645473 0.631280 -0.052568
H27   H     H_    0.676030 0.802588 0.907705 0.154189
H28   H     H_    0.570109 0.824478 0.723000 0.158023
H29   H     H_    0.485554 0.653327 0.056066 0.116857
H30   H     H_    0.330878 0.129183 0.403135 0.128565
H31   H     H_    0.913174 0.898629 0.611949 0.041274
H32   H     H_    0.180336 0.295433 0.602212 0.107704
H33   H     H_    0.797289 0.814084 0.506545 0.040863
H34   H     H_    0.842417 0.018050 0.673984 -0.061952
H35   H     H_    0.639443 0.471492 0.468808 0.074543
H36   H     H_    0.371105 0.540622 0.685578 0.095321
H37   H     H_    0.614412 0.514140 0.568685 0.078504
H38   H     H_    0.726331 0.893747 0.413232 -0.007843
H39   H     H_    0.513816 0.866643 0.425685 0.076721
H40   H     H_    0.910807 0.165633 0.687024 0.022639
H41   H     H_    0.056730 0.068929 0.365924 0.006361
H42   H     H_    0.398668 0.026736 0.273045 0.027492
H43   H     H_    0.737712 0.566216 0.373310 -0.079194
H44   H     H_    0.323653 0.517811 0.436213 0.069297
H45   H     H_    0.574818 0.071605 0.726132 0.026129
H46   H     H_    0.301116 0.554261 0.175871 0.060012
H47   H     H_    0.009611 0.634842 0.385906 -0.003119
H48   H     H_    0.544068 0.447687 0.655125 -0.003997
H49   H     H_    0.607370 0.961814 0.732689 0.102797
H50   H     H_    0.256171 0.961190 0.369158 -0.054680
H51   H     H_    0.165285 0.497050 0.627403 0.106706
H52   H     H_    0.230717 0.879029 0.306468 0.105555
N1    N     N_R   0.456052 0.309447 0.207114 -0.434543
N2    N     N_R   0.752884 0.694788 0.796512 -0.429521
O1    O     O_2   0.431310 0.922990 0.623550 -0.458620
O2    O     O_2   0.855510 0.303584 0.504230 -0.442721
O3    O     O_3   0.720685 0.384281 0.414609 -0.623828
O4    O     O_3   0.663280 0.983100 0.563360 -0.442225
O5    O     O_3   0.016420 0.932050 0.462720 -0.511605
O6    O     O_2   0.959730 0.164640 0.549160 -0.410274
O7    O     O_3   0.114169 0.089851 0.637290 -0.712635
O8    O     O_2   0.924189 0.214906 0.327828 -0.439236
O9    O     O_3   0.023191 0.352644 0.355422 -0.525497
O10   O     O_2   0.486123 0.188888 0.186828 -0.476310
O11   O     O_2   0.776300 0.566494 0.783578 -0.575883
O12   O     O_3   0.021695 0.897113 0.369754 -0.636503
O13   O     O_2   0.456747 0.435800 0.223780 -0.578497
O14   O     O_2   0.736743 0.816396 0.817762 -0.533827
O15   O     O_3   0.126250 0.812630 0.574830 -0.445559
O16   O     O_2   0.264752 0.789892 0.671739 -0.452456
O17   O     O_3   0.614613 0.051388 0.633236 -0.632945
O18   O     O_3   0.159823 0.648667 0.648064 -0.639414
O19   O     O_2   0.229950 0.835370 0.450810 -0.426829
O20   O     O_3   0.517580 0.797570 0.545130 -0.502788
O21   O     O_2   0.368361 0.694842 0.493008 -0.386336
O22   O     O_2   0.751030 0.206799 0.625179 -0.585535
O23   O     O_3   0.449051 0.616971 0.591147 -0.568964
O24   O     O_2   0.015475 0.086925 0.289628 -0.539653
O25   O     O_2   0.220799 0.046312 0.215423 -0.443700
O26   O     O_2   0.536679 0.616272 0.331481 -0.535997
O27   O     O_2   0.122096 0.482385 0.474011 -0.596976
O28   O     O_2   0.428445 0.663498 0.142243 -0.518288
O29   O     O_2   0.161063 0.734025 0.391928 -0.550352
O30   O     O_2   0.699529 0.453995 0.716081 -0.522813
O31   O     O_2   0.758370 0.077020 0.376420 -0.447060
O32   O     O_3   0.526390 0.016840 0.436620 -0.489687
O33   O     O_3   0.063420 0.187310 0.425160 -0.463436
O34   O     O_3   0.559635 0.959093 0.355842 -0.645521
O35   O     O_3   0.173250 0.067890 0.537260 -0.412730
O36   O     O_3   0.672100 0.202370 0.454860 -0.404862
P1    P     P_3+3 0.610630 0.953360 0.619150 1.024984
P2    P     P_3+3 0.057260 0.861390 0.437850 1.035715
P3    P     P_3+3 0.510111 0.697035 0.535492 1.026158
P4    P     P_3+3 0.579040 0.046590 0.380840 0.990549
P5    P     P_3+3 0.690341 0.298898 0.471385 1.088820
P6    P     P_3+3 0.119506 0.755078 0.640456 1.013744
P7    P     P_3+3 0.139075 0.139713 0.571218 1.024409
P8    P     P_3+3 0.068898 0.248542 0.359899 1.049396

loop_
_geom_bond_atom_site_label_1
_geom_bond_atom_site_label_2
_ccdc_geom_bond_type
C68   H43   S    
O12   P2    S    
C53   C54   D    
C71   H47   S    
Ba1   P2    S    
C72   H48   S    
Ba2   O6    S    
Ba1   O32   S    
O33   P8    S    
O1    P1    D    
C56   H14   S    
C71   O29   D    
C60   P3    S    
C64   O22   D    
C63   H2    S    
C53   H35   S    
C74   N1    Am   
C27   N2    Am   
Ba1   O35   S    
C23   H6    S    
C66   H42   S    
O32   P4    S    
C40   H12   S    
C61   H49   S    
Ba1   O20   S    
C17   C19   A    
O20   P3    S    
C22   C24   A    
C12   H3    S    
C32   C33   S    
C35   C38   A    
O16   P6    D    
C65   H41   S    
C33   N2    S    
C36   C37   A    
C12   F1    S    
C52   C61   S    
O17   P1    S    
C21   H21   S    
O7    P7    S    
C58   C71   S    
O2    P5    D    
C32   H28   S    
Ba1   Ba2   S    
C4    H17   S    
C22   C27   A    
C11   C38   A    
Ba1   O4    S    
C17   C35   A    
C2    N1    Am   
C9    C13   A    
C25   C42   A    
C28   H38   S    
C6    C7    D    
C73   H18   S    
C14   H30   S    
C21   C22   A    
C8    N1    S    
C16   H10   S    
C7    C8    S    
C1    H51   S    
Ba1   O1    S    
C50   C53   S    
C56   F4    S    
Ba2   O33   S    
C37   C43   A    
C28   C40   S    
C34   H8    S    
O15   P6    S    
O35   P7    S    
C16   C72   S    
Ba2   O5    S    
C4    H26   S    
C59   P2    S    
C15   C31   D    
O5    P2    S    
O21   P3    D    
C49   P5    S    
C72   O30   D    
C19   C24   A    
C4    C16   S    
C62   H50   S    
O8    P8    D    
C49   C50   S    
C62   C65   S    
C17   C20   A    
C26   N2    Am   
C13   C39   A    
C52   O17   S    
C3    C5    S    
C18   C37   A    
C73   F5    S    
C55   C58   A    
C23   C34   S    
C44   C49   D    
C62   O12   S    
C58   C59   A    
C9    C36   A    
C41   C42   A    
C67   H16   S    
C35   C36   A    
Ba1   O5    S    
C6    P4    S    
C46   C60   A    
C29   C30   S    
C4    O23   S    
C7    H19   S    
C63   C66   S    
C31   C32   D    
C24   C25   A    
C1    H9    S    
C40   H1    S    
C28   H39   S    
C29   H20   S    
Ba1   O15   S    
Ba2   O4    S    
C28   O34   S    
O4    P1    S    
C1    C12   S    
Ba2   O32   S    
C39   C70   S    
C44   F8    S    
C67   H15   S    
C34   H7    S    
C5    C14   S    
C26   O14   D    
C52   H34   S    
C67   O9    S    
C64   H40   S    
C69   H44   S    
C48   P7    S    
O23   P3    S    
C16   H36   S    
O31   P4    D    
C18   C41   A    
C50   C51   S    
C15   H31   S    
C38   H22   S    
C40   H23   S    
C66   O25   D    
O34   P4    S    
C2    O13   D    
C44   C48   S    
O6    P7    D    
Ba1   P1    S    
C57   C60   A    
C45   H11   S    
C5    P8    S    
C12   O18   S    
C1    H4    S    
O3    P5    S    
C70   O28   D    
C56   C68   S    
C34   F3    S    
C68   O26   D    
O19   P2    D    
C9    C10   A    
C70   H46   S    
C46   H33   S    
C52   C64   S    
Ba2   P4    S    
C45   O3    S    
C23   H5    S    
C45   H13   S    
C54   C57   S    
C54   H37   S    
C2    C13   A    
C10   C74   A    
C3    C8    D    
Ba2   O35   S    
C20   F7    S    
C45   C56   S    
C69   C73   S    
O18   P6    S    
C65   O24   D    
C46   C59   A    
C47   C51   S    
C11   F6    S    
C62   C63   S    
Ba1   O19   S    
C67   C73   S    
C29   C33   D    
C61   H45   S    
C31   P1    S    
C63   H52   S    
C55   C57   A    
Ba2   O31   S    
C27   O11   D    
C42   H27   S    
C43   H29   S    
C47   H32   S    
C18   C19   A    
C74   O10   D    
C6    C14   D    
C47   C48   D    
C69   O27   D    
C25   C26   A    
C15   C30   S    
C39   C43   A    
C20   C21   A    
C30   P6    S    
C23   O7    S    
C41   H25   S    
C10   C11   A    
O36   P5    S    
C3    H24   S    
Ba2   O36   S    
O9    P8    S    
C61   F2    S    
