data_mof_unit_3615.cif
_audit_creation_date              2012-12-10T16:58:29-0500
_audit_creation_method            fapswitch 2.2
_symmetry_space_group_name_H-M    P1
_symmetry_Int_Tables_number       1
_space_group_crystal_system       triclinic
_cell_length_a                    7.731248
_cell_length_b                    8.59502
_cell_length_c                    23.464089
_cell_angle_alpha                 90.644395
_cell_angle_beta                  86.785565
_cell_angle_gamma                 92.98272
_cell_volume                      1554.57781186

loop_
_atom_site_label
_atom_site_type_symbol
_atom_type_description
_atom_site_fract_x
_atom_site_fract_y
_atom_site_fract_z
_atom_type_partial_charge
C1    C     C_R   0.544038 0.794232 0.496928 0.958112
C2    C     C_R   0.338800 0.452577 0.298674 0.132084
C3    C     C_R   0.657085 0.541716 0.760547 -0.112232
C4    C     C_R   0.342915 0.458284 0.239453 -0.112231
C5    C     C_R   0.504077 0.496266 0.791727 0.262447
C6    C     C_R   0.495923 0.503734 0.208273 0.262447
C7    C     C_2   0.556211 0.954739 0.484649 -0.084669
C8    C     C_2   0.443789 0.045261 0.515351 -0.084668
C9    C     C_R   0.504257 0.503288 0.610646 0.880874
C10   C     C_R   0.495743 0.496711 0.389354 0.880874
C11   C     C_R   0.469340 0.364110 0.119505 0.511801
C12   C     C_R   0.455962 0.205768 0.503072 0.958112
C13   C     C_R   0.530661 0.635889 0.880495 0.511800
C14   C     C_R   0.531272 0.639869 0.118953 0.510011
C15   C     C_R   0.468728 0.360130 0.881047 0.510011
C16   C     C_R   0.533934 0.641494 0.059430 -0.013454
C17   C     C_R   0.466066 0.358506 0.940569 -0.013454
C18   C     C_R   0.500235 0.500486 0.029919 -0.020241
C19   C     C_R   0.499765 0.499514 0.970081 -0.020241
C20   C     C_R   0.466975 0.360445 0.060092 -0.014625
C21   C     C_R   0.533025 0.639555 0.939908 -0.014625
C22   C     C_R   0.568524 0.780189 0.028936 -0.164929
C23   C     C_R   0.353943 0.453736 0.763860 -0.075832
C24   C     C_R   0.431476 0.219810 0.971064 -0.164929
C25   C     C_R   0.568015 0.779239 0.969646 -0.165474
C26   C     C_R   0.431985 0.220761 0.030354 -0.165474
C27   C     C_3   0.664731 0.007404 0.430334 -0.390551
C28   C     C_3   0.669150 0.886478 0.381952 -0.819682
C29   C     C_3   0.335269 0.992596 0.569666 -0.390551
C30   C     C_3   0.330849 0.113522 0.618048 -0.819683
C31   C     C_R   0.646057 0.546264 0.236141 -0.075831
C32   C     C_R   0.357001 0.455899 0.704814 -0.230326
C33   C     C_R   0.642999 0.544101 0.295186 -0.230326
C34   C     C_R   0.509911 0.502108 0.672809 -0.098173
C35   C     C_R   0.490089 0.497892 0.327191 -0.098173
C36   C     C_R   0.661200 0.547423 0.701326 0.132084
H1    H     H_    0.596684 0.889511 0.050732 0.194466
H2    H     H_    0.227717 0.423992 0.217223 0.167206
H3    H     H_    0.011475 0.370088 0.462820 0.216618
H4    H     H_    0.988524 0.629912 0.537180 0.216618
H5    H     H_    0.750953 0.789597 0.392238 0.272757
H6    H     H_    0.535689 0.840799 0.373803 0.254973
H7    H     H_    0.727138 0.941477 0.342233 0.270669
H8    H     H_    0.611313 0.110927 0.411152 0.229747
H9    H     H_    0.799730 0.038840 0.441772 0.235464
H10   H     H_    0.464310 0.159201 0.626197 0.254973
H11   H     H_    0.249046 0.210403 0.607762 0.272757
H12   H     H_    0.403316 0.110489 0.949268 0.194466
H13   H     H_    0.272861 0.058523 0.657766 0.270669
H14   H     H_    0.200270 0.961159 0.558228 0.235464
H15   H     H_    0.388687 0.889072 0.588848 0.229746
H16   H     H_    0.595979 0.887846 0.947226 0.193810
H17   H     H_    0.404021 0.112154 0.052774 0.193810
H18   H     H_    0.234767 0.419779 0.788039 0.159489
H19   H     H_    0.765233 0.580221 0.211961 0.159489
H20   H     H_    0.239001 0.421225 0.684219 0.193025
H21   H     H_    0.760999 0.578775 0.315781 0.193026
H22   H     H_    0.772283 0.576008 0.782777 0.167207
I1    I     I_    0.896799 0.640635 0.661591 -0.388182
I2    I     I_    0.103200 0.359365 0.338409 -0.388182
N1    N     N_R   0.499553 0.502563 0.147509 -0.356707
N2    N     N_R   0.500447 0.497436 0.852491 -0.356707
N3    N     N_2   0.950330 0.457950 0.484560 -0.159187
N4    N     N_2   0.049670 0.542050 0.515440 -0.159188
O1    O     O_R   0.389250 0.738570 0.503790 -0.634068
O2    O     O_2   0.557135 0.769488 0.850815 -0.522764
O3    O     O_2   0.558148 0.774297 0.148211 -0.527864
O4    O     O_2   0.441852 0.225702 0.851789 -0.527864
O5    O     O_R   0.610750 0.261430 0.496210 -0.634068
O6    O     O_R   0.678390 0.711620 0.493890 -0.620113
O7    O     O_R   0.321610 0.288380 0.506110 -0.620113
O8    O     O_R   0.355400 0.513520 0.588790 -0.616975
O9    O     O_R   0.644600 0.486480 0.411210 -0.616975
O10   O     O_R   0.644550 0.486570 0.578900 -0.594223
O11   O     O_R   0.355450 0.513430 0.421100 -0.594223
O12   O     O_2   0.442865 0.230511 0.149185 -0.522765
Zn1   Zn    Zn3+2 0.306930 0.518000 0.506610 0.966718
Zn2   Zn    Zn3+2 0.693070 0.482000 0.493390 0.966718

loop_
_geom_bond_atom_site_label_1
_geom_bond_atom_site_label_2
_ccdc_geom_bond_type
C2    C35   A    
C12   O5    A    
O6    Zn2   S    
N4    Zn1   S    
C9    O8    A    
C36   I1    S    
C7    C8    D    
C29   C30   S    
C8    C29   S    
C6    N1    S    
C19   C21   A    
C24   C26   A    
C11   O12   S    
C10   O9    A    
C2    I2    S    
C28   H5    S    
C7    C27   S    
C18   C19   A    
C17   C19   A    
C27   H8    S    
C13   N2    A    
C22   C25   A    
C1    O1    A    
C14   O3    S    
C31   C33   A    
C10   C35   S    
C34   C36   A    
C13   O2    S    
C27   H9    S    
C6    C31   A    
O5    Zn2   S    
O9    Zn2   S    
C29   H14   S    
C11   C20   A    
C17   C24   A    
O1    Zn1   S    
C24   H12   S    
C30   H11   S    
C4    C6    A    
C3    C5    A    
C22   H1    S    
C16   C22   A    
C32   C34   A    
C2    C4    A    
O8    Zn1   S    
C10   O11   A    
C5    C23   A    
C8    C12   S    
C13   C21   A    
O11   Zn1   S    
C12   O7    A    
C4    H2    S    
C9    C34   S    
C14   C16   A    
C9    O10   A    
C30   H13   S    
C26   H17   S    
O7    Zn1   S    
C23   H18   S    
C29   H15   S    
C15   C17   A    
C21   C25   A    
C33   H21   S    
C1    C7    S    
C30   H10   S    
C11   N1    A    
H3    N3    S    
C28   H7    S    
C1    O6    A    
H4    N4    S    
C23   C32   A    
C25   H16   S    
C14   N1    A    
C20   C26   A    
C3    C36   A    
C15   O4    S    
C28   H6    S    
C33   C35   A    
C15   N2    A    
C5    N2    S    
C18   C20   A    
N3    N4    D    
C3    H22   S    
C16   C18   A    
O10   Zn2   S    
C27   C28   S    
C31   H19   S    
C32   H20   S    
N3    Zn2   S    
