data_mof_unit_1983.cif
_audit_creation_date              2012-12-10T16:59:22-0500
_audit_creation_method            fapswitch 2.2
_symmetry_space_group_name_H-M    P1
_symmetry_Int_Tables_number       1
_space_group_crystal_system       triclinic
_cell_length_a                    7.814356
_cell_length_b                    8.532179
_cell_length_c                    27.74493
_cell_angle_alpha                 92.31394
_cell_angle_beta                  84.453821
_cell_angle_gamma                 94.669694
_cell_volume                      1834.0941482

loop_
_atom_site_label
_atom_site_type_symbol
_atom_type_description
_atom_site_fract_x
_atom_site_fract_y
_atom_site_fract_z
_atom_type_partial_charge
C1    C     C_R   0.546265 0.794751 0.498769 0.949020
C2    C     C_R   0.624157 0.629626 0.123477 -0.132546
C3    C     C_R   0.494674 0.496249 0.647038 -0.119862
C4    C     C_R   0.505323 0.503752 0.352962 -0.119864
C5    C     C_R   0.593926 0.628371 0.022440 -0.022052
C6    C     C_R   0.405988 0.371684 0.977563 -0.022027
C7    C     C_R   0.429951 0.368994 0.027494 0.100573
C8    C     C_R   0.569968 0.631058 0.972509 0.100557
C9    C     C_R   0.520099 0.499403 0.049913 0.075123
C10   C     C_R   0.479822 0.500649 0.950089 0.075119
C11   C     C_R   0.694822 0.748405 0.045574 -0.332294
C12   C     C_R   0.453735 0.205249 0.501231 0.949018
C13   C     C_R   0.305087 0.251653 0.954429 -0.332345
C14   C     C_R   0.705690 0.753345 0.095532 0.507023
C15   C     C_R   0.294231 0.246707 0.904470 0.507036
C16   C     C_R   0.500104 0.501059 0.594011 0.882998
C17   C     C_R   0.499896 0.498941 0.405989 0.882998
C18   C     C_R   0.628956 0.762437 0.944306 -0.235376
C19   C     C_R   0.370974 0.237611 0.055695 -0.235412
C20   C     C_2   0.570113 0.958977 0.498067 -0.347670
C21   C     C_2   0.429887 0.041023 0.501933 -0.347671
C22   C     C_R   0.519070 0.626038 0.822623 0.490730
C23   C     C_R   0.462262 0.500081 0.899720 -0.114516
C24   C     C_R   0.480898 0.373990 0.177377 0.490725
C25   C     C_R   0.375888 0.368276 0.825740 0.543761
C26   C     C_R   0.624082 0.631751 0.174261 0.543731
C27   C     C_R   0.317338 0.460875 0.723304 -0.115079
C28   C     C_R   0.682653 0.539130 0.276694 -0.115056
C29   C     C_R   0.333128 0.461621 0.673156 -0.308961
C30   C     C_R   0.666868 0.538377 0.326842 -0.308967
C31   C     C_R   0.643870 0.528582 0.672034 0.472545
C32   C     C_R   0.356124 0.471425 0.327967 0.472547
C33   C     C_R   0.626546 0.510057 0.722622 -0.244727
C34   C     C_R   0.537674 0.499964 0.100282 -0.114492
C35   C     C_R   0.373443 0.489959 0.277380 -0.244738
C36   C     C_R   0.464128 0.485093 0.748185 0.269947
C37   C     C_R   0.535858 0.514922 0.251815 0.269958
C38   C     C_3   0.910883 0.673736 0.674965 0.069959
C39   C     C_3   0.046590 0.768520 0.642967 -0.699815
C40   C     C_3   0.089114 0.326267 0.325036 0.069965
C41   C     C_3   0.953412 0.231478 0.357034 -0.699812
C42   C     C_3   0.743019 0.014735 0.116796 0.135877
C43   C     C_3   0.864383 0.139284 0.139309 -0.723481
C44   C     C_3   0.256867 0.985302 0.883225 0.135901
C45   C     C_R   0.531179 0.629883 0.872444 0.007579
C46   C     C_3   0.135675 0.860816 0.860618 -0.723238
C47   C     C_R   0.468770 0.370154 0.127556 0.007574
C48   C     C_R   0.611122 0.760934 0.895195 -0.196515
C49   C     C_R   0.388823 0.239105 0.104805 -0.196495
C50   C     C_R   0.375784 0.370416 0.876525 -0.132523
Cl1   Cl    Cl    0.001976 0.267432 0.474698 -0.515262
Cl2   Cl    Cl    0.998023 0.732568 0.525303 -0.515261
H1    H     H_    0.737556 0.522189 0.743296 0.135915
H2    H     H_    0.227608 0.161417 0.974339 0.156009
H3    H     H_    0.687242 0.870242 0.959092 0.146926
H4    H     H_    0.312687 0.129806 0.040909 0.146920
H5    H     H_    0.701988 0.011609 0.494407 0.233088
H6    H     H_    0.298012 0.988391 0.505593 0.233088
H7    H     H_    0.979208 0.598675 0.697397 0.137033
H8    H     H_    0.838700 0.759709 0.698641 0.173580
H9    H     H_    0.984161 0.853268 0.622382 0.277894
H10   H     H_    0.138360 0.835531 0.665780 0.201798
H11   H     H_    0.119472 0.688830 0.617651 0.286095
H12   H     H_    0.262429 0.477834 0.256707 0.135915
H13   H     H_    0.161299 0.240297 0.301360 0.173581
H14   H     H_    0.020785 0.401326 0.302605 0.137034
H15   H     H_    0.880526 0.311164 0.382351 0.286094
H16   H     H_    0.861644 0.164464 0.334222 0.201807
H17   H     H_    0.015845 0.146732 0.377618 0.277893
H18   H     H_    0.616663 0.009378 0.139220 0.182533
H19   H     H_    0.725061 0.051761 0.079718 0.117052
H20   H     H_    0.992367 0.145720 0.117962 0.242338
H21   H     H_    0.811337 0.256078 0.139496 0.195526
H22   H     H_    0.880292 0.109716 0.177158 0.274650
H23   H     H_    0.661469 0.863505 0.875042 0.189244
H24   H     H_    0.274505 0.948211 0.920318 0.117075
H25   H     H_    0.383377 0.990672 0.860876 0.182333
H26   H     H_    0.120172 0.890407 0.822744 0.274657
H27   H     H_    0.188630 0.743993 0.860475 0.195456
H28   H     H_    0.007509 0.854425 0.881870 0.242352
H29   H     H_    0.338489 0.136529 0.124957 0.189260
H30   H     H_    0.782766 0.562731 0.345196 0.202965
H31   H     H_    0.217232 0.437262 0.654802 0.202967
H32   H     H_    0.809080 0.558259 0.257201 0.160952
H33   H     H_    0.190909 0.441746 0.742797 0.160949
H34   H     H_    0.772288 0.838652 0.025666 0.156036
N1    N     N_R   0.449786 0.493784 0.800046 -0.345642
N2    N     N_R   0.550192 0.506239 0.199955 -0.345627
N3    N     N_2   0.950320 0.457960 0.486880 0.149419
N4    N     N_2   0.049680 0.542040 0.513120 0.149419
O1    O     O_R   0.389250 0.738570 0.503220 -0.597874
O2    O     O_2   0.422503 0.246744 0.203345 -0.579963
O3    O     O_2   0.691889 0.759518 0.198037 -0.515001
O4    O     O_2   0.308101 0.240499 0.801964 -0.514970
O5    O     O_3   0.800587 0.577689 0.646206 -0.583289
O6    O     O_3   0.199408 0.422316 0.353796 -0.583290
O7    O     O_3   0.815527 0.868119 0.115710 -0.574971
O8    O     O_3   0.184403 0.131934 0.884288 -0.574974
O9    O     O_R   0.610750 0.261430 0.496780 -0.597873
O10   O     O_R   0.678390 0.711630 0.494810 -0.567940
O11   O     O_R   0.321610 0.288370 0.505190 -0.567940
O12   O     O_R   0.355440 0.513440 0.575450 -0.645574
O13   O     O_R   0.644560 0.486560 0.424550 -0.645572
O14   O     O_R   0.644590 0.486500 0.567040 -0.545887
O15   O     O_R   0.355410 0.513500 0.432960 -0.545887
O16   O     O_2   0.577472 0.753279 0.796653 -0.579925
Zn1   Zn    Zn3+2 0.306940 0.517990 0.505620 1.096069
Zn2   Zn    Zn3+2 0.693060 0.482010 0.494380 1.096070

loop_
_geom_bond_atom_site_label_1
_geom_bond_atom_site_label_2
_ccdc_geom_bond_type
C19   H4    S    
C43   H21   S    
O11   Zn1   S    
C43   H20   S    
C23   C45   A    
C27   C29   A    
C37   N2    S    
Cl2   N4    S    
C42   H18   S    
C47   C49   A    
O9    Zn2   S    
O15   Zn1   S    
C44   H25   S    
C35   C37   A    
N4    Zn1   S    
C29   H31   S    
C46   H27   S    
C11   C14   A    
C28   H32   S    
C11   H34   S    
C25   N1    A    
C33   C36   A    
C44   H24   S    
C15   C50   A    
C49   H29   S    
C3    C29   A    
C25   C50   A    
C12   O9    A    
C44   O8    S    
C16   O14   A    
C38   O5    S    
C31   C33   A    
C35   H12   S    
C2    C34   A    
C26   O3    S    
C25   O4    S    
C1    O1    A    
C40   H14   S    
C48   H23   S    
C40   O6    S    
C24   O2    S    
C1    O10   A    
C44   C46   S    
C41   H16   S    
C36   N1    S    
C33   H1    S    
C39   H9    S    
O10   Zn2   S    
C32   C35   A    
O1    Zn1   S    
C41   H15   S    
C42   O7    S    
C27   H33   S    
C46   H26   S    
C23   C50   A    
C22   O16   S    
C12   C21   S    
C8    C18   A    
C30   H30   S    
C5    C9    A    
C17   O15   A    
C19   C49   A    
O12   Zn1   S    
C2    C26   A    
C4    C32   A    
C22   N1    A    
C3    C31   A    
C24   N2    A    
O13   Zn2   S    
C18   H3    S    
C38   H8    S    
C4    C17   S    
C16   O12   A    
C40   C41   S    
C32   O6    S    
C7    C19   A    
C40   H13   S    
C13   C15   A    
C9    C34   A    
C10   C23   A    
C42   C43   S    
C15   O8    S    
N3    N4    D    
O14   Zn2   S    
C14   O7    S    
C41   H17   S    
C13   H2    S    
C45   C48   A    
C7    C9    A    
C39   H10   S    
C1    C20   S    
C24   C47   A    
C8    C10   A    
C18   C48   A    
C6    C10   A    
C5    C8    A    
C5    C11   A    
C6    C7    A    
C27   C36   A    
C39   H11   S    
C28   C30   A    
C17   O13   A    
C12   O11   A    
Cl1   N3    S    
C6    C13   A    
C46   H28   S    
C38   C39   S    
C28   C37   A    
C43   H22   S    
C31   O5    S    
N3    Zn2   S    
C42   H19   S    
C2    C14   A    
C38   H7    S    
C21   H6    S    
C22   C45   A    
C20   C21   D    
C26   N2    A    
C34   C47   A    
C20   H5    S    
C4    C30   A    
C3    C16   S    
