data_mof_unit_1955.cif
_audit_creation_date              2013-03-05T16:34:39-0500
_audit_creation_method            fapswitch 2.2
_symmetry_space_group_name_H-M    P1
_symmetry_Int_Tables_number       1
_space_group_crystal_system       triclinic
_cell_length_a                    10.809896
_cell_length_b                    9.0923
_cell_length_c                    7.799814
_cell_angle_alpha                 90.030529
_cell_angle_beta                  91.476633
_cell_angle_gamma                 89.761151
_cell_volume                      766.357585397

loop_
_atom_site_label
_atom_site_type_symbol
_atom_site_description
_atom_site_fract_x
_atom_site_fract_y
_atom_site_fract_z
_atom_type_partial_charge
O1    O     O_R   0.500000 0.288390 0.642760 -0.577737
O2    O     O_R   0.500000 0.711610 0.642760 -0.582140
O3    O     O_R   0.500000 0.288370 0.357190 -0.577646
O4    O     O_R   0.500000 0.711630 0.357190 -0.574562
C1    C     C_R   0.499940 0.220072 0.499962 0.841734
C2    C     C_R   0.500633 0.779913 0.500024 0.843713
O5    O     O_R   0.319650 0.500000 0.642810 -0.568508
O6    O     O_R   0.680350 0.500000 0.642810 -0.577123
O7    O     O_R   0.319630 0.500000 0.357240 -0.587639
O8    O     O_R   0.680370 0.500000 0.357240 -0.586990
C3    C     C_R   0.261756 0.510444 0.497895 0.801534
C4    C     C_R   0.738574 0.487223 0.503648 0.796183
Cu1   Cu    Cu3+1 0.500000 0.500000 0.669080 0.985688
Cu2   Cu    Cu3+1 0.500000 0.500000 0.330920 0.987259
H1    H     H_    0.109680 0.413793 0.246172 0.174246
H2    H     H_    0.885224 0.391914 0.256267 0.161839
C5    C     C_R   0.111311 0.676589 0.760271 0.180692
C6    C     C_R   0.901839 0.508688 0.832301 0.192160
C7    C     C_R   0.053824 0.690645 0.918393 -0.184296
C8    C     C_R   0.953613 0.602317 0.956778 -0.204773
N1    N     N_1   0.500000 0.500000 0.076820 -0.059621
N2    N     N_1   0.500000 0.500000 0.923180 -0.062049
C9    C     C_R   0.943640 0.517595 0.661895 0.055587
C10   C     C_R   0.062755 0.574523 0.637368 0.053324
C11   C     C_R   0.127297 0.522242 0.493616 -0.100888
C12   C     C_R   0.873923 0.472915 0.514185 -0.109437
C13   C     C_R   0.062468 0.453875 0.357927 -0.210121
C14   C     C_R   0.935615 0.436411 0.365352 -0.231814
C15   C     C_1   0.500124 0.065373 0.500001 -0.178536
C16   C     C_1   0.500368 0.934600 0.500072 -0.180900
C17   C     C_3   0.211528 0.785421 0.721763 -0.813833
H3    H     H_    0.178915 0.898454 0.751205 0.217661
H4    H     H_    0.294712 0.761834 0.803544 0.258242
H5    H     H_    0.235643 0.785435 0.584576 0.202679
C18   C     C_3   0.826968 0.380099 0.893142 -0.788244
H6    H     H_    0.799333 0.304675 0.787159 0.227334
H7    H     H_    0.884851 0.312951 0.982849 0.200071
H8    H     H_    0.743938 0.419395 0.960304 0.248576
H9    H     H_    0.089174 0.767057 0.014215 0.157254
H10   H     H_    0.916907 0.606348 0.084084 0.171082

loop_
_geom_bond_atom_site_label_1
_geom_bond_atom_site_label_2
_geom_bond_distance
_ccdc_geom_bond_type
H2    C14   1.077924 S    
O7    Cu2   1.965813 S    
C17   H4    1.109252 S    
C15   C16   1.189014 T    
C11   C13   1.400828 A    
C6    C18   1.508470 S    
C12   C14   1.392896 A    
C7    C8    1.390081 A    
O6    C4    1.273686 A    
C9    C10   1.407424 A    
C1    C15   1.406568 S    
C17   H5    1.107838 S    
N1    N2    1.198364 T    
O5    C3    1.281183 A    
O7    C3    1.280143 A    
O2    C2    1.275285 A    
O3    Cu2   1.935192 S    
O8    C4    1.294573 A    
C5    C17   1.506330 S    
C7    H9    1.083631 S    
Cu2   N1    1.981932 S    
C2    C16   1.406454 S    
Cu1   N2    1.981932 S    
C6    C8    1.398449 A    
O4    Cu2   1.934974 S    
C8    H10   1.079307 S    
O1    C1    1.274998 A    
C5    C10   1.425775 A    
O1    Cu1   1.934835 S    
C3    C11   1.456528 S    
C6    C9    1.417291 A    
O6    Cu1   1.965547 S    
O5    Cu1   1.955046 S    
C18   H8    1.108617 S    
C10   C11   1.416647 A    
C18   H7    1.108394 S    
O4    C2    1.274982 A    
O8    Cu2   1.955289 S    
C9    C12   1.420447 A    
C13   C14   1.383789 A    
O2    Cu1   1.935052 S    
C5    C7    1.400805 A    
Cu1   Cu2   2.637586 S    
H1    C13   1.083566 S    
C17   H3    1.110925 S    
C4    C12   1.468533 S    
O3    C1    1.275340 A    
C18   H6    1.109616 S    
