data_mof_unit_4368.cif
_audit_creation_date              2012-12-11T15:22:23-0500
_audit_creation_method            fapswitch 2.2
_symmetry_space_group_name_H-M    P1
_symmetry_Int_Tables_number       1
_space_group_crystal_system       triclinic
_cell_length_a                    22.444084
_cell_length_b                    12.935892
_cell_length_c                    26.866011
_cell_angle_alpha                 89.911161
_cell_angle_beta                  90.528843
_cell_angle_gamma                 90.052445
_cell_volume                      7799.77826327

loop_
_atom_site_label
_atom_site_type_symbol
_atom_type_description
_atom_site_fract_x
_atom_site_fract_y
_atom_site_fract_z
_atom_type_partial_charge
C1    C     C_R   0.720476 0.343935 0.177599 0.577796
C2    C     C_R   0.279311 0.344504 0.822112 0.597868
C3    C     C_R   0.220888 0.845013 0.178095 0.592381
C4    C     C_R   0.779514 0.843877 0.822395 0.577022
C5    C     C_R   0.483331 0.163346 0.868060 -0.006305
C6    C     C_R   0.569977 0.158983 0.118486 -0.009038
C7    C     C_R   0.929834 0.658628 0.881530 -0.007573
C8    C     C_R   0.016545 0.663283 0.131945 -0.008205
C9    C     C_R   0.563141 0.254337 0.093738 -0.134918
C10   C     C_R   0.492204 0.257839 0.892876 -0.141057
C11   C     C_R   0.007394 0.757741 0.107049 -0.136641
C12   C     C_R   0.936259 0.753978 0.906238 -0.133034
C13   C     C_R   0.550330 0.257020 0.042577 0.011888
C14   C     C_R   0.515509 0.258977 0.941523 0.013446
C15   C     C_R   0.983887 0.758744 0.058447 0.013570
C16   C     C_R   0.948982 0.756657 0.957406 0.012520
C17   C     C_R   0.546345 0.163445 0.015820 0.062385
C18   C     C_R   0.529744 0.164539 0.965231 0.063187
C19   C     C_R   0.969891 0.664213 0.034823 0.063297
C20   C     C_R   0.953275 0.663057 0.984232 0.063238
C21   C     C_R   0.539525 0.351090 0.017978 -0.137663
C22   C     C_R   0.521783 0.352018 0.967892 -0.145199
C23   C     C_R   0.977198 0.851783 0.032021 -0.140302
C24   C     C_R   0.959413 0.850787 0.981945 -0.137259
C25   C     C_R   0.743723 0.947350 0.133067 0.025048
C26   C     C_R   0.259569 0.954261 0.869148 0.035182
C27   C     C_R   0.241065 0.452300 0.131523 0.023039
C28   C     C_R   0.756187 0.446853 0.866855 0.025367
C29   C     C_R   0.798217 0.962793 0.108875 -0.095326
C30   C     C_R   0.205068 0.966401 0.893609 -0.089115
C31   C     C_R   0.295733 0.464338 0.107290 -0.095783
C32   C     C_R   0.701587 0.461663 0.890919 -0.095287
C33   C     C_R   0.803368 0.940016 0.058553 -0.109051
C34   C     C_R   0.201753 0.949366 0.944608 -0.103553
C35   C     C_R   0.299584 0.445349 0.056528 -0.108355
C36   C     C_R   0.696384 0.438807 0.941258 -0.108694
C37   C     C_R   0.753991 0.902129 0.031846 0.043460
C38   C     C_R   0.252917 0.920272 0.971528 0.041186
C39   C     C_R   0.248803 0.414356 0.029604 0.041244
C40   C     C_R   0.745821 0.401502 0.968079 0.043524
C41   C     C_R   0.701738 0.876452 0.057466 -0.123593
C42   C     C_R   0.306156 0.900752 0.946350 -0.116529
C43   C     C_R   0.195517 0.394325 0.054678 -0.124312
C44   C     C_R   0.798179 0.376317 0.942577 -0.123802
C45   C     C_R   0.581677 0.153831 0.172455 0.568832
C46   C     C_R   0.447449 0.157295 0.821978 0.549268
C47   C     C_R   0.052534 0.657318 0.178011 0.552155
C48   C     C_R   0.918271 0.653648 0.827535 0.569551
C49   C     C_R   0.696983 0.897559 0.107886 -0.151278
C50   C     C_R   0.309274 0.916392 0.895449 -0.118000
C51   C     C_R   0.191843 0.412115 0.105389 -0.142602
C52   C     C_R   0.802974 0.397439 0.892145 -0.151427
C53   C     C_R   0.725507 0.813939 0.953200 -0.117013
C54   C     C_R   0.280862 0.828640 0.048871 -0.116513
C55   C     C_R   0.221748 0.322656 0.952070 -0.119644
C56   C     C_R   0.774510 0.313996 0.046911 -0.116893
C57   C     C_R   0.726391 0.805076 0.901620 0.222926
C58   C     C_R   0.277197 0.813852 0.099946 0.221197
C59   C     C_R   0.224468 0.310191 0.900806 0.220454
C60   C     C_R   0.773736 0.305450 0.098501 0.222552
C61   C     C_R   0.789217 0.958888 0.897053 0.220288
C62   C     C_R   0.214597 0.967849 0.106074 0.225829
C63   C     C_R   0.288998 0.462473 0.895397 0.234026
C64   C     C_R   0.710509 0.458600 0.102689 0.220321
C65   C     C_R   0.785978 0.968331 0.948829 -0.117491
C66   C     C_R   0.219722 0.981977 0.054619 -0.119232
C67   C     C_R   0.281770 0.477493 0.946728 -0.122559
C68   C     C_R   0.713681 0.467803 0.050895 -0.117139
C69   C     C_R   0.755704 0.894216 0.977231 -0.050793
C70   C     C_R   0.251210 0.910641 0.025828 -0.055598
C71   C     C_R   0.250912 0.404781 0.975322 -0.055015
C72   C     C_R   0.744095 0.393821 0.022690 -0.050687
C73   C     C_R   0.762408 0.873161 0.873361 0.025671
C74   C     C_R   0.239925 0.879142 0.128422 0.029872
C75   C     C_R   0.261375 0.376575 0.872390 0.037661
C76   C     C_R   0.737550 0.373275 0.126595 0.025537
C77   C     C_R   0.540146 0.164023 0.374888 0.021930
C78   C     C_R   0.479640 0.167412 0.631963 0.014724
C79   C     C_R   0.040115 0.664025 0.374873 0.024426
C80   C     C_R   0.979600 0.667413 0.631943 0.014982
C81   C     C_R   0.502667 0.240280 0.394299 -0.143922
C82   C     C_R   0.489224 0.263942 0.609201 -0.140223
C83   C     C_R   0.002621 0.740271 0.394272 -0.144459
C84   C     C_R   0.989165 0.763945 0.609177 -0.138841
C85   C     C_R   0.494978 0.247257 0.445898 -0.125699
C86   C     C_R   0.506129 0.269060 0.559298 -0.127877
C87   C     C_R   0.994915 0.747250 0.445869 -0.125879
C88   C     C_R   0.006054 0.769065 0.559270 -0.127560
C89   C     C_R   0.732073 0.999633 0.180268 0.548440
C90   C     C_R   0.268428 0.000756 0.820210 0.558149
C91   C     C_R   0.231659 0.500469 0.179941 0.555448
C92   C     C_R   0.767896 0.499506 0.819699 0.547771
C93   C     C_R   0.525991 0.179728 0.478162 0.026595
C94   C     C_R   0.514395 0.177762 0.532048 0.032544
C95   C     C_R   0.025927 0.679734 0.478139 0.026465
C96   C     C_R   0.014319 0.677767 0.532021 0.032504
C97   C     C_R   0.565304 0.107058 0.458271 -0.123522
C98   C     C_R   0.509146 0.081908 0.556155 -0.121333
C99   C     C_R   0.065255 0.607077 0.458261 -0.123989
C100  C     C_R   0.009071 0.581912 0.556127 -0.121032
C101  C     C_R   0.571574 0.098336 0.407335 -0.121577
C102  C     C_R   0.492558 0.076812 0.605609 -0.124777
C103  C     C_R   0.071542 0.598351 0.407327 -0.120619
C104  C     C_R   0.992502 0.576813 0.605584 -0.123729
C105  C     C_R   0.745275 0.942196 0.368259 0.023954
C106  C     C_R   0.252666 0.944120 0.631632 0.026115
C107  C     C_R   0.245279 0.442198 0.368259 0.024527
C108  C     C_R   0.752659 0.444097 0.631641 0.024353
C109  C     C_R   0.700287 0.884567 0.391428 -0.136553
C110  C     C_R   0.289493 0.865596 0.613390 -0.126454
C111  C     C_R   0.200304 0.384515 0.391416 -0.136475
C112  C     C_R   0.789484 0.365572 0.613399 -0.128929
C113  C     C_R   0.709260 0.845898 0.439247 -0.123243
C114  C     C_R   0.277628 0.822074 0.566766 -0.117234
C115  C     C_R   0.209282 0.345822 0.439230 -0.123239
C116  C     C_R   0.777619 0.322052 0.566774 -0.117870
C117  C     C_R   0.763507 0.863397 0.464110 0.036128
C118  C     C_R   0.229570 0.858292 0.537525 0.037043
C119  C     C_R   0.263519 0.363364 0.464103 0.036209
C120  C     C_R   0.729562 0.358273 0.537532 0.037006
C121  C     C_R   0.810161 0.913257 0.439342 -0.120348
C122  C     C_R   0.191300 0.933066 0.557348 -0.116915
C123  C     C_R   0.310159 0.413291 0.439347 -0.120152
C124  C     C_R   0.691290 0.433040 0.557358 -0.117281
C125  C     C_R   0.801089 0.952544 0.391727 -0.125494
C126  C     C_R   0.202327 0.974503 0.603942 -0.120397
C127  C     C_R   0.301084 0.452591 0.391736 -0.124888
C128  C     C_R   0.702317 0.474474 0.603954 -0.121598
C129  C     C_R   0.822275 0.797646 0.536337 -0.117384
C130  C     C_R   0.166396 0.830883 0.461548 -0.115929
C131  C     C_R   0.322322 0.297749 0.536342 -0.117487
C132  C     C_R   0.666392 0.330901 0.461548 -0.115907
C133  C     C_R   0.704444 0.304682 0.326822 0.561369
C134  C     C_R   0.295424 0.305157 0.673145 0.558442
C135  C     C_R   0.204444 0.804682 0.326822 0.559818
C136  C     C_R   0.795426 0.805154 0.673146 0.558414
C137  C     C_R   0.830219 0.787051 0.587427 -0.139210
C138  C     C_R   0.161145 0.826105 0.410056 -0.129903
C139  C     C_R   0.330264 0.287184 0.587433 -0.139804
C140  C     C_R   0.661145 0.326129 0.410055 -0.129972
C141  C     C_R   0.732436 0.860372 0.601298 -0.115065
C142  C     C_R   0.267983 0.804933 0.403694 -0.118618
C143  C     C_R   0.232402 0.360198 0.601283 -0.113814
C144  C     C_R   0.767979 0.304900 0.403699 -0.118914
C145  C     C_R   0.724314 0.871199 0.550145 -0.122732
C146  C     C_R   0.273616 0.814211 0.455129 -0.118480
C147  C     C_R   0.224285 0.371011 0.550129 -0.122644
C148  C     C_R   0.773609 0.314175 0.455135 -0.118404
C149  C     C_R   0.769492 0.840842 0.517394 0.030825
C150  C     C_R   0.222923 0.829365 0.484572 0.033970
C151  C     C_R   0.269502 0.340795 0.517387 0.030752
C152  C     C_R   0.722917 0.329354 0.484576 0.033940
C153  C     C_R   0.785953 0.819739 0.620011 0.031544
C154  C     C_R   0.211784 0.814093 0.380765 0.022278
C155  C     C_R   0.285955 0.319731 0.620008 0.031373
C156  C     C_R   0.711783 0.314091 0.380767 0.021630
C157  C     C_R   0.555229 0.158414 0.322181 0.538486
C158  C     C_R   0.447112 0.158911 0.679071 0.527523
C159  C     C_R   0.055216 0.658415 0.322174 0.527231
C160  C     C_R   0.947102 0.658911 0.679066 0.540068
C161  C     C_R   0.732074 0.000890 0.322789 0.530521
C162  C     C_R   0.267763 0.001415 0.677099 0.534716
C163  C     C_R   0.232073 0.500893 0.322790 0.528987
C164  C     C_R   0.767760 0.501405 0.677104 0.533301
C165  C     C_R   0.567913 0.066758 0.091113 -0.127730
C166  C     C_R   0.502694 0.070884 0.890466 -0.137491
C167  C     C_R   0.997292 0.570690 0.109645 -0.135846
C168  C     C_R   0.932149 0.566333 0.908973 -0.126311
C169  C     C_R   0.556458 0.068211 0.040090 0.015357
C170  C     C_R   0.524568 0.070492 0.939093 0.010089
C171  C     C_R   0.975355 0.570171 0.061036 0.010468
C172  C     C_R   0.943489 0.567774 0.960023 0.016139
C173  C     C_R   0.537753 0.976727 0.962946 -0.139225
C174  C     C_R   0.553017 0.975539 0.013296 -0.134490
C175  C     C_R   0.947162 0.475078 0.986909 -0.133488
C176  C     C_R   0.962404 0.476320 0.037267 -0.137988
Cr1   Cr    Cr6+3 0.756570 0.170940 0.251190 1.023420
Cr2   Cr    Cr6+3 0.243430 0.170940 0.748810 1.035540
Cr3   Cr    Cr6+3 0.256570 0.670940 0.251190 1.030162
Cr4   Cr    Cr6+3 0.743430 0.670940 0.748810 1.022967
Cr5   Cr    Cr6+3 0.623740 0.299110 0.249580 1.027804
Cr6   Cr    Cr6+3 0.376260 0.299110 0.750420 1.019993
Cr7   Cr    Cr6+3 0.123740 0.799110 0.249580 1.031963
Cr8   Cr    Cr6+3 0.876260 0.799110 0.750420 1.028594
Cr9   Cr    Cr6+3 0.625990 0.036240 0.250480 0.996640
Cr10  Cr    Cr6+3 0.374010 0.036240 0.749520 1.004434
Cr11  Cr    Cr6+3 0.125990 0.536240 0.250480 1.000867
Cr12  Cr    Cr6+3 0.874010 0.536240 0.749520 0.997216
H1    H     H_    0.497004 0.997719 0.871346 0.123641
H2    H     H_    0.574181 0.993228 0.109727 0.122311
H3    H     H_    0.926187 0.492787 0.890398 0.122169
H4    H     H_    0.003153 0.497520 0.128818 0.125837
H5    H     H_    0.663160 0.845729 0.038165 0.096940
H6    H     H_    0.346293 0.878448 0.966298 0.098264
H7    H     H_    0.155714 0.370335 0.034726 0.105637
H8    H     H_    0.836816 0.346073 0.961976 0.097306
H9    H     H_    0.655173 0.881771 0.126147 0.114725
H10   H     H_    0.351965 0.906501 0.877585 0.131004
H11   H     H_    0.149102 0.401917 0.123158 0.131585
H12   H     H_    0.844860 0.382089 0.873970 0.114998
H13   H     H_    0.479449 0.293437 0.369739 0.112236
H14   H     H_    0.479894 0.335050 0.628858 0.126102
H15   H     H_    0.979405 0.793415 0.369705 0.110387
H16   H     H_    0.979839 0.835052 0.628835 0.127498
H17   H     H_    0.514699 0.010072 0.536089 0.101661
H18   H     H_    0.591220 0.056341 0.482175 0.104822
H19   H     H_    0.014620 0.510077 0.536059 0.101732
H20   H     H_    0.091171 0.556372 0.482171 0.105137
H21   H     H_    0.486012 0.001204 0.622066 0.131152
H22   H     H_    0.602918 0.042143 0.393290 0.129203
H23   H     H_    0.985961 0.501205 0.622041 0.132159
H24   H     H_    0.102897 0.542165 0.393290 0.129656
H25   H     H_    0.464115 0.303702 0.460445 0.098466
H26   H     H_    0.511103 0.343891 0.541689 0.097904
H27   H     H_    0.964041 0.803685 0.460408 0.098385
H28   H     H_    0.011024 0.843895 0.541660 0.098110
H29   H     H_    0.657109 0.874156 0.373815 0.124004
H30   H     H_    0.328184 0.840078 0.634410 0.123797
H31   H     H_    0.157132 0.374076 0.373796 0.123655
H32   H     H_    0.828176 0.340054 0.634419 0.122761
H33   H     H_    0.857372 0.772790 0.511667 0.113558
H34   H     H_    0.126200 0.839141 0.483125 0.112335
H35   H     H_    0.357451 0.272996 0.511679 0.113766
H36   H     H_    0.626194 0.339175 0.483121 0.112075
H37   H     H_    0.870466 0.752050 0.601605 0.114676
H38   H     H_    0.117458 0.831926 0.393010 0.134939
H39   H     H_    0.370543 0.252314 0.601619 0.116204
H40   H     H_    0.617460 0.331976 0.393007 0.134589
H41   H     H_    0.534009 0.904019 0.943162 0.090668
H42   H     H_    0.560542 0.901962 0.031584 0.094532
H43   H     H_    0.939841 0.401461 0.968688 0.095617
H44   H     H_    0.966351 0.403606 0.057117 0.093986
H45   H     H_    0.673093 0.806067 0.457606 0.104568
H46   H     H_    0.307193 0.762811 0.552984 0.104849
H47   H     H_    0.173127 0.305939 0.457577 0.104495
H48   H     H_    0.807185 0.262790 0.552992 0.104729
H49   H     H_    0.683620 0.906326 0.536269 0.102277
H50   H     H_    0.317931 0.814251 0.471332 0.103195
H51   H     H_    0.183561 0.406026 0.536247 0.102665
H52   H     H_    0.817923 0.314193 0.471340 0.103173
H53   H     H_    0.697552 0.885111 0.626191 0.124223
H54   H     H_    0.307822 0.794202 0.381871 0.131814
H55   H     H_    0.197484 0.384827 0.626168 0.126962
H56   H     H_    0.807817 0.294149 0.381878 0.131415
H57   H     H_    0.852341 0.927835 0.457973 0.098698
H58   H     H_    0.154707 0.965022 0.535835 0.100140
H59   H     H_    0.352330 0.427913 0.457985 0.098760
H60   H     H_    0.654697 0.464999 0.535847 0.100075
H61   H     H_    0.836757 0.995715 0.374462 0.126812
H62   H     H_    0.172979 0.034987 0.616910 0.134296
H63   H     H_    0.336741 0.495807 0.374483 0.127275
H64   H     H_    0.672967 0.534954 0.616923 0.133682
H65   H     H_    0.478089 0.329538 0.875506 0.114155
H66   H     H_    0.566227 0.326120 0.114370 0.149774
H67   H     H_    0.932942 0.825802 0.885563 0.150228
H68   H     H_    0.021465 0.829540 0.124296 0.133931
H69   H     H_    0.511594 0.425251 0.950138 0.090153
H70   H     H_    0.542984 0.423681 0.037872 0.115017
H71   H     H_    0.955665 0.923401 0.962006 0.116929
H72   H     H_    0.987107 0.925099 0.049715 0.108532
H73   H     H_    0.835621 0.998520 0.127926 0.138245
H74   H     H_    0.166004 0.994621 0.873936 0.135334
H75   H     H_    0.334473 0.494156 0.126861 0.134449
H76   H     H_    0.664146 0.497025 0.871758 0.135742
H77   H     H_    0.702584 0.755037 0.974394 0.120541
H78   H     H_    0.304707 0.772155 0.026977 0.124515
H79   H     H_    0.198232 0.265302 0.973827 0.121729
H80   H     H_    0.797555 0.255210 0.025868 0.120889
H81   H     H_    0.845098 0.956143 0.040160 0.106690
H82   H     H_    0.159727 0.961639 0.963182 0.108006
H83   H     H_    0.341651 0.458065 0.038036 0.100276
H84   H     H_    0.654585 0.454512 0.959578 0.106727
H85   H     H_    0.807944 0.033152 0.966708 0.121998
H86   H     H_    0.197778 0.047252 0.037054 0.122004
H87   H     H_    0.300890 0.544965 0.964533 0.120218
H88   H     H_    0.691568 0.532330 0.032854 0.121797
O1    O     O_R   0.769900 0.064540 0.196060 -0.482382
O2    O     O_R   0.230100 0.064540 0.803940 -0.484633
O3    O     O_R   0.269900 0.564540 0.196060 -0.483934
O4    O     O_R   0.730100 0.564540 0.803940 -0.482606
O5    O     O_R   0.574760 0.239320 0.300850 -0.516870
O6    O     O_R   0.425240 0.239320 0.699150 -0.524832
O7    O     O_R   0.074760 0.739320 0.300850 -0.523618
O8    O     O_R   0.925240 0.739320 0.699150 -0.517916
O9    O     O_R   0.566290 0.069580 0.305400 -0.511227
O10   O     O_R   0.433710 0.069580 0.694600 -0.519908
O11   O     O_R   0.066290 0.569580 0.305400 -0.517333
O12   O     O_R   0.933710 0.569580 0.694600 -0.514067
O13   O     O_R   0.680760 0.993330 0.302620 -0.511850
O14   O     O_R   0.319240 0.993330 0.697380 -0.503932
O15   O     O_R   0.180760 0.493330 0.302620 -0.512932
O16   O     O_R   0.819240 0.493330 0.697380 -0.504721
O17   O     O_3   0.668770 0.168760 0.250420 -0.289842
O18   O     O_3   0.331230 0.168760 0.749580 -0.268112
O19   O     O_3   0.168770 0.668760 0.250420 -0.268438
O20   O     O_3   0.831230 0.668760 0.749580 -0.288677
O21   O     O_R   0.750800 0.274080 0.199250 -0.457257
O22   O     O_R   0.249200 0.274080 0.800750 -0.456707
O23   O     O_R   0.250800 0.774080 0.199250 -0.457930
O24   O     O_R   0.749200 0.774080 0.800750 -0.458421
O25   O     O_R   0.669990 0.371670 0.194150 -0.476250
O26   O     O_R   0.330010 0.371670 0.805850 -0.477824
O27   O     O_R   0.169990 0.871670 0.194150 -0.463763
O28   O     O_R   0.830010 0.871670 0.805850 -0.477085
O29   O     O_R   0.574600 0.238480 0.197800 -0.499507
O30   O     O_R   0.425400 0.238480 0.802200 -0.503526
O31   O     O_R   0.074600 0.738480 0.197800 -0.497487
O32   O     O_R   0.925400 0.738480 0.802200 -0.498599
O33   O     O_R   0.566130 0.068680 0.194240 -0.514186
O34   O     O_R   0.433870 0.068680 0.805760 -0.523143
O35   O     O_R   0.066130 0.568680 0.194240 -0.521034
O36   O     O_R   0.933870 0.568680 0.805760 -0.513759
O37   O     O_R   0.680610 0.992490 0.199570 -0.525860
O38   O     O_R   0.319390 0.992490 0.800430 -0.506802
O39   O     O_R   0.180610 0.492490 0.199570 -0.508465
O40   O     O_R   0.819390 0.492490 0.800430 -0.527188
O41   O     O_R   0.770060 0.065440 0.307230 -0.530753
O42   O     O_R   0.229940 0.065440 0.692770 -0.531725
O43   O     O_R   0.270060 0.565440 0.307230 -0.531979
O44   O     O_R   0.729940 0.565440 0.692770 -0.531524
O45   O     O_R   0.750960 0.274920 0.302300 -0.508196
O46   O     O_R   0.249040 0.274920 0.697700 -0.507828
O47   O     O_R   0.250960 0.774920 0.302300 -0.510714
O48   O     O_R   0.749040 0.774920 0.697700 -0.507644
O49   O     O_R   0.670160 0.372580 0.305320 -0.509339
O50   O     O_R   0.329840 0.372580 0.694680 -0.506075
O51   O     O_R   0.170160 0.872580 0.305320 -0.510618
O52   O     O_R   0.829840 0.872580 0.694680 -0.508784
O53   O     O_3   0.822832 0.028792 0.870287 -0.553529
C177  C     C_3   0.788735 0.119118 0.862935 -0.117551
H89   H     H_    0.778904 0.157952 0.898865 0.117910
H90   H     H_    0.746607 0.102099 0.842286 0.115280
H91   H     H_    0.814866 0.174079 0.840093 0.143587
O54   O     O_3   0.179841 0.034645 0.133574 -0.548974
C178  C     C_3   0.210581 0.129106 0.139330 -0.119038
H92   H     H_    0.214989 0.170349 0.103195 0.115629
H93   H     H_    0.255222 0.117375 0.156897 0.114907
H94   H     H_    0.184547 0.179663 0.164361 0.144384
O55   O     O_3   0.320126 0.533143 0.866589 -0.540575
C179  C     C_3   0.378483 0.547046 0.885599 -0.105921
H95   H     H_    0.399578 0.472731 0.897227 0.105566
H96   H     H_    0.378677 0.602995 0.916911 0.097008
H97   H     H_    0.406408 0.580420 0.855742 0.136220
O56   O     O_3   0.676745 0.528319 0.129264 -0.553876
C180  C     C_3   0.710830 0.618696 0.136678 -0.117288
H98   H     H_    0.721006 0.657524 0.100747 0.117356
H99   H     H_    0.752764 0.601734 0.157612 0.116217
H100  H     H_    0.684530 0.673635 0.159268 0.144015
O57   O     O_3   0.698153 0.721223 0.879960 -0.534288
C181  C     C_3   0.636457 0.741500 0.877617 -0.116102
H101  H     H_    0.614338 0.677711 0.856987 0.127720
H102  H     H_    0.626832 0.814587 0.857083 0.109685
H103  H     H_    0.616766 0.744137 0.915446 0.089750
O58   O     O_3   0.303063 0.726253 0.120244 -0.534981
C182  C     C_3   0.364727 0.743989 0.126049 -0.108778
H104  H     H_    0.384789 0.676334 0.145265 0.134921
H105  H     H_    0.373692 0.813226 0.149569 0.114660
H106  H     H_    0.386912 0.751985 0.089381 0.093497
O59   O     O_3   0.197746 0.223950 0.879990 -0.539165
C183  C     C_3   0.136069 0.242627 0.875280 -0.107104
H107  H     H_    0.115291 0.176244 0.855610 0.134634
H108  H     H_    0.126949 0.313209 0.852664 0.119313
H109  H     H_    0.114690 0.248843 0.912349 0.097086
O60   O     O_3   0.802261 0.222052 0.120352 -0.535580
C184  C     C_3   0.863879 0.243198 0.122672 -0.113872
H110  H     H_    0.886223 0.179696 0.143386 0.132573
H111  H     H_    0.873229 0.316403 0.143110 0.110608
H112  H     H_    0.883565 0.246150 0.084841 0.092200

loop_
_geom_bond_atom_site_label_1
_geom_bond_atom_site_label_2
_ccdc_geom_bond_type
C99   C103  A    
C7    C168  A    
C92   O40   A    
C37   C69   S    
C142  C146  A    
C131  C151  A    
C19   C20   A    
C45   O29   A    
C53   C69   A    
C38   C70   S    
C50   H10   S    
C114  H46   S    
C108  C164  S    
C133  O45   A    
C55   C59   A    
C26   C50   A    
C95   C99   A    
C176  H44   S    
C29   C33   A    
C100  C104  A    
C31   H75   S    
C32   H76   S    
C3    C74   S    
C9    C13   A    
C41   H5    S    
C146  C150  A    
C77   C101  A    
C62   O54   S    
Cr7   O51   S    
C12   C16   A    
C56   C72   A    
C169  C174  A    
C172  C175  A    
C141  C145  A    
C122  H58   S    
C84   H16   S    
C6    C165  A    
C148  H52   S    
C21   C22   A    
C135  O51   A    
C41   C49   A    
Cr12  O16   S    
C18   C170  A    
C22   H69   S    
C25   C29   A    
C44   H8    S    
C177  H89   S    
C27   C31   A    
C28   C32   A    
Cr9   O13   S    
C179  H95   S    
Cr10  O10   S    
C82   H14   S    
C62   C66   A    
C167  C171  A    
C98   C102  A    
C60   C76   A    
Cr6   O30   S    
C30   H74   S    
C15   C19   A    
C78   C82   A    
C182  H104  S    
C54   C70   A    
C36   C40   A    
C68   C72   A    
C11   H68   S    
C137  C153  A    
C2    O26   A    
C180  H100  S    
C3    O23   A    
Cr8   O28   S    
C20   C172  A    
C132  C152  A    
C130  C138  A    
C160  O8    A    
C84   C88   A    
C92   O4    A    
Cr6   O6    S    
C119  C123  A    
C26   C90   S    
C5    C46   S    
C105  C125  A    
C7    C48   S    
Cr6   O26   S    
C125  H61   S    
C8    C47   S    
C107  C127  A    
C184  H110  S    
C136  C153  S    
C66   C70   A    
C53   H77   S    
C144  H56   S    
Cr3   O23   S    
C181  H101  S    
C178  H92   S    
C61   C65   A    
C158  O6    A    
C129  C137  A    
O59   C183  S    
C39   C71   S    
C34   H82   S    
C47   O31   A    
C4    O24   A    
C89   O37   A    
C55   C71   A    
C2    C75   S    
C63   O55   S    
C124  H60   S    
O57   C181  S    
Cr10  O38   S    
C10   H65   S    
C161  O13   A    
C179  H97   S    
C134  O46   A    
Cr4   O4    S    
C46   O34   A    
C6    C9    A    
C49   H9    S    
C129  C149  A    
C64   C68   A    
C139  H39   S    
O60   C184  S    
C43   H7    S    
Cr8   O32   S    
C57   C73   A    
C137  H37   S    
C123  C127  A    
C78   C158  S    
C146  H50   S    
C87   C95   A    
C130  C150  A    
C163  O43   A    
C23   C24   A    
C27   C91   S    
C52   H12   S    
C97   H18   S    
C110  C114  A    
C44   C52   A    
C164  O44   A    
C79   C103  A    
C111  H31   S    
C183  H107  S    
C27   C51   A    
C112  H32   S    
C7    C12   A    
C140  H40   S    
C30   C34   A    
C65   H85   S    
Cr2   O22   S    
C10   C14   A    
C184  H112  S    
C164  O16   A    
O54   C178  S    
C133  O49   A    
C142  H54   S    
C64   O56   S    
C108  C128  A    
C116  C120  A    
C144  C156  A    
C147  C151  A    
C86   H26   S    
C121  C125  A    
C143  C155  A    
C139  C155  A    
C89   O1    A    
C17   C18   A    
C36   H84   S    
C5    C166  A    
C142  C154  A    
C91   O3    A    
C174  H42   S    
C4    C73   S    
Cr12  O20   S    
C51   H11   S    
C42   C50   A    
C113  C117  A    
C182  H105  S    
C107  C163  S    
C23   H72   S    
C166  C170  A    
C115  C119  A    
C105  C161  S    
Cr9   O17   S    
C117  C121  A    
Cr10  O14   S    
C93   C97   A    
C112  C116  A    
Cr11  O19   S    
C58   C74   A    
Cr4   O44   S    
C105  C109  A    
C40   C72   S    
C1    C76   S    
C107  C111  A    
C148  C152  A    
C117  C149  S    
C102  H21   S    
C26   C30   A    
C147  H51   S    
C171  C176  A    
C13   C17   A    
C166  H1    S    
C14   C22   A    
C57   O57   S    
C141  C153  A    
C63   C75   A    
C96   C100  A    
C143  H55   S    
C37   C41   A    
C56   H80   S    
C163  O15   A    
C131  C139  A    
C40   C44   A    
O56   C180  S    
O58   C182  S    
C131  H35   S    
C138  C154  A    
C183  H109  S    
C81   C85   A    
C83   C87   A    
C88   C96   A    
Cr1   O17   S    
C6    C45   S    
C78   C102  A    
C133  C156  S    
Cr3   O19   S    
Cr7   O19   S    
C80   C84   A    
C115  H47   S    
C113  H45   S    
C135  C154  S    
C177  H90   S    
C80   C104  A    
C1    O21   A    
C179  H96   S    
C79   C159  S    
C80   C160  S    
C94   C98   A    
C135  O47   A    
C47   O35   A    
C4    O28   A    
C118  C150  S    
C90   O38   A    
Cr1   O21   S    
Cr12  O12   S    
C177  H91   S    
C159  O7    A    
Cr11  O39   S    
C180  H99   S    
C46   O30   A    
C124  C128  A    
C121  H57   S    
C12   H67   S    
Cr4   O20   S    
C165  C169  A    
Cr7   O31   S    
Cr6   O18   S    
C100  H19   S    
C162  O42   A    
C83   H15   S    
C53   C57   A    
C81   H13   S    
C181  H103  S    
C61   C73   A    
C82   C86   A    
C141  H53   S    
C56   C60   A    
C48   O36   A    
Cr12  O36   S    
C35   C39   A    
C8    C167  A    
O55   C179  S    
C58   O58   S    
C130  H34   S    
C116  H48   S    
Cr9   O33   S    
C128  H64   S    
Cr11  O35   S    
C31   C35   A    
C136  O52   A    
Cr1   O41   S    
C32   C36   A    
Cr3   O43   S    
C178  H93   S    
Cr5   O17   S    
Cr4   O48   S    
C132  H36   S    
Cr8   O8    S    
C162  O14   A    
C60   O60   S    
C178  H94   S    
C157  O9    A    
C132  C140  A    
C106  C126  A    
C25   C89   S    
C99   H20   S    
C126  H62   S    
C45   O33   A    
Cr12  O40   S    
C55   H79   S    
C79   C83   A    
C43   C51   A    
C65   C69   A    
C67   C71   A    
C106  C162  S    
C67   H87   S    
Cr10  O18   S    
C25   C49   A    
Cr11  O15   S    
C108  C112  A    
C168  C172  A    
C90   O2    A    
Cr7   O7    S    
C134  O50   A    
C87   H27   S    
C62   C74   A    
Cr3   O47   S    
Cr8   O52   S    
C145  C149  A    
C170  C173  A    
C93   C94   S    
Cr2   O46   S    
O53   C177  S    
C14   C18   A    
C9    H66   S    
C144  C148  A    
Cr8   O20   S    
C183  H108  S    
C173  C174  A    
C143  C147  A    
C167  H4    S    
C24   H71   S    
C54   H78   S    
C168  H3    S    
C161  O41   A    
C19   C171  A    
C38   C42   A    
C184  H111  S    
C118  C122  A    
C17   C169  A    
C21   H70   S    
C42   H6    S    
Cr2   O2    S    
Cr9   O9    S    
C86   C94   A    
Cr11  O11   S    
C175  C176  A    
Cr5   O29   S    
Cr2   O18   S    
C29   H73   S    
C98   H17   S    
C77   C81   A    
C16   C20   A    
C59   O59   S    
C15   C23   A    
Cr3   O3    S    
C16   C24   A    
C1    O25   A    
Cr1   O45   S    
C2    O22   A    
C110  H30   S    
C3    O27   A    
C165  H2    S    
C119  C151  S    
C63   C67   A    
C120  C152  S    
C175  H43   S    
C13   C21   A    
C48   O32   A    
C109  H29   S    
C129  H33   S    
C91   O39   A    
C39   C43   A    
C159  O11   A    
C145  H49   S    
C160  O12   A    
C122  C126  A    
C181  H102  S    
Cr5   O5    S    
C85   H25   S    
C85   C93   A    
C68   H88   S    
Cr4   O24   S    
C138  H38   S    
C64   C76   A    
Cr5   O25   S    
C28   C92   S    
C109  C113  A    
Cr7   O27   S    
C114  C118  A    
C173  H41   S    
C140  C156  A    
C11   C15   A    
C59   C75   A    
C157  O5    A    
C54   C58   A    
C158  O10   A    
C134  C155  S    
C88   H28   S    
C33   H81   S    
C34   C38   A    
C35   H83   S    
C103  H24   S    
Cr1   O1    S    
C101  H22   S    
Cr9   O37   S    
Cr6   O50   S    
Cr10  O34   S    
Cr5   O49   S    
C5    C10   A    
C123  H59   S    
C28   C52   A    
C8    C11   A    
C33   C37   A    
C136  O48   A    
C127  H63   S    
Cr2   O42   S    
C66   H86   S    
C182  H106  S    
C106  C110  A    
C95   C96   S    
C111  C115  A    
C104  H23   S    
C61   O53   S    
C180  H98   S    
C97   C101  A    
C120  C124  A    
C77   C157  S    
