data_mof_unit_3901.cif
_audit_creation_date              2012-12-11T14:23:04-0500
_audit_creation_method            fapswitch 2.2
_symmetry_space_group_name_H-M    P1
_symmetry_Int_Tables_number       1
_space_group_crystal_system       triclinic
_cell_length_a                    11.003651
_cell_length_b                    10.971853
_cell_length_c                    18.841609
_cell_angle_alpha                 90.282413
_cell_angle_beta                  90.014867
_cell_angle_gamma                 59.986498
_cell_volume                      1969.69787985

loop_
_atom_site_label
_atom_site_type_symbol
_atom_type_description
_atom_site_fract_x
_atom_site_fract_y
_atom_site_fract_z
_atom_type_partial_charge
C1    C     C_R   0.237376 0.645328 0.610258 0.528345
C2    C     C_3   0.689198 0.539666 0.801270 -0.204309
C3    C     C_3   0.699267 0.673158 0.812675 0.037856
C4    C     C_3   0.667339 0.644595 0.677659 0.088138
C5    C     C_3   0.808555 0.639377 0.689997 -0.272415
C6    C     C_3   0.665061 0.524081 0.721842 -0.013192
C7    C     C_R   0.693438 0.143165 0.820081 -0.009737
C8    C     C_R   0.804654 0.140699 0.780412 0.015686
C9    C     C_R   0.798923 0.139254 0.704823 0.016025
C10   C     C_R   0.572591 0.152929 0.711128 -0.162710
C11   C     C_R   0.578542 0.151499 0.783343 -0.164283
C12   C     C_R   0.652493 0.620597 0.601789 0.551207
C13   C     C_R   0.920939 0.139650 0.812639 -0.104110
C14   C     C_R   0.033511 0.123523 0.771811 -0.145406
C15   C     C_R   0.032168 0.110574 0.698472 -0.141430
C16   C     C_R   0.916676 0.117435 0.665122 -0.090037
C17   C     C_R   0.675810 0.158218 0.671066 -0.007891
C18   C     C_R   0.188344 0.663548 0.836043 -0.007732
C19   C     C_R   0.202149 0.544628 0.799465 0.020369
C20   C     C_R   0.193678 0.546587 0.724109 0.022053
C21   C     C_R   0.203768 0.762931 0.725068 -0.121112
C22   C     C_R   0.199434 0.766375 0.798156 -0.137138
C23   C     C_R   0.630999 0.223413 0.601088 0.544493
C24   C     C_R   0.223661 0.424066 0.836389 -0.089303
C25   C     C_R   0.221603 0.314197 0.800880 -0.142170
C26   C     C_R   0.198452 0.322142 0.728185 -0.147893
C27   C     C_R   0.182470 0.437538 0.690104 -0.102795
C28   C     C_R   0.198184 0.656548 0.686254 0.007829
C29   C     C_R   0.709893 0.695689 0.180529 -0.013115
C30   C     C_R   0.823678 0.613957 0.227830 0.009598
C31   C     C_R   0.796343 0.628649 0.301164 0.011365
C32   C     C_R   0.549087 0.723823 0.274285 0.059137
C33   C     C_R   0.572895 0.749265 0.204893 -0.137427
C34   C     C_R   0.221909 0.648456 0.402014 0.540449
C35   C     C_R   0.958392 0.504830 0.206639 -0.100632
C36   C     C_R   0.055886 0.419177 0.257470 -0.152518
C37   C     C_R   0.034594 0.455553 0.328629 -0.110508
C38   C     C_R   0.909090 0.570196 0.349552 -0.072567
C39   C     C_R   0.659651 0.672101 0.323915 0.072010
C40   C     C_R   0.629218 0.172701 0.174101 0.024669
C41   C     C_R   0.541254 0.141907 0.218177 0.039258
C42   C     C_R   0.576276 0.117860 0.290756 0.003893
C43   C     C_R   0.702979 0.245580 0.277204 -0.157554
C44   C     C_R   0.704985 0.229536 0.204460 -0.162927
C45   C     C_R   0.640821 0.623622 0.392582 0.594537
C46   C     C_R   0.421233 0.134072 0.194847 0.120278
C47   C     C_R   0.358835 0.080824 0.240599 -0.178635
C48   C     C_R   0.410449 0.036922 0.308506 -0.109605
C49   C     C_R   0.524493 0.046404 0.332381 0.171114
C50   C     C_R   0.646367 0.182878 0.321059 0.017224
C51   C     C_R   0.137045 0.696986 0.186745 0.008797
C52   C     C_R   0.093780 0.818199 0.232411 0.036373
C53   C     C_R   0.084733 0.800214 0.305137 0.029426
C54   C     C_R   0.236502 0.547562 0.286178 -0.145434
C55   C     C_R   0.214947 0.563177 0.214024 -0.180299
C56   C     C_R   0.616032 0.232235 0.394044 0.588642
C57   C     C_R   0.072104 0.952339 0.210723 -0.093220
C58   C     C_R   0.028037 0.063712 0.258779 -0.156677
C59   C     C_R   0.997692 0.047970 0.328365 -0.110048
C60   C     C_R   0.018818 0.918703 0.350732 -0.065438
C61   C     C_R   0.165555 0.664341 0.331991 0.018492
C62   C     C_R   0.703721 0.099300 0.894941 0.538320
C63   C     C_R   0.724187 0.688250 0.888145 0.549019
C64   C     C_R   0.120881 0.704322 0.906424 0.537099
C65   C     C_R   0.671490 0.108988 0.103584 0.558590
C66   C     C_R   0.732533 0.714836 0.105791 0.565844
C67   C     C_3   0.562431 0.802731 0.784879 -0.232078
C68   C     C_R   0.090783 0.713842 0.113554 0.546089
C69   C     C_3   0.547804 0.789405 0.704571 -0.215233
C70   C     C_3   0.825448 0.660546 0.769245 -0.236453
Cr1   Cr    Cr6+3 0.392940 0.397950 0.502230 1.016824
Cr2   Cr    Cr6+3 0.398400 0.708500 0.501260 1.040017
Cr3   Cr    Cr6+3 0.708640 0.393530 0.496460 0.990756
Cr4   Cr    Cr6+3 0.937880 0.938320 0.007620 0.992590
Cr5   Cr    Cr6+3 0.625560 0.937220 0.994510 1.002710
Cr6   Cr    Cr6+3 0.938080 0.625010 0.001190 0.991101
H1    H     H_    0.564297 0.901457 0.795426 0.137057
H2    H     H_    0.752263 0.420297 0.703437 0.158480
H3    H     H_    0.925351 0.569810 0.788182 0.163073
H4    H     H_    0.896650 0.535808 0.672362 0.134861
H5    H     H_    0.480248 0.159392 0.687014 0.154392
H6    H     H_    0.926352 0.154196 0.868896 0.141671
H7    H     H_    0.492795 0.150199 0.810246 0.151823
H8    H     H_    0.124744 0.114877 0.797624 0.098137
H9    H     H_    0.122743 0.090149 0.667110 0.098242
H10   H     H_    0.923114 0.099920 0.608392 0.136015
H11   H     H_    0.215792 0.843225 0.698850 0.139961
H12   H     H_    0.469450 0.810998 0.812867 0.122357
H13   H     H_    0.246731 0.411761 0.892580 0.133491
H14   H     H_    0.198048 0.854442 0.825015 0.136793
H15   H     H_    0.241381 0.221668 0.830111 0.096513
H16   H     H_    0.197399 0.236754 0.700499 0.107049
H17   H     H_    0.157492 0.440443 0.634593 0.137753
H18   H     H_    0.989764 0.474431 0.152600 0.161991
H19   H     H_    0.485293 0.797370 0.168394 0.135289
H20   H     H_    0.153632 0.331378 0.241781 0.115857
H21   H     H_    0.115909 0.396181 0.367130 0.127548
H22   H     H_    0.443402 0.801348 0.693630 0.159448
H23   H     H_    0.893930 0.597674 0.405433 0.143553
H24   H     H_    0.748497 0.305142 0.299167 0.148681
H25   H     H_    0.765510 0.261255 0.171929 0.129474
H26   H     H_    0.268916 0.074093 0.223035 0.099413
H27   H     H_    0.362268 0.994391 0.342884 0.165744
H28   H     H_    0.308155 0.443230 0.306178 0.150258
H29   H     H_    0.101723 0.972350 0.159509 0.145024
H30   H     H_    0.260580 0.471846 0.179571 0.136541
H31   H     H_    0.552408 0.876008 0.676432 0.112847
H32   H     H_    0.015518 0.163395 0.241643 0.108428
H33   H     H_    0.960626 0.135129 0.365392 0.131101
H34   H     H_    0.997737 0.908125 0.405849 0.130444
H35   H     H_    0.833503 0.757079 0.776660 0.131649
H36   H     H_    0.813613 0.722307 0.658483 0.123770
H37   H     H_    0.788022 0.445335 0.818738 0.118271
H38   H     H_    0.602905 0.545559 0.834716 0.132931
O1    O     O_R   0.507340 0.255690 0.581430 -0.505330
O2    O     O_R   0.524510 0.695820 0.424050 -0.439695
O3    O     O_R   0.736370 0.504260 0.414810 -0.548145
O4    O     O_R   0.691220 0.277270 0.422180 -0.520606
O5    O     O_3   0.499990 0.499990 0.499980 -0.262812
O6    O     O_R   0.089570 0.825450 0.930590 -0.522781
O7    O     O_R   0.818700 0.054260 0.929860 -0.509760
O8    O     O_R   0.606310 0.077010 0.915520 -0.533110
O9    O     O_R   0.646730 0.806540 0.917560 -0.507169
O10   O     O_R   0.837290 0.593240 0.915240 -0.522857
O11   O     O_R   0.065320 0.635310 0.931580 -0.509006
O12   O     O_R   0.280360 0.527380 0.578910 -0.518332
O13   O     O_R   0.068470 0.828620 0.091850 -0.540086
O14   O     O_R   0.799150 0.057200 0.079350 -0.509406
O15   O     O_R   0.585220 0.080180 0.076770 -0.489200
O16   O     O_R   0.627170 0.809480 0.067050 -0.503971
O17   O     O_R   0.816200 0.596410 0.076500 -0.538422
O18   O     O_R   0.045770 0.638240 0.081070 -0.526246
O19   O     O_3   0.833840 0.833520 0.001110 -0.264106
O20   O     O_R   0.260600 0.739610 0.584580 -0.532494
O21   O     O_R   0.532370 0.695050 0.573830 -0.497336
O22   O     O_R   0.744850 0.503430 0.576380 -0.539141
O23   O     O_R   0.699080 0.276500 0.571950 -0.521119
O24   O     O_R   0.498860 0.256520 0.419860 -0.483663
O25   O     O_R   0.272490 0.528150 0.429140 -0.521974
O26   O     O_R   0.252110 0.740440 0.423010 -0.501385
N1    N     N_3   0.417154 0.735665 0.291924 -0.590354
H39   H     H_    0.408266 0.660927 0.261323 0.228586
H40   H     H_    0.336780 0.834241 0.276187 0.228907
N2    N     N_3   0.351520 0.193736 0.128892 -0.594643
H41   H     H_    0.342191 0.116169 0.100941 0.235588
H42   H     H_    0.249961 0.275834 0.138272 0.191681
Br1   Br    Br    0.610650 0.952610 0.420170 -0.559952
N3    N     N_3   0.532035 0.525119 0.712878 -0.630367
H43   H     H_    0.524832 0.497953 0.660525 0.258286
H44   H     H_    0.534796 0.444797 0.743744 0.232301

loop_
_geom_bond_atom_site_label_1
_geom_bond_atom_site_label_2
_ccdc_geom_bond_type
C57   H29   S    
C21   H11   S    
C8    C13   A    
Cr3   O5    S    
C63   O9    A    
Cr5   O8    S    
C2    H38   S    
C41   C42   A    
C35   C36   A    
C67   H1    S    
C14   H8    S    
C24   H13   S    
C37   H21   S    
C63   O10   A    
C69   H31   S    
C7    C8    A    
C7    C11   A    
C26   C27   A    
C17   C23   S    
C30   C35   A    
Cr5   O9    S    
C54   H28   S    
C36   C37   A    
C9    C16   A    
N3    H44   S    
N1    H40   S    
C30   C31   A    
Cr6   O17   S    
C6    H2    S    
Cr1   O5    S    
C10   C17   A    
C26   H16   S    
C15   C16   A    
Cr4   O19   S    
C29   C33   A    
C34   O25   A    
C6    N3    S    
C49   Br1   S    
C18   C19   A    
C32   C39   A    
C68   O18   A    
C59   H33   S    
C54   C55   A    
C53   C61   A    
Cr4   O14   S    
C19   C20   A    
C8    C9    A    
C12   O21   A    
C1    C28   S    
C41   C46   A    
Cr1   O12   S    
C4    C12   S    
C58   H32   S    
Cr5   O16   S    
C39   C45   S    
C69   H22   S    
C59   C60   A    
C47   H26   S    
C21   C22   A    
C16   H10   S    
Cr6   O11   S    
C2    C6    S    
C33   H19   S    
C4    C69   S    
C51   C68   S    
C53   C60   A    
Cr1   O24   S    
C25   H15   S    
Cr3   O3    S    
C55   H30   S    
C51   C52   A    
Cr6   O10   S    
C65   O14   A    
C3    C70   S    
C43   H24   S    
N2    H42   S    
C52   C57   A    
N2    H41   S    
Cr2   O21   S    
Cr1   O25   S    
C20   C28   A    
C11   H7    S    
C58   C59   A    
C48   H27   S    
C13   H6    S    
C34   C61   S    
C50   C56   S    
C67   C69   S    
C37   C38   A    
C43   C44   A    
C7    C62   S    
C29   C30   A    
C65   O15   A    
C56   O24   A    
C36   H20   S    
Cr2   O20   S    
Cr4   O13   S    
Cr3   O22   S    
Cr2   O26   S    
Cr6   O19   S    
C22   H14   S    
Cr1   O1    S    
C24   C25   A    
C5    H4    S    
C68   O13   A    
C32   N1    S    
C42   C50   A    
C4    C6    S    
C48   C49   A    
C54   C61   A    
C21   C28   A    
C40   C65   S    
C1    O12   A    
C27   H17   S    
C1    O20   A    
C62   O8    A    
C52   C53   A    
C66   O17   A    
C35   H18   S    
C9    C17   A    
C46   C47   A    
C40   C41   A    
Cr3   O4    S    
C70   H3    S    
C18   C22   A    
C56   O4    A    
C23   O23   A    
C3    C67   S    
C38   H23   S    
C47   C48   A    
C5    C70   S    
C46   N2    S    
C44   H25   S    
Cr5   O19   S    
C43   C50   A    
C67   H12   S    
C20   C27   A    
C3    C63   S    
C5    H36   S    
Cr4   O6    S    
Cr2   O2    S    
C10   H5    S    
C70   H35   S    
C64   O6    A    
C31   C38   A    
C15   H9    S    
C32   C33   A    
C19   C24   A    
C25   C26   A    
N1    H39   S    
Cr6   O18   S    
C45   O2    A    
C18   C64   S    
C57   C58   A    
Cr3   O23   S    
C4    C5    S    
Cr2   O5    S    
C34   O26   A    
C2    H37   S    
C31   C39   A    
C2    C3    S    
C51   C55   A    
N3    H43   S    
C45   O3    A    
C60   H34   S    
C10   C11   A    
C42   C49   A    
C23   O1    A    
C29   C66   S    
C40   C44   A    
Cr4   O7    S    
C64   O11   A    
C12   O22   A    
C14   C15   A    
C13   C14   A    
C62   O7    A    
Cr5   O15   S    
C66   O16   A    
