data_mof_unit_4476.cif
_audit_creation_date              2013-03-05T15:55:17-0500
_audit_creation_method            fapswitch 2.2
_symmetry_space_group_name_H-M    P1
_symmetry_Int_Tables_number       1
_space_group_crystal_system       triclinic
_cell_length_a                    6.934494
_cell_length_b                    16.779914
_cell_length_c                    17.06511
_cell_angle_alpha                 100.484049
_cell_angle_beta                  88.055535
_cell_angle_gamma                 91.771161
_cell_volume                      1950.80732417

loop_
_atom_site_label
_atom_site_type_symbol
_atom_site_description
_atom_site_fract_x
_atom_site_fract_y
_atom_site_fract_z
_atom_type_partial_charge
O1    O     O_R   0.494370 0.415690 0.413450 -0.601653
O2    O     O_R   0.819420 0.429360 0.578420 -0.591144
O3    O     O_R   0.994280 0.584310 0.586550 -0.599440
C1    C     C_R   0.646358 0.414593 0.605863 1.007888
O4    O     O_R   0.823790 0.406230 0.413570 -0.596102
O5    O     O_R   0.998670 0.561000 0.420530 -0.591483
C2    C     C_R   0.655245 0.383329 0.384977 0.973391
O6    O     O_R   0.489970 0.439000 0.579470 -0.557422
O7    O     O_3   0.662300 0.550810 0.502470 -0.287892
V1    V     V_3+5 0.935380 0.490570 0.499540 1.177462
O8    O     O_R   0.328650 0.570640 0.421580 -0.608810
C3    C     C_R   0.164649 0.586854 0.394963 0.938175
O9    O     O_R   0.324290 0.593770 0.586430 -0.597787
C4    C     C_R   0.154992 0.616623 0.615164 1.022962
V2    V     V_3+5 0.435930 0.509430 0.500460 1.174100
O10   O     O_3   0.159140 0.449190 0.497530 -0.263575
C5    C     C_R   0.280023 0.748847 0.691503 -0.299820
H1    H     H_    0.389673 0.750264 0.644998 0.151475
C6    C     C_R   0.270746 0.813717 0.756682 0.587591
C7    C     C_R   0.122635 0.814447 0.815991 -0.473134
C8    C     C_R   0.989967 0.747998 0.809879 0.563492
C9    C     C_R   0.998496 0.685045 0.743249 -0.293629
H2    H     H_    0.893190 0.635469 0.738887 0.156092
C10   C     C_R   0.144399 0.684437 0.684176 -0.248525
C11   C     C_R   0.174926 0.640745 0.334172 -0.132261
C12   C     C_R   0.089839 0.858734 0.165298 -0.135915
C13   C     C_R   0.893570 0.797402 0.261761 -0.239733
C14   C     C_R   0.915908 0.852393 0.209416 -0.126577
C15   C     C_R   0.243053 0.809027 0.175841 -0.292461
C16   C     C_R   0.220496 0.752686 0.228024 0.216907
C17   C     C_R   0.044034 0.746553 0.271159 0.219207
C18   C     C_R   0.021535 0.690280 0.323414 -0.278528
C19   C     C_R   0.348820 0.647037 0.289997 -0.131531
C20   C     C_R   0.370991 0.701866 0.237467 -0.222905
H3    H     H_    0.887283 0.686776 0.357214 0.139016
H4    H     H_    0.469760 0.609629 0.296455 0.139671
H5    H     H_    0.757767 0.794347 0.294541 0.132229
H6    H     H_    0.506780 0.704905 0.204670 0.132066
H7    H     H_    0.795094 0.889919 0.203088 0.148285
H8    H     H_    0.377272 0.812538 0.142018 0.141408
C21   C     C_R   0.620562 0.364553 0.669459 -0.355587
C22   C     C_R   0.644117 0.140987 0.835579 -0.168711
C23   C     C_R   0.842687 0.187708 0.731482 -0.082967
C24   C     C_R   0.809353 0.134653 0.785007 -0.147045
C25   C     C_R   0.512826 0.202288 0.831893 -0.093117
C26   C     C_R   0.549006 0.258822 0.780379 -0.057592
C27   C     C_R   0.714251 0.249941 0.728575 0.203964
C28   C     C_R   0.748683 0.302601 0.673923 -0.262132
C29   C     C_R   0.461196 0.376607 0.724250 0.492980
C30   C     C_R   0.423901 0.323585 0.778879 0.165577
H9    H     H_    0.872625 0.293788 0.633086 0.164066
H10   H     H_    0.970527 0.180508 0.692772 0.107834
H11   H     H_    0.913169 0.088064 0.786554 0.128897
H12   H     H_    0.385207 0.206277 0.870489 0.192141
C31   C     C_R   0.767396 0.250097 0.308562 -0.267633
H13   H     H_    0.866577 0.247196 0.355598 0.139688
C32   C     C_R   0.757930 0.185900 0.242853 0.623432
C33   C     C_R   0.622529 0.187090 0.182611 -0.465680
C34   C     C_R   0.502326 0.255135 0.188516 0.304486
C35   C     C_R   0.511499 0.317282 0.256001 -0.224096
H14   H     H_    0.419599 0.369064 0.260325 0.171323
C36   C     C_R   0.644718 0.315824 0.315686 -0.215125
O11   O     O_R   0.774880 0.061150 0.920630 -0.604989
O12   O     O_R   0.440980 0.093710 0.086500 -0.600127
O13   O     O_R   0.266190 0.938890 0.079390 -0.607313
C37   C     C_R   0.609894 0.117345 0.114675 1.071986
O14   O     O_R   0.445420 0.070740 0.921670 -0.574554
O15   O     O_R   0.270660 0.915760 0.913380 -0.583787
C38   C     C_R   0.618524 0.086964 0.895470 0.987758
O16   O     O_R   0.770400 0.084270 0.086640 -0.568115
O17   O     O_3   0.602590 0.949210 0.997500 -0.288507
V3    V     V_3+5 0.329470 0.009420 0.000470 1.203844
O18   O     O_R   0.940650 0.906250 0.913470 -0.587095
C39   C     C_R   0.110181 0.883310 0.884647 1.030341
O19   O     O_R   0.936210 0.929220 0.078300 -0.594736
C40   C     C_R   0.100215 0.912846 0.104758 0.929060
V4    V     V_3+5 0.828930 0.990510 0.999490 1.195667
O20   O     O_3   0.105680 0.050790 0.002500 -0.262275
O21   O     O_3   0.337713 0.439794 0.723864 -0.581472
C41   C     C_3   0.412196 0.509600 0.773612 -0.102298
H15   H     H_    0.554253 0.529289 0.750318 0.091633
H16   H     H_    0.424809 0.499754 0.835993 0.148999
H17   H     H_    0.310852 0.559708 0.774879 0.144792
N1    N     N_R   0.261916 0.337952 0.833970 0.240865
O22   O     O_R   0.288648 0.348955 0.910335 -0.341459
O23   O     O_R   0.093632 0.352368 0.808854 -0.366238
O24   O     O_3   0.865379 0.117496 0.241997 -0.647704
C42   C     C_3   0.061331 0.135791 0.226530 -0.115396
H18   H     H_    0.081106 0.157379 0.168844 0.184133
H19   H     H_    0.144183 0.079520 0.221682 0.136177
H20   H     H_    0.123170 0.180917 0.275767 0.111622
N2    N     N_R   0.378147 0.264556 0.125103 0.241194
O25   O     O_R   0.439323 0.246858 0.051207 -0.373418
O26   O     O_R   0.218522 0.303860 0.141196 -0.397382
O27   O     O_3   0.392290 0.880918 0.757731 -0.638617
C43   C     C_3   0.580390 0.860880 0.774765 -0.111091
H21   H     H_    0.582092 0.838513 0.832217 0.185312
H22   H     H_    0.673597 0.916475 0.780968 0.136200
H23   H     H_    0.643957 0.815659 0.725678 0.113743
O28   O     O_3   0.847479 0.745027 0.867930 -0.633723
C44   C     C_3   0.916955 0.701852 0.924251 -0.208763
H24   H     H_    0.047542 0.732336 0.953534 0.111118
H25   H     H_    0.948034 0.638038 0.896541 0.147274
H26   H     H_    0.803688 0.700235 0.971469 0.171550

loop_
_geom_bond_atom_site_label_1
_geom_bond_atom_site_label_2
_geom_bond_distance
_ccdc_geom_bond_type
O24   C42   1.410564 S    
C43   H23   1.111804 S    
C44   H24   1.113752 S    
O18   C39   1.300764 A    
O27   C43   1.409738 S    
C1    O6    1.293993 A    
C30   N1    1.437471 S    
V4    O20   2.139292 S    
O13   C40   1.306528 A    
N1    O23   1.301211 A    
O5    C3    1.306617 A    
C16   C17   1.417204 A    
C23   H10   1.083838 S    
C1    C21   1.491306 S    
O15   C39   1.295273 A    
V2    O10   2.139284 S    
C31   C36   1.398942 A    
C19   H4    1.083279 S    
C35   C36   1.402050 A    
O14   V3    1.972956 S    
C4    C10   1.482850 S    
O28   C44   1.409656 S    
V3    O20   1.716271 S    
O8    V2    2.009648 S    
C24   H11   1.083375 S    
C33   C37   1.492707 S    
C28   H9    1.084396 S    
C17   C18   1.413865 A    
C43   H22   1.109342 S    
C12   C40   1.493085 S    
O1    V2    1.997933 S    
O7    V1    2.168815 S    
C11   C18   1.406938 A    
C34   C35   1.407702 A    
C44   H25   1.113440 S    
C20   H6    1.083586 S    
C8    C9    1.405136 A    
O16   V4    1.999697 S    
C22   C24   1.405724 A    
C41   H17   1.109144 S    
C21   C29   1.418217 A    
C19   C20   1.398475 A    
C5    C10   1.401511 A    
C16   C20   1.399534 A    
C13   C17   1.399503 A    
C18   H3    1.084151 S    
O11   C38   1.294553 A    
N1    O22   1.301318 A    
C41   H16   1.113279 S    
O4    C2    1.301727 A    
C8    O28   1.381550 S    
C14   H7    1.083304 S    
C33   C34   1.421228 A    
C25   C26   1.417562 A    
C22   C38   1.487527 S    
C29   O21   1.384386 S    
C35   H14   1.083630 S    
O14   C38   1.304848 A    
C22   C25   1.405790 A    
O12   C37   1.304070 A    
O2    C1    1.306394 A    
O19   C40   1.293090 A    
C2    C36   1.483206 S    
C15   C16   1.413879 A    
C27   C28   1.406906 A    
C42   H20   1.111791 S    
O15   V3    1.999135 S    
C43   H21   1.112298 S    
C31   H13   1.083260 S    
N2    O26   1.301623 A    
C5    H1    1.083222 S    
C7    C39   1.490640 S    
C42   H18   1.112042 S    
O19   V4    2.009586 S    
O3    C4    1.295245 A    
C42   H19   1.109224 S    
C25   H12   1.081442 S    
C44   H26   1.109347 S    
C31   C32   1.408238 A    
C23   C24   1.396139 A    
C9    C10   1.402734 A    
O2    V1    1.972858 S    
O17   V4    1.694913 S    
C6    O27   1.384617 S    
O11   V4    1.999690 S    
C26   C27   1.417974 A    
O1    C2    1.296203 A    
C41   H15   1.112957 S    
O5    V1    1.978615 S    
O8    C3    1.293390 A    
O6    V2    1.999151 S    
O13   V3    1.978600 S    
C26   C30   1.415680 A    
C12   C14   1.411552 A    
C3    C11   1.493804 S    
C6    C7    1.416029 A    
O9    V2    1.997393 S    
O7    V2    1.695601 S    
O4    V1    2.001933 S    
O3    V1    1.999299 S    
V1    O10   1.716181 S    
C32   C33   1.418801 A    
C37   O16   1.296598 A    
C13   H5    1.083556 S    
C15   H8    1.084175 S    
N2    O25   1.301384 A    
C5    C6    1.408904 A    
C21   C28   1.402253 A    
C34   N2    1.439250 S    
O12   V3    2.001879 S    
O21   C41   1.410666 S    
C32   O24   1.385243 S    
O17   V3    2.168752 S    
C7    C8    1.414670 A    
C12   C15   1.406858 A    
C29   C30   1.413792 A    
C13   C14   1.398250 A    
O18   V4    1.997324 S    
C9    H2    1.083713 S    
O9    C4    1.298493 A    
C23   C27   1.401981 A    
C11   C19   1.411722 A    
