data_mof_unit_2067.cif
_audit_creation_date              2012-12-10T17:59:43-0500
_audit_creation_method            fapswitch 2.2
_symmetry_space_group_name_H-M    P1
_symmetry_Int_Tables_number       1
_space_group_crystal_system       triclinic
_cell_length_a                    10.818906
_cell_length_b                    9.61925
_cell_length_c                    15.893471
_cell_angle_alpha                 89.374924
_cell_angle_beta                  95.826998
_cell_angle_gamma                 90.164216
_cell_volume                      1645.38283995

loop_
_atom_site_label
_atom_site_type_symbol
_atom_type_description
_atom_site_fract_x
_atom_site_fract_y
_atom_site_fract_z
_atom_type_partial_charge
C1    C     C_R   0.262800 0.499922 0.502922 0.885501
C2    C     C_3   0.618032 0.562984 0.958431 -0.329006
C3    C     C_3   0.625917 0.547792 0.055787 -0.385378
C4    C     C_1   0.498550 0.495023 0.824346 0.082806
C5    C     C_1   0.501087 0.501476 0.175661 -0.049521
C6    C     C_1   0.502725 0.502092 0.251175 -0.113706
C7    C     C_R   0.066531 0.376705 0.520282 -0.125582
C8    C     C_R   0.062718 0.624617 0.489303 -0.116352
C9    C     C_R   0.938421 0.376483 0.519003 -0.146484
C10   C     C_R   0.934751 0.624622 0.488460 -0.169852
C11   C     C_R   0.872008 0.500361 0.502676 -0.028249
C12   C     C_R   0.129002 0.500350 0.504330 -0.060385
C13   C     C_R   0.416038 0.076930 0.442619 0.386854
C14   C     C_R   0.416835 0.924531 0.441911 0.379947
C15   C     C_R   0.503839 0.500705 0.340725 0.912863
C16   C     C_R   0.579011 0.925639 0.555429 -0.076236
C17   C     C_R   0.579681 0.072928 0.554986 -0.095405
C18   C     C_R   0.737780 0.500124 0.501053 0.758699
C19   C     C_R   0.500741 0.499265 0.659583 0.791031
C20   C     C_3   0.393839 0.595253 0.041184 -0.303185
C21   C     C_3   0.473684 0.346575 0.049446 -0.284421
C22   C     C_3   0.488062 0.341277 0.951646 0.163755
C23   C     C_3   0.381222 0.575725 0.942688 0.140502
C24   C     C_1   0.499740 0.497189 0.748966 -0.054387
C25   C     C_3   0.499015 0.497877 0.083029 0.086369
C26   C     C_3   0.497296 0.494207 0.916464 0.035690
Cu1   Cu    Cu3+1 0.500020 0.640660 0.500000 1.042292
Cu2   Cu    Cu3+1 0.500020 0.359340 0.500000 1.031783
H1    H     H_    0.298942 0.507218 0.927691 0.085363
H2    H     H_    0.400946 0.294818 0.920532 0.095919
H3    H     H_    0.643308 0.870184 0.600306 0.165545
H4    H     H_    0.644349 0.127224 0.599607 0.169818
H5    H     H_    0.304093 0.564157 0.064604 0.126243
H6    H     H_    0.375250 0.320819 0.057853 0.132557
H7    H     H_    0.653753 0.649012 0.085283 0.191640
H8    H     H_    0.700023 0.472229 0.078057 0.216441
H9    H     H_    0.620050 0.674997 0.941266 0.226408
H10   H     H_    0.701826 0.516977 0.934854 0.226795
H11   H     H_    0.116494 0.280498 0.534183 0.189242
H12   H     H_    0.109297 0.721590 0.477434 0.204866
H13   H     H_    0.891698 0.279725 0.531320 0.163328
H14   H     H_    0.885122 0.721497 0.475914 0.170413
N1    N     N_R   0.500030 0.852070 0.500020 -0.239536
N2    N     N_R   0.500030 0.147930 0.500020 -0.241835
O1    O     O_R   0.319660 0.618740 0.500000 -0.531413
O2    O     O_R   0.319660 0.381260 0.500000 -0.529417
O3    O     O_R   0.500020 0.618840 0.379440 -0.511602
O4    O     O_R   0.500020 0.381160 0.379440 -0.516985
O5    O     O_R   0.680370 0.618830 0.500010 -0.598070
O6    O     O_R   0.680370 0.381170 0.500010 -0.593663
O7    O     O_R   0.500010 0.618730 0.620560 -0.563790
O8    O     O_R   0.500010 0.381270 0.620560 -0.588011
C27   C     C_1   0.548065 0.241236 0.100949 0.460360
N3    N     N_1   0.605838 0.159244 0.141601 -0.194154
C28   C     C_1   0.416248 0.741376 0.067441 0.462248
N4    N     N_1   0.433942 0.855389 0.087955 -0.144014
S1    S     S_3+6 0.610169 0.225634 0.923147 0.032982
O9    O     O_2   0.733573 0.263923 0.969161 -0.258722
O10   O     O_2   0.579342 0.078992 0.947279 -0.222191
O11   O     O_3   0.622529 0.230651 0.818561 -0.515416
H15   H     H_    0.545947 0.185231 0.792454 0.356007
S2    S     S_3+6 0.339102 0.732421 0.881363 0.021447
O12   O     O_2   0.449477 0.826569 0.877957 -0.219910
O13   O     O_2   0.289735 0.694766 0.792697 -0.292224
O14   O     O_3   0.227316 0.818344 0.925517 -0.476778
H16   H     H_    0.159474 0.749677 0.928583 0.344195
S3    S     S_3+6 0.294560 0.166667 0.371485 0.084908
O15   O     O_2   0.295066 0.110573 0.283783 -0.206904
O16   O     O_2   0.173543 0.130999 0.405467 -0.296123
O17   O     O_3   0.283953 0.337891 0.351775 -0.517185
H17   H     H_    0.202819 0.351829 0.317837 0.358756
S4    S     S_3+6 0.318315 0.836314 0.355693 0.076466
O18   O     O_2   0.190350 0.897284 0.344796 -0.221332
O19   O     O_2   0.380667 0.863999 0.276809 -0.270433
O20   O     O_3   0.283518 0.666562 0.352771 -0.526604
H18   H     H_    0.242804 0.649740 0.295050 0.354422

loop_
_geom_bond_atom_site_label_1
_geom_bond_atom_site_label_2
_ccdc_geom_bond_type
C28   N4    T    
C11   C18   S    
C10   H14   S    
C15   O3    A    
C22   S1    S    
C27   N3    T    
C16   H3    S    
Cu2   O2    S    
C23   H1    S    
S4    O20   S    
C5    C6    T    
C4    C24   T    
C1    O2    A    
S1    O10   D    
C20   C25   S    
C23   C26   S    
S2    O13   D    
C6    C15   S    
Cu2   O6    S    
C19   O8    A    
C23   S2    S    
C16   C17   A    
O17   H17   S    
Cu1   O1    S    
C13   C14   A    
C1    C12   S    
C15   O4    A    
C20   C28   S    
Cu1   O7    S    
C7    C12   A    
S3    O15   D    
C3    C25   S    
S4    O19   D    
S1    O11   S    
C21   H6    S    
Cu2   N2    S    
O11   H15   S    
S3    O16   D    
O20   H18   S    
S2    O12   D    
Cu1   N1    S    
C2    H10   S    
C20   C23   S    
C3    H7    S    
C8    C12   A    
C2    C26   S    
C9    C11   A    
C16   N1    A    
C5    C25   S    
C20   H5    S    
C18   O6    A    
C13   S3    S    
Cu1   O3    S    
C7    C9    A    
C21   C25   S    
Cu2   O4    S    
C22   H2    S    
S2    O14   S    
C14   S4    S    
S4    O18   D    
C4    C26   S    
C9    H13   S    
S3    O17   S    
C2    C3    S    
C17   N2    A    
C21   C27   S    
Cu2   O8    S    
C2    H9    S    
C1    O1    A    
S1    O9    D    
C3    H8    S    
C19   C24   S    
C10   C11   A    
C19   O7    A    
C8    C10   A    
O14   H16   S    
C22   C26   S    
Cu1   Cu2   S    
C17   H4    S    
C7    H11   S    
C8    H12   S    
C21   C22   S    
C13   N2    A    
Cu1   O5    S    
C18   O5    A    
C14   N1    A    
