data_mof_unit_4041.cif
_audit_creation_date              2012-12-10T17:23:09-0500
_audit_creation_method            fapswitch 2.2
_symmetry_space_group_name_H-M    P1
_symmetry_Int_Tables_number       1
_space_group_crystal_system       triclinic
_cell_length_a                    15.858697
_cell_length_b                    10.76901
_cell_length_c                    9.625914
_cell_angle_alpha                 89.8911
_cell_angle_beta                  89.871501
_cell_angle_gamma                 92.719149
_cell_volume                      1642.07894224

loop_
_atom_site_label
_atom_site_type_symbol
_atom_type_description
_atom_site_fract_x
_atom_site_fract_y
_atom_site_fract_z
_atom_type_partial_charge
C1    C     C_R   0.497950 0.262663 0.499984 0.783942
C2    C     C_3   0.083381 0.503980 0.500526 0.083873
C3    C     C_3   0.974370 0.582936 0.599342 -0.240583
C4    C     C_3   0.917082 0.503769 0.501250 0.120105
C5    C     C_3   0.031721 0.618842 0.473899 0.022177
C6    C     C_3   0.974102 0.539595 0.378186 0.254456
C7    C     C_1   0.174962 0.501730 0.500893 0.004162
C8    C     C_1   0.825344 0.502960 0.500456 -0.045729
C9    C     C_R   0.352847 0.118727 0.612432 -0.193091
C10   C     C_R   0.285059 0.048865 0.669738 -0.150922
C11   C     C_R   0.286190 0.919786 0.673361 -0.112920
C12   C     C_R   0.340050 0.499397 0.500151 0.803266
C13   C     C_R   0.354750 0.859737 0.618549 -0.147948
C14   C     C_R   0.424355 0.928749 0.560604 0.092615
C15   C     C_R   0.423765 0.059979 0.559008 0.090677
C16   C     C_R   0.493011 0.128434 0.499365 -0.096114
C17   C     C_R   0.558794 0.068390 0.435541 -0.189688
C18   C     C_R   0.558831 0.940145 0.435250 -0.206240
C19   C     C_R   0.493401 0.870482 0.499706 -0.079266
C20   C     C_R   0.612333 0.665216 0.142983 -0.118102
C21   C     C_R   0.667366 0.745978 0.070670 -0.204212
C22   C     C_R   0.667477 0.745962 0.927495 -0.199148
C23   C     C_R   0.498460 0.737075 0.499894 0.759928
C24   C     C_R   0.612562 0.665177 0.855673 -0.113079
C25   C     C_R   0.555361 0.580994 0.924930 0.145790
C26   C     C_R   0.555199 0.581117 0.074296 0.195289
C27   C     C_R   0.447571 0.422812 0.074908 -0.111456
C28   C     C_R   0.446179 0.423852 0.926888 0.340698
C29   C     C_R   0.659986 0.500621 0.499919 0.800214
C30   C     C_3   0.968439 0.388232 0.528301 -0.169574
C31   C     C_3   0.026064 0.424361 0.402355 -0.219778
C32   C     C_1   0.250440 0.500335 0.500649 -0.161569
C33   C     C_1   0.749743 0.501908 0.499900 -0.172970
C34   C     C_3   0.027180 0.467261 0.626255 -0.174468
Cu1   Cu    Cu3+1 0.499990 0.499990 0.640660 0.950078
Cu2   Cu    Cu3+1 0.500010 0.500010 0.359340 0.941689
H1    H     H_    0.047940 0.360180 0.321180 0.146382
H2    H     H_    0.233140 0.865821 0.716874 0.151538
H3    H     H_    0.351857 0.759290 0.620098 0.150337
H4    H     H_    0.611037 0.894923 0.387025 0.133733
H5    H     H_    0.404939 0.359489 0.131375 0.148480
H6    H     H_    0.617472 0.672952 0.252492 0.189933
H7    H     H_    0.710249 0.809157 0.126478 0.154997
H8    H     H_    0.710430 0.809181 0.871304 0.151956
H9    H     H_    0.617734 0.673244 0.746101 0.194725
H10   H     H_    0.941191 0.293597 0.551527 0.151435
H11   H     H_    0.952267 0.647436 0.680048 0.151666
H12   H     H_    0.050489 0.437073 0.729017 0.142703
H13   H     H_    0.611035 0.121298 0.387723 0.148118
H14   H     H_    0.348482 0.218528 0.608030 0.153380
H15   H     H_    0.231048 0.094938 0.710231 0.137350
N1    N     N_R   0.500800 0.501210 0.147910 -0.211297
N2    N     N_R   0.500830 0.501290 0.852040 -0.210761
O1    O     O_R   0.499990 0.319640 0.618810 -0.557344
O2    O     O_R   0.500000 0.319660 0.381240 -0.576478
O3    O     O_R   0.379070 0.499980 0.618770 -0.556552
O4    O     O_R   0.379080 0.500000 0.381190 -0.567152
O5    O     O_R   0.500000 0.680340 0.618760 -0.604313
O6    O     O_R   0.500010 0.680360 0.381190 -0.586103
O7    O     O_R   0.620920 0.500000 0.618810 -0.590472
O8    O     O_R   0.620930 0.500020 0.381230 -0.592206
N3    N     N_2   0.387656 0.343162 0.856074 -0.381374
H16   H     H_    0.396866 0.250802 0.876784 0.239713
C35   C     C_3   0.300190 0.372865 0.874339 -0.697111
H17   H     H_    0.278906 0.351688 0.982220 0.202469
H18   H     H_    0.260043 0.316483 0.801627 0.216868
H19   H     H_    0.291588 0.472714 0.851741 0.248535
N4    N     N_2   0.942375 0.578279 0.244716 -0.416049
H20   H     H_    0.890749 0.524354 0.212098 0.255146
C36   C     C_3   0.005531 0.596953 0.137190 -0.669565
H21   H     H_    0.975875 0.635164 0.042917 0.227898
H22   H     H_    0.033092 0.507205 0.109955 0.208732
H23   H     H_    0.056462 0.664081 0.171610 0.245834
C37   C     C_2   0.065261 0.748776 0.444686 0.816920
O9    O     O_2   0.016019 0.831248 0.427107 -0.588684
O10   O     O_R   0.152271 0.775041 0.437499 -0.780760
H24   H     H_    0.166907 0.865938 0.417188 0.335270

loop_
_geom_bond_atom_site_label_1
_geom_bond_atom_site_label_2
_ccdc_geom_bond_type
C23   O5    A    
Cu1   N2    S    
C2    C7    S    
C4    C8    S    
Cu2   O6    S    
C23   O6    A    
C37   O10   S    
Cu1   O5    S    
C24   H9    S    
C25   N2    A    
C5    C6    S    
C15   C16   A    
C29   C33   S    
C18   C19   A    
C5    C37   S    
C18   H4    S    
N3    C35   S    
C21   H7    S    
C22   H8    S    
Cu1   Cu2   S    
C16   C17   A    
C36   H21   S    
C9    C10   A    
Cu2   N1    S    
C2    C34   S    
C6    N4    S    
C6    C31   S    
C21   C22   A    
C12   C32   S    
Cu1   O1    S    
C10   H15   S    
C29   O8    A    
C37   O9    D    
C30   C34   S    
C35   H19   S    
O10   H24   S    
C4    C6    S    
Cu2   O4    S    
C17   H13   S    
N4    H20   S    
C3    C34   S    
C25   C26   A    
C31   H1    S    
Cu1   O7    S    
C35   H18   S    
C11   H2    S    
C19   C23   S    
C1    O1    A    
N3    H16   S    
C26   N1    A    
C27   H5    S    
C29   O7    A    
C36   H23   S    
C17   C18   A    
C1    C16   S    
C24   C25   A    
C12   O3    A    
C12   O4    A    
C22   C24   A    
C2    C5    S    
C34   H12   S    
C3    C4    S    
C27   N1    A    
C7    C32   T    
Cu1   O3    S    
C14   C19   A    
C30   H10   S    
C9    H14   S    
C3    C5    S    
C20   H6    S    
C28   N2    A    
C35   H17   S    
C1    O2    A    
Cu2   O2    S    
C11   C13   A    
C30   C31   S    
C20   C26   A    
C3    H11   S    
C8    C33   T    
C9    C15   A    
C13   H3    S    
C10   C11   A    
C20   C21   A    
N4    C36   S    
C27   C28   A    
C14   C15   A    
C2    C31   S    
C36   H22   S    
C13   C14   A    
C4    C30   S    
Cu2   O8    S    
C28   N3    S    
