data_mof_unit_880.cif
_audit_creation_date              2012-12-10T20:31:09-0500
_audit_creation_method            fapswitch 2.2
_symmetry_space_group_name_H-M    P1
_symmetry_Int_Tables_number       1
_space_group_crystal_system       triclinic
_cell_length_a                    14.980739
_cell_length_b                    10.754753
_cell_length_c                    9.919553
_cell_angle_alpha                 90.867252
_cell_angle_beta                  90.448143
_cell_angle_gamma                 92.037497
_cell_volume                      1596.93106807

loop_
_atom_site_label
_atom_site_type_symbol
_atom_type_description
_atom_site_fract_x
_atom_site_fract_y
_atom_site_fract_z
_atom_type_partial_charge
C1    C     C_R   0.497230 0.260156 0.499072 0.891070
C2    C     C_R   0.909401 0.544360 0.614024 0.105656
C3    C     C_R   0.950832 0.421905 0.266727 -0.194666
C4    C     C_R   0.043655 0.422861 0.266437 -0.221106
C5    C     C_R   0.091746 0.465814 0.380519 0.124806
C6    C     C_R   0.046982 0.508988 0.495698 0.065882
C7    C     C_R   0.095137 0.554364 0.610133 0.103789
C8    C     C_R   0.050313 0.594881 0.725052 -0.219072
C9    C     C_R   0.957544 0.588876 0.727428 -0.195700
C10   C     C_R   0.183995 0.464369 0.382582 -0.271339
C11   C     C_R   0.231341 0.507580 0.496847 -0.060136
C12   C     C_R   0.326912 0.501836 0.499330 0.889902
C13   C     C_R   0.187483 0.556082 0.608408 -0.242353
C14   C     C_R   0.499883 0.066657 0.620610 0.001506
C15   C     C_R   0.497787 0.127743 0.497740 -0.231603
C16   C     C_R   0.493669 0.059614 0.375498 0.489456
C17   C     C_R   0.503201 0.932891 0.378046 -0.245182
C18   C     C_R   0.502203 0.871659 0.501377 -0.195545
C19   C     C_R   0.498995 0.938583 0.622718 0.129233
C20   C     C_3   0.427197 0.934783 0.728073 0.458114
C21   C     C_3   0.431014 0.075309 0.728251 -0.479750
C22   C     C_R   0.439824 0.426484 0.069175 0.130340
C23   C     C_R   0.500076 0.739615 0.500825 0.981689
C24   C     C_R   0.560803 0.570898 0.073686 0.265021
C25   C     C_R   0.560949 0.570573 0.930093 0.290695
C26   C     C_R   0.440543 0.425259 0.926621 0.125570
C27   C     C_3   0.341686 0.433591 0.917925 0.311128
C28   C     C_3   0.340786 0.438953 0.070493 -0.568374
C29   C     C_R   0.673284 0.499136 0.500293 0.918738
C30   C     C_R   0.817089 0.538374 0.615383 -0.224662
C31   C     C_R   0.769363 0.498567 0.500215 -0.074605
C32   C     C_R   0.813436 0.460343 0.383749 -0.212823
C33   C     C_R   0.905899 0.462326 0.381721 0.112311
C34   C     C_R   0.954097 0.505534 0.497001 0.061089
H1    H     H_    0.782761 0.566621 0.705404 0.203757
H2    H     H_    0.501851 0.882123 0.282881 0.224004
H3    H     H_    0.368749 0.117523 0.691735 0.218866
H4    H     H_    0.459263 0.119178 0.822176 0.239242
H5    H     H_    0.321348 0.520395 0.868002 0.104932
H6    H     H_    0.320912 0.530757 0.111162 0.190901
H7    H     H_    0.775854 0.428079 0.295261 0.176352
H8    H     H_    0.304602 0.358226 0.114728 0.197984
H9    H     H_    0.914242 0.388686 0.177831 0.155158
H10   H     H_    0.077781 0.389999 0.177480 0.136938
H11   H     H_    0.218703 0.427270 0.296534 0.146996
H12   H     H_    0.225090 0.592190 0.695037 0.179763
H13   H     H_    0.086955 0.629434 0.813364 0.155785
H14   H     H_    0.923473 0.619250 0.817453 0.170478
N1    N     N_R   0.499390 0.499140 0.142800 -0.153142
N2    N     N_R   0.499390 0.499180 0.857150 -0.182361
O1    O     O_R   0.500010 0.316790 0.614690 -0.606332
O2    O     O_R   0.500000 0.316760 0.385350 -0.580109
O3    O     O_R   0.367850 0.499990 0.614680 -0.621215
O4    O     O_R   0.367840 0.499950 0.385340 -0.632696
O5    O     O_R   0.500000 0.683240 0.614650 -0.558109
O6    O     O_R   0.499990 0.683210 0.385310 -0.603306
O7    O     O_R   0.632160 0.500050 0.614660 -0.599654
O8    O     O_R   0.632150 0.500010 0.385320 -0.592588
Zn1   Zn    Zn3+2 0.500010 0.500020 0.653130 1.026251
Zn2   Zn    Zn3+2 0.499990 0.499980 0.346870 1.010770
Br1   Br    Br    0.312748 0.863173 0.665295 -0.600456
Br2   Br    Br    0.464292 0.867622 0.898656 -0.482149
Br3   Br    Br    0.643189 0.681653 0.169800 -0.411261
Br4   Br    Br    0.643951 0.679819 0.839288 -0.414258
O9    O     O_3   0.302198 0.321389 0.865851 -0.602671
C35   C     C_3   0.210111 0.335422 0.838710 0.121027
H15   H     H_    0.199598 0.333093 0.727862 0.160854
H16   H     H_    0.183048 0.423950 0.878820 0.077639
C36   C     C_3   0.154875 0.228783 0.900072 -0.403831
H17   H     H_    0.167201 0.227863 0.010477 0.209382
H18   H     H_    0.082820 0.245138 0.883135 0.186443
C37   C     C_3   0.176524 0.102980 0.837566 -0.706984
H19   H     H_    0.165705 0.103538 0.726666 0.252635
H20   H     H_    0.132267 0.029153 0.880905 0.241088
H21   H     H_    0.246847 0.080947 0.859435 0.293115
O10   O     O_3   0.463751 0.111467 0.257551 -0.599694
C38   C     C_3   0.368762 0.107022 0.257962 0.079657
H22   H     H_    0.345779 0.200336 0.233159 0.152640
H23   H     H_    0.338188 0.085205 0.357966 0.127715
C39   C     C_3   0.332655 0.013436 0.151685 -0.294249
H24   H     H_    0.345688 0.051145 0.049834 0.253346
H25   H     H_    0.367313 0.924447 0.161041 0.253830
C40   C     C_3   0.232694 0.986487 0.168305 -0.937903
H26   H     H_    0.219853 0.938775 0.265172 0.281318
H27   H     H_    0.207623 0.924728 0.084593 0.279430
H28   H     H_    0.195817 0.074063 0.167385 0.255591

loop_
_geom_bond_atom_site_label_1
_geom_bond_atom_site_label_2
_ccdc_geom_bond_type
C35   H16   S    
O5    Zn1   S    
C19   C20   S    
O3    Zn1   S    
C7    C8    A    
O4    Zn2   S    
C38   H22   S    
C3    H9    S    
C26   C27   S    
N1    Zn2   S    
C30   H1    S    
N2    Zn1   S    
C14   C21   S    
C39   C40   S    
C5    C6    A    
O7    Zn1   S    
C35   C36   S    
C16   C17   A    
C3    C33   A    
O8    Zn2   S    
C15   C16   A    
C18   C19   A    
C20   Br1   S    
C36   H18   S    
C25   N2    A    
O2    Zn2   S    
C21   H4    S    
C31   C32   A    
C27   H5    S    
C8    C9    A    
C32   H7    S    
C1    C15   S    
C17   H2    S    
C12   O3    A    
C2    C34   A    
C35   H15   S    
C22   C28   S    
C37   H21   S    
C33   C34   A    
C38   H23   S    
C18   C23   S    
C23   O6    A    
O10   C38   S    
C39   H25   S    
C39   H24   S    
C4    H10   S    
C6    C34   A    
C25   Br4   S    
C36   C37   S    
C27   O9    S    
C40   H26   S    
C7    C13   A    
C20   C21   S    
C10   H11   S    
C17   C18   A    
C24   C25   A    
C1    O1    A    
C22   N1    A    
C37   H20   S    
C40   H27   S    
C29   O7    A    
C24   Br3   S    
O1    Zn1   S    
C3    C4    A    
C38   C39   S    
C24   N1    A    
C16   O10   S    
C14   C19   A    
C37   H19   S    
C11   C12   S    
C23   O5    A    
C6    C7    A    
C2    C30   A    
C32   C33   A    
C26   N2    A    
C8    H13   S    
C5    C10   A    
C29   C31   S    
C11   C13   A    
C30   C31   A    
C28   H8    S    
C13   H12   S    
C20   Br2   S    
C36   H17   S    
C1    O2    A    
C10   C11   A    
O6    Zn2   S    
C4    C5    A    
C40   H28   S    
C21   H3    S    
C29   O8    A    
C9    H14   S    
O9    C35   S    
C22   C26   A    
C27   C28   S    
C28   H6    S    
C14   C15   A    
C2    C9    A    
C12   O4    A    
