data_mof_unit_3890.cif
_audit_creation_date              2012-12-10T18:02:07-0500
_audit_creation_method            fapswitch 2.2
_symmetry_space_group_name_H-M    P1
_symmetry_Int_Tables_number       1
_space_group_crystal_system       triclinic
_cell_length_a                    10.832911
_cell_length_b                    9.502647
_cell_length_c                    23.507159
_cell_angle_alpha                 90.008711
_cell_angle_beta                  90.174194
_cell_angle_gamma                 90.000352
_cell_volume                      2419.84698194

loop_
_atom_site_label
_atom_site_type_symbol
_atom_type_description
_atom_site_fract_x
_atom_site_fract_y
_atom_site_fract_z
_atom_type_partial_charge
C1    C     C_R   0.262008 0.499999 0.499960 0.793959
C2    C     C_R   0.737992 0.500000 0.500040 0.793950
C3    C     C_R   0.516000 0.373530 0.238404 0.490978
C4    C     C_R   0.484130 0.373650 0.761606 0.490886
C5    C     C_R   0.517597 0.374091 0.298026 -0.309883
C6    C     C_R   0.482470 0.374179 0.701976 -0.310750
C7    C     C_R   0.499007 0.499957 0.328222 -0.094471
C8    C     C_R   0.501004 0.500031 0.671779 -0.094000
C9    C     C_R   0.480033 0.625826 0.298098 -0.211500
C10   C     C_R   0.519931 0.625938 0.701902 -0.211263
C11   C     C_R   0.479902 0.625873 0.238835 -0.181920
C12   C     C_R   0.520060 0.626033 0.761164 -0.182838
C13   C     C_R   0.498885 0.500525 0.208915 0.284043
C14   C     C_R   0.501170 0.500689 0.791077 0.285744
C15   C     C_R   0.063848 0.372105 0.499970 -0.176603
C16   C     C_R   0.936152 0.627890 0.500031 -0.176199
C17   C     C_R   0.936151 0.372105 0.500032 -0.176586
C18   C     C_R   0.063849 0.627890 0.499967 -0.176177
C19   C     C_R   0.871806 0.499998 0.500048 -0.018720
C20   C     C_R   0.128194 0.499998 0.499952 -0.018715
C21   C     C_R   0.423415 0.074459 0.464501 -0.024149
C22   C     C_R   0.576586 0.925540 0.535499 -0.023389
C23   C     C_R   0.576585 0.074488 0.535499 -0.024220
C24   C     C_R   0.423414 0.925511 0.464501 -0.023283
C25   C     C_R   0.499755 0.499989 0.390847 0.829895
C26   C     C_R   0.500244 0.500011 0.609153 0.829832
C27   C     C_R   0.610990 0.501671 0.880645 0.526916
C28   C     C_R   0.389112 0.504010 0.119333 0.525133
C29   C     C_R   0.390336 0.503443 0.880090 0.591483
C30   C     C_R   0.609752 0.500773 0.119887 0.592665
C31   C     C_R   0.387683 0.503770 0.939747 -0.031275
C32   C     C_R   0.612408 0.501104 0.060231 -0.031766
C33   C     C_R   0.500202 0.502683 0.969973 -0.017685
C34   C     C_R   0.499896 0.502637 0.030004 -0.017730
C35   C     C_R   0.613028 0.501621 0.940309 -0.013494
C36   C     C_R   0.387077 0.504107 0.059669 -0.013187
C37   C     C_R   0.275728 0.505107 0.969752 -0.160522
C38   C     C_R   0.724366 0.499937 0.030225 -0.160499
C39   C     C_R   0.275430 0.505358 0.029107 -0.160461
C40   C     C_R   0.724672 0.500278 0.970870 -0.160512
Cu1   Cu    Cu3+1 0.500000 0.640660 0.500000 0.947543
Cu2   Cu    Cu3+1 0.500000 0.359340 0.500000 0.945770
H1    H     H_    0.188028 0.505977 0.947502 0.189182
H2    H     H_    0.812064 0.498776 0.052474 0.189180
H3    H     H_    0.187504 0.506410 0.050917 0.189203
H4    H     H_    0.812598 0.499360 0.949058 0.189229
H5    H     H_    0.534545 0.276414 0.320473 0.169146
H6    H     H_    0.465460 0.276520 0.679518 0.168749
H7    H     H_    0.465153 0.724254 0.320281 0.164034
H8    H     H_    0.534762 0.724357 0.679720 0.163926
H9    H     H_    0.465530 0.723464 0.216022 0.151436
H10   H     H_    0.534379 0.723646 0.783983 0.151077
H11   H     H_    0.111889 0.272124 0.499941 0.150050
H12   H     H_    0.888111 0.727872 0.500061 0.150105
H13   H     H_    0.888109 0.272124 0.500063 0.150055
H14   H     H_    0.111890 0.727872 0.499935 0.150102
H15   H     H_    0.362113 0.130702 0.436087 0.117331
H16   H     H_    0.637887 0.869295 0.563914 0.116251
H17   H     H_    0.637886 0.130756 0.563913 0.117315
H18   H     H_    0.362111 0.869242 0.436088 0.116299
N1    N     N_R   0.500807 0.502272 0.851994 -0.452744
N2    N     N_R   0.499282 0.502073 0.147990 -0.453105
N3    N     N_R   0.500000 0.852070 0.500000 -0.155856
N4    N     N_R   0.500000 0.147930 0.500000 -0.156184
O1    O     O_R   0.319640 0.618740 0.500000 -0.588073
O2    O     O_R   0.680360 0.381260 0.500000 -0.588155
O3    O     O_R   0.680360 0.618740 0.500000 -0.588068
O4    O     O_R   0.319640 0.381260 0.500000 -0.588166
O5    O     O_R   0.499960 0.618810 0.417880 -0.583337
O6    O     O_R   0.500040 0.381190 0.582120 -0.584453
O7    O     O_R   0.500040 0.618810 0.582120 -0.583373
O8    O     O_R   0.499960 0.381190 0.417880 -0.584456
O9    O     O_2   0.718016 0.500529 0.851424 -0.547801
O10   O     O_2   0.282078 0.505183 0.148548 -0.547432
O11   O     O_2   0.283627 0.504520 0.850326 -0.516182
O12   O     O_2   0.716466 0.499465 0.149645 -0.515484
O13   O     O_3   0.539690 0.251271 0.208499 -0.563394
C41   C     C_3   0.433881 0.164704 0.210111 0.049278
H19   H     H_    0.350549 0.222331 0.194698 0.172179
H20   H     H_    0.417214 0.125334 0.254029 0.135926
C42   C     C_3   0.453892 0.038490 0.171428 -0.745155
H21   H     H_    0.535890 0.977861 0.185825 0.250775
H22   H     H_    0.371606 0.968860 0.172588 0.201753
H23   H     H_    0.468734 0.074375 0.126999 0.255160
O14   O     O_3   0.460473 0.251474 0.791569 -0.563961
C43   C     C_3   0.565550 0.163846 0.789243 0.049714
H24   H     H_    0.649985 0.220875 0.803718 0.172693
H25   H     H_    0.579987 0.123515 0.745297 0.135758
C44   C     C_3   0.546278 0.038546 0.828472 -0.745087
H26   H     H_    0.463319 0.978363 0.814966 0.251098
H27   H     H_    0.628039 0.968184 0.826809 0.201243
H28   H     H_    0.533493 0.075403 0.872913 0.255217

loop_
_geom_bond_atom_site_label_1
_geom_bond_atom_site_label_2
_ccdc_geom_bond_type
C30   C32   A    
C8    C26   S    
Cu1   Cu2   S    
C28   O10   S    
C42   H21   S    
Cu1   O3    S    
C10   H8    S    
O13   C41   S    
C23   H17   S    
C5    H5    S    
C6    H6    S    
C15   H11   S    
C33   C35   A    
C41   H20   S    
Cu2   O6    S    
C1    O4    A    
C7    C9    A    
C21   N4    A    
C27   N1    A    
C12   H10   S    
C22   N3    A    
C13   N2    S    
C1    O1    A    
C31   C33   A    
C32   C38   A    
C44   H27   S    
C17   H13   S    
C34   C36   A    
C3    C13   A    
C18   H14   S    
Cu1   O7    S    
Cu2   O4    S    
C26   O7    A    
C42   H22   S    
C15   C20   A    
C37   C39   A    
C29   N1    A    
C43   H25   S    
C9    H7    S    
C4    C6    A    
C2    O3    A    
C5    C7    A    
C43   H24   S    
C6    C8    A    
C4    O14   S    
C27   C35   A    
O14   C43   S    
C14   N1    S    
C31   C37   A    
C32   C34   A    
C37   H1    S    
C40   H4    S    
C38   H2    S    
C30   O12   S    
C24   H18   S    
C3    C5    A    
Cu2   O8    S    
C33   C34   A    
C25   O8    A    
C44   H28   S    
C9    C11   A    
C10   C12   A    
C8    C10   A    
C23   N4    A    
C12   C14   A    
C24   N3    A    
C30   N2    A    
C26   O6    A    
C25   O5    A    
Cu1   N3    S    
C3    O13   S    
Cu2   N4    S    
C42   H23   S    
Cu1   O5    S    
C15   C17   A    
C1    C20   S    
C2    C19   S    
C41   H19   S    
C36   C39   A    
C2    O2    A    
C43   C44   S    
C22   H16   S    
Cu1   O1    S    
C29   O11   S    
C21   H15   S    
C7    C25   S    
C39   H3    S    
C35   C40   A    
C29   C31   A    
C38   C40   A    
C11   C13   A    
C41   C42   S    
C16   C19   A    
C17   C19   A    
C18   C20   A    
C4    C14   A    
C16   H12   S    
C11   H9    S    
C28   C36   A    
C16   C18   A    
C21   C24   A    
Cu2   O2    S    
C22   C23   A    
C44   H26   S    
C27   O9    S    
C28   N2    A    
