data_mof_unit_2861.cif
_audit_creation_date              2013-03-05T16:05:41-0500
_audit_creation_method            fapswitch 2.2
_symmetry_space_group_name_H-M    P1
_symmetry_Int_Tables_number       1
_space_group_crystal_system       triclinic
_cell_length_a                    10.761047
_cell_length_b                    14.956677
_cell_length_c                    15.463251
_cell_angle_alpha                 80.576982
_cell_angle_beta                  92.065738
_cell_angle_gamma                 102.684291
_cell_volume                      2395.29965834

loop_
_atom_site_label
_atom_site_type_symbol
_atom_site_description
_atom_site_fract_x
_atom_site_fract_y
_atom_site_fract_z
_atom_type_partial_charge
O1    O     O_R   0.462770 0.383110 0.605620 -0.594913
O2    O     O_R   0.510160 0.531900 0.639510 -0.609040
C1    C     C_R   0.480677 0.441284 0.662443 0.875710
O3    O     O_R   0.661510 0.425600 0.483070 -0.597569
O4    O     O_R   0.708900 0.574390 0.516960 -0.636580
C2    C     C_R   0.741572 0.499750 0.499340 0.919081
Zn1   Zn    Zn3+2 0.468350 0.400660 0.477370 0.995846
Zn2   Zn    Zn3+2 0.531650 0.599340 0.522630 0.942735
O5    O     O_R   0.489840 0.468100 0.360490 -0.624262
O6    O     O_R   0.537230 0.616890 0.394380 -0.620856
O7    O     O_R   0.291100 0.425610 0.483040 -0.566303
O8    O     O_R   0.338490 0.574400 0.516930 -0.627016
C3    C     C_R   0.516610 0.558875 0.338063 0.835115
C4    C     C_R   0.258223 0.499328 0.501146 0.903393
C5    C     C_3   0.899898 0.398705 0.482750 0.380691
C6    C     C_3   0.044720 0.405096 0.472104 0.237080
H1    H     H_    0.069422 0.411342 0.401865 0.110691
H2    H     H_    0.913321 0.581987 0.366318 0.188626
H3    H     H_    0.125383 0.576648 0.368810 0.179355
C7    C     C_3   0.950779 0.580026 0.433800 -0.534990
C8    C     C_3   0.934659 0.516232 0.592324 0.253549
C9    C     C_3   0.877771 0.497125 0.500791 -0.103205
H4    H     H_    0.932856 0.589994 0.596702 0.124562
C10   C     C_3   0.120634 0.497263 0.502458 -0.061992
C11   C     C_3   0.093575 0.580333 0.435607 -0.518687
C12   C     C_3   0.074677 0.503087 0.596679 -0.242124
H5    H     H_    0.079409 0.436971 0.640378 0.186405
H6    H     H_    0.938747 0.646993 0.451235 0.203246
H7    H     H_    0.147864 0.647167 0.453493 0.218403
C13   C     C_R   0.469699 0.404432 0.756839 -0.133521
C14   C     C_R   0.537703 0.595982 0.245354 -0.096032
C15   C     C_R   0.379459 0.289574 0.880673 -0.251258
C16   C     C_R   0.388407 0.318857 0.790295 -0.048722
C17   C     C_R   0.537152 0.460373 0.815073 -0.234723
C18   C     C_R   0.522687 0.434427 0.906101 0.136805
C19   C     C_R   0.441991 0.347719 0.938357 0.160047
C20   C     C_R   0.572468 0.497314 0.965078 -0.118122
C21   C     C_R   0.520658 0.479107 0.050526 -0.000010
C22   C     C_R   0.456588 0.387371 0.083372 -0.153798
C23   C     C_R   0.418206 0.322444 0.027895 -0.239888
C24   C     C_R   0.671324 0.577241 0.942683 0.380081
C25   C     C_R   0.692642 0.649139 0.993196 0.398266
C26   C     C_R   0.635018 0.633865 0.075446 -0.040576
C27   C     C_R   0.543908 0.550484 0.103027 -0.036624
C28   C     C_R   0.673102 0.698377 0.133197 -0.130684
C29   C     C_R   0.630325 0.676706 0.219382 -0.254820
C30   C     C_R   0.481012 0.541725 0.183306 0.006326
H8    H     H_    0.363086 0.254253 0.054440 0.142423
H9    H     H_    0.672739 0.721121 0.266170 0.165563
H10   H     H_    0.315826 0.224274 0.906225 0.141655
H11   H     H_    0.592751 0.527863 0.788164 0.207338
H12   H     H_    0.436705 0.364068 0.152322 0.154615
H13   H     H_    0.744093 0.761702 0.114434 0.184545
N1    N     N_R   0.573860 0.731700 0.552730 -0.103753
N2    N     N_R   0.426060 0.268290 0.447230 -0.132574
C31   C     C_R   0.719836 0.849503 0.611460 -0.291564
C32   C     C_R   0.677926 0.757203 0.602318 0.014247
C33   C     C_R   0.502508 0.791251 0.514738 -0.017516
C34   C     C_R   0.539637 0.885594 0.521252 -0.011907
C35   C     C_R   0.653354 0.914515 0.568786 0.101621
C36   C     C_R   0.472493 0.952749 0.479612 0.019989
C37   C     C_R   0.517488 0.045564 0.492273 -0.023452
C38   C     C_R   0.644767 0.073565 0.518880 0.458073
C39   C     C_R   0.706813 0.008609 0.564913 -0.304076
C40   C     C_R   0.369253 0.933653 0.420876 -0.200575
C41   C     C_R   0.318092 0.006038 0.374548 -0.183241
C42   C     C_R   0.357714 0.096099 0.394123 0.110362
C43   C     C_R   0.445950 0.111990 0.461793 -0.035689
C44   C     C_R   0.312420 0.171070 0.348363 -0.361990
C45   C     C_R   0.355078 0.258524 0.373066 -0.091805
C46   C     C_R   0.459020 0.193834 0.497957 0.629929
H14   H     H_    0.802210 0.031537 0.589510 0.169667
H15   H     H_    0.324807 0.317769 0.336149 0.174916
H16   H     H_    0.246095 0.991267 0.324984 0.139276
H17   H     H_    0.806442 0.870481 0.647832 0.146410
H18   H     H_    0.731326 0.706309 0.631155 0.130627
H19   H     H_    0.420473 0.763560 0.477684 0.122414
H20   H     H_    0.332329 0.865182 0.405098 0.130717
H21   H     H_    0.248182 0.162860 0.293264 0.161677
O9    O     O_3   0.828304 0.360770 0.412529 -0.604962
C47   C     C_3   0.836291 0.418437 0.330060 -0.319338
H22   H     H_    0.933898 0.457164 0.311241 0.143986
H23   H     H_    0.768608 0.465157 0.326426 0.185768
H24   H     H_    0.804604 0.373456 0.279600 0.179497
C48   C     C_1   0.156020 0.578447 0.637297 0.151027
N3    N     N_1   0.219439 0.637354 0.669224 -0.191081
C49   C     C_1   0.350961 0.489246 0.198350 0.129337
N4    N     N_1   0.247002 0.448052 0.210303 -0.255238
O10   O     O_3   0.785846 0.728495 0.968186 -0.600509
C50   C     C_3   0.738651 0.784718 0.898084 -0.273162
H25   H     H_    0.810474 0.850546 0.881396 0.185867
H26   H     H_    0.649234 0.802773 0.916673 0.145555
H27   H     H_    0.723011 0.751040 0.838392 0.189961
C51   C     C_1   0.302943 0.264430 0.734814 0.234301
N5    N     N_1   0.233681 0.220938 0.690711 -0.126018
C52   C     C_1   0.859647 0.327244 0.561047 0.432772
N6    N     N_1   0.836675 0.271553 0.623062 -0.215688
O11   O     O_3   0.762022 0.579307 0.881057 -0.633875
C53   C     C_3   0.867823 0.550864 0.925504 -0.297477
H28   H     H_    0.848193 0.473924 0.942201 0.153791
H29   H     H_    0.895722 0.581880 0.986010 0.187394
H30   H     H_    0.952172 0.574412 0.882024 0.181127
O12   O     O_3   0.442993 0.183314 0.587741 -0.637606
C54   C     C_3   0.558079 0.215833 0.628945 -0.177629
H31   H     H_    0.537277 0.230773 0.694026 0.172409
H32   H     H_    0.612627 0.281096 0.591636 0.201843
H33   H     H_    0.613800 0.161179 0.642119 0.165376
O13   O     O_3   0.085044 0.326753 0.522019 -0.605327
C55   C     C_3   0.070018 0.251238 0.475437 -0.202540
H34   H     H_    0.093800 0.272072 0.404603 0.128740
H35   H     H_    0.972221 0.208498 0.484275 0.192078
H36   H     H_    0.135460 0.206430 0.504218 0.202578
O14   O     O_3   0.717380 0.159344 0.484014 -0.621150
C56   C     C_3   0.737911 0.159141 0.393822 -0.270455
H37   H     H_    0.751633 0.091082 0.379723 0.132544
H38   H     H_    0.826165 0.209969 0.371351 0.207680
H39   H     H_    0.658051 0.179914 0.353828 0.176104
O15   O     O_3   0.858807 0.455229 0.659940 -0.650934
C57   C     C_3   0.873190 0.491321 0.738665 -0.285346
H40   H     H_    0.844398 0.559199 0.730803 0.200667
H41   H     H_    0.972245 0.497186 0.763571 0.162945
H42   H     H_    0.809255 0.442019 0.787950 0.217363

loop_
_geom_bond_atom_site_label_1
_geom_bond_atom_site_label_2
_geom_bond_distance
_ccdc_geom_bond_type
C8    C12   1.559457 S    
C24   C25   1.404615 A    
C18   C19   1.417594 A    
Zn1   N2    2.057950 S    
C49   N4    1.157669 T    
C16   C51   1.444824 S    
C54   H32   1.103895 S    
C56   H37   1.116489 S    
C28   C29   1.389348 A    
C31   C32   1.383847 A    
Zn1   O7    2.029891 S    
C29   H9    1.083276 S    
C12   H5    1.112619 S    
C37   C38   1.408731 A    
C15   C19   1.399464 A    
C32   H18   1.082115 S    
C18   C20   1.423992 A    
C20   C21   1.414015 A    
C10   C12   1.577121 S    
C44   C45   1.398147 A    
C55   H35   1.105067 S    
C21   C22   1.413338 A    
O7    C4    1.303373 A    
C7    C11   1.534888 S    
C5    C6    1.553348 S    
C2    C9    1.474040 S    
O13   C55   1.413656 S    
C23   H8    1.084132 S    
C17   C18   1.402328 A    
C4    C10   1.474932 S    
O5    C3    1.314470 A    
O15   C57   1.400789 S    
C33   H19   1.076941 S    
C5    C9    1.610767 S    
C5    O9    1.429683 S    
C6    H1    1.111643 S    
C14   C29   1.397881 A    
C27   C30   1.408779 A    
C41   C42   1.399942 A    
C28   H13   1.083084 S    
C34   C35   1.425362 A    
C6    C10   1.574042 S    
C31   H17   1.083939 S    
C14   C30   1.395205 A    
C8    C9    1.566180 S    
C51   N5    1.157348 T    
O3    Zn1   2.030901 S    
C54   H31   1.106636 S    
C47   H23   1.108884 S    
C47   H22   1.105936 S    
C57   H41   1.110244 S    
C11   H7    1.113306 S    
C34   C36   1.420885 A    
C13   C17   1.403809 A    
C42   C43   1.401328 A    
C56   H39   1.110644 S    
C19   C23   1.391776 A    
C10   C11   1.553603 S    
O3    C2    1.300637 A    
C55   H36   1.109120 S    
Zn2   N1    2.057572 S    
C5    C52   1.485469 S    
C7    H6    1.113804 S    
C33   C34   1.398899 A    
C48   N3    1.157502 T    
C31   C35   1.397903 A    
O1    C1    1.315580 A    
C30   C49   1.452598 S    
C1    C13   1.472672 S    
C26   C27   1.420371 A    
C21   C27   1.418880 A    
C8    O15   1.419163 S    
C50   H26   1.113947 S    
C53   H28   1.111500 S    
Zn2   O8    2.030901 S    
C52   N6    1.157419 T    
C45   H15   1.079304 S    
C17   H11   1.079463 S    
C26   C28   1.406606 A    
C15   H10   1.085515 S    
C53   H29   1.114188 S    
C7    C9    1.561417 S    
C40   C41   1.402777 A    
C8    H4    1.120724 S    
C44   H21   1.083219 S    
C25   C26   1.397783 A    
C22   C23   1.385864 A    
C47   H24   1.108908 S    
C50   H27   1.112585 S    
O14   C56   1.420494 S    
N1    C33   1.350728 A    
C57   H42   1.108552 S    
Zn1   O5    1.915243 S    
C46   O12   1.384149 S    
C40   H20   1.078097 S    
C13   C16   1.412509 A    
O1    Zn1   1.958737 S    
C3    C14   1.456823 S    
O2    Zn2   1.915243 S    
O8    C4    1.309576 A    
O9    C47   1.411639 S    
O6    C3    1.307469 A    
O4    Zn2   2.029890 S    
C56   H38   1.104911 S    
C57   H40   1.111974 S    
C43   C46   1.404925 A    
C37   C43   1.399369 A    
C35   C39   1.390852 A    
C25   O10   1.385333 S    
C15   C16   1.394612 A    
O2    C1    1.313470 A    
C55   H34   1.111646 S    
C50   H25   1.109206 S    
O4    C2    1.312622 A    
C12   C48   1.479876 S    
C22   H12   1.079830 S    
H2    C7    1.103198 S    
C39   H14   1.084466 S    
C20   C24   1.418865 A    
C36   C37   1.409556 A    
H3    C11   1.113322 S    
N2    C45   1.364796 A    
C6    O13   1.435288 S    
C38   C39   1.385827 A    
C38   O14   1.382343 S    
C36   C40   1.419016 A    
C53   H30   1.107267 S    
Zn2   O6    1.958737 S    
O11   C53   1.417806 S    
O12   C54   1.398687 S    
C24   O11   1.380503 S    
C42   C44   1.396777 A    
O10   C50   1.410492 S    
C54   H33   1.105063 S    
N2    C46   1.359627 A    
N1    C32   1.354189 A    
C41   H16   1.083473 S    
