data_mof_unit_1009.cif
_audit_creation_date              2012-12-10T17:44:29-0500
_audit_creation_method            fapswitch 2.2
_symmetry_space_group_name_H-M    P1
_symmetry_Int_Tables_number       1
_space_group_crystal_system       triclinic
_cell_length_a                    9.966988
_cell_length_b                    10.730331
_cell_length_c                    15.456904
_cell_angle_alpha                 93.321694
_cell_angle_beta                  66.738233
_cell_angle_gamma                 88.240276
_cell_volume                      1513.57921558

loop_
_atom_site_label
_atom_site_type_symbol
_atom_type_description
_atom_site_fract_x
_atom_site_fract_y
_atom_site_fract_z
_atom_type_partial_charge
C1    C     C_R   0.498945 0.740253 0.496171 0.892905
C2    C     C_R   0.744130 0.484296 0.023869 0.110012
C3    C     C_R   0.599511 0.531169 0.082042 0.081546
C4    C     C_R   0.407673 0.498363 0.676027 0.863195
C5    C     C_R   0.844336 0.459974 0.065596 -0.190835
C6    C     C_R   0.798553 0.471197 0.163610 -0.188556
C7    C     C_R   0.555962 0.538674 0.179900 -0.240078
C8    C     C_R   0.222320 0.901827 0.528611 -0.184085
C9    C     C_R   0.089995 0.972074 0.573780 -0.136977
C10   C     C_R   0.087535 0.090563 0.615583 -0.111786
C11   C     C_R   0.218586 0.142661 0.605154 -0.133996
C12   C     C_R   0.421406 0.528430 0.910846 0.056424
C13   C     C_R   0.354277 0.075058 0.554337 0.089469
C14   C     C_R   0.355622 0.948092 0.526692 0.108122
C15   C     C_R   0.490284 0.875242 0.499287 -0.129614
C16   C     C_R   0.495959 0.262103 0.510388 0.885034
C17   C     C_R   0.618638 0.931607 0.491528 -0.251542
C18   C     C_R   0.619249 0.058059 0.507706 -0.005849
C19   C     C_R   0.489168 0.131553 0.529475 -0.181832
C20   C     C_R   0.778211 0.656063 0.650038 -0.061771
C21   C     C_R   0.815544 0.706445 0.724161 -0.029320
C22   C     C_R   0.958623 0.705022 0.713279 -0.261431
C23   C     C_R   0.292010 0.604654 0.962731 0.160748
C24   C     C_R   0.064628 0.645792 0.634032 -0.178396
C25   C     C_R   0.031615 0.573708 0.567526 0.115404
C26   C     C_R   0.884797 0.575846 0.570567 0.090097
C27   C     C_R   0.969915 0.428259 0.435207 -0.024865
C28   C     C_R   0.592495 0.500812 0.323645 0.882838
C29   C     C_R   0.112650 0.426475 0.436275 -0.025343
C30   C     C_R   0.348537 0.512030 0.778839 -0.080183
C31   C     C_R   0.652129 0.505138 0.220931 -0.061618
C32   C     C_R   0.192571 0.632711 0.922126 -0.212307
C33   C     C_R   0.225295 0.592180 0.828641 -0.181587
C34   C     C_R   0.531964 0.518568 0.946860 0.052144
C35   C     C_R   0.434883 0.467392 0.824299 -0.077592
C36   C     C_1   0.754029 0.106652 0.505928 0.231594
C37   C     C_1   0.942018 0.350558 0.365488 0.239672
C38   C     C_1   0.639139 0.712172 0.660467 0.288009
C39   C     C_1   0.709689 0.771202 0.810724 0.173719
C40   C     C_1   0.227304 0.342067 0.369851 0.264507
C41   C     C_1   0.926754 0.409865 0.863023 0.161034
C42   C     C_1   0.522574 0.351050 0.785995 0.163024
C43   C     C_R   0.497892 0.559726 0.041958 0.076864
C44   C     C_R   0.364720 0.630454 0.093472 -0.211989
C45   C     C_R   0.265203 0.654657 0.053457 -0.211962
C46   C     C_R   0.678008 0.478098 0.888968 -0.246333
C47   C     C_R   0.783137 0.460903 0.926234 -0.026069
H1    H     H_    0.166797 0.712938 0.093765 0.148914
H2    H     H_    0.875857 0.448289 0.194287 0.169166
H3    H     H_    0.094984 0.692832 0.960410 0.148785
H4    H     H_    0.157110 0.626042 0.794511 0.155885
H5    H     H_    0.338627 0.674967 0.163063 0.144753
H6    H     H_    0.216071 0.814875 0.492600 0.175402
H7    H     H_    0.714231 0.464478 0.813167 0.168908
H8    H     H_    0.956888 0.428503 0.023174 0.160215
H9    H     H_    0.720532 0.876592 0.473718 0.168352
H10   H     H_    0.989047 0.933943 0.576727 0.151215
H11   H     H_    0.984590 0.143833 0.653289 0.160775
H12   H     H_    0.213180 0.235675 0.637800 0.169521
H13   H     H_    0.443372 0.562504 0.225936 0.154483
H14   H     H_    0.989326 0.754600 0.765212 0.159906
H15   H     H_    0.173370 0.657843 0.627089 0.222681
N1    N     N_R   0.856800 0.501200 0.500850 -0.134123
N2    N     N_R   0.142390 0.501280 0.500880 -0.143956
N3    N     N_1   0.861903 0.144274 0.505322 -0.218686
N4    N     N_1   0.920317 0.287327 0.309699 -0.217271
N5    N     N_1   0.526113 0.762531 0.677364 -0.223182
N6    N     N_1   0.625483 0.822575 0.879610 -0.183172
N7    N     N_1   0.318637 0.273915 0.316491 -0.196800
N8    N     N_1   0.041006 0.367834 0.812181 -0.218513
N9    N     N_1   0.592010 0.258214 0.755242 -0.197285
O1    O     O_R   0.385310 0.683220 0.500000 -0.662306
O2    O     O_R   0.614640 0.683250 0.500010 -0.620055
O3    O     O_R   0.319840 0.499980 0.632240 -0.637926
O4    O     O_R   0.549160 0.500000 0.632250 -0.610246
O5    O     O_R   0.385360 0.316750 0.499990 -0.609722
O6    O     O_R   0.614690 0.316780 0.500000 -0.598279
O7    O     O_R   0.450840 0.500000 0.367750 -0.613931
O8    O     O_R   0.680160 0.500020 0.367760 -0.611765
Zn1   Zn    Zn3+2 0.346880 0.499980 0.499990 0.931978
Zn2   Zn    Zn3+2 0.653120 0.500020 0.500010 0.965836

loop_
_geom_bond_atom_site_label_1
_geom_bond_atom_site_label_2
_ccdc_geom_bond_type
C23   C45   A    
C27   C29   A    
C39   N6    T    
C43   C44   A    
C12   C23   A    
C3    C43   A    
C30   C35   A    
N1    Zn2   S    
C10   H11   S    
C18   C19   A    
C3    C7    A    
C5    C6    A    
O7    Zn1   S    
C16   O6    A    
C35   C42   S    
C28   O8    A    
C4    O4    A    
C8    C9    A    
C8    C14   A    
C1    C15   S    
C28   O7    A    
C9    C10   A    
C4    O3    A    
C44   H5    S    
C6    C31   A    
C29   N2    A    
O3    Zn1   S    
C21   C22   A    
N2    Zn1   S    
C11   H12   S    
O2    Zn2   S    
C1    O1    A    
C7    C31   A    
C40   N7    T    
C13   C19   A    
C24   C25   A    
O8    Zn2   S    
C36   N3    T    
O4    Zn2   S    
C25   C26   A    
C25   N2    A    
C26   N1    A    
C20   C38   S    
C21   C39   S    
O6    Zn2   S    
C37   N4    T    
C46   H7    S    
C17   C18   A    
C41   C47   S    
C38   N5    T    
C12   C35   A    
C17   H9    S    
C32   H3    S    
C27   N1    A    
C34   C46   A    
C22   C24   A    
C2    C5    A    
C12   C34   A    
C7    H13   S    
C44   C45   A    
C45   H1    S    
C15   C17   A    
C46   C47   A    
C24   H15   S    
C30   C33   A    
C16   O5    A    
C5    H8    S    
C28   C31   S    
C34   C43   A    
O5    Zn1   S    
C8    H6    S    
C2    C47   A    
C33   H4    S    
C1    O2    A    
C32   C33   A    
C2    C3    A    
O1    Zn1   S    
C23   C32   A    
C22   H14   S    
C11   C13   A    
C20   C26   A    
C27   C37   S    
C16   C19   S    
C29   C40   S    
C42   N9    T    
C9    H10   S    
C6    H2    S    
C10   C11   A    
C20   C21   A    
C14   C15   A    
C13   C14   A    
C18   C36   S    
C4    C30   S    
C41   N8    T    
