data_mof_unit_437.cif
_audit_creation_date              2012-12-11T14:08:30-0500
_audit_creation_method            fapswitch 2.2
_symmetry_space_group_name_H-M    P1
_symmetry_Int_Tables_number       1
_space_group_crystal_system       triclinic
_cell_length_a                    28.13455
_cell_length_b                    7.20123
_cell_length_c                    17.227607
_cell_angle_alpha                 90.209246
_cell_angle_beta                  101.750661
_cell_angle_gamma                 90.139069
_cell_volume                      3417.18316704

loop_
_atom_site_label
_atom_site_type_symbol
_atom_type_description
_atom_site_fract_x
_atom_site_fract_y
_atom_site_fract_z
_atom_type_partial_charge
O1    O     O_R   0.000700 0.436510 0.857920 -0.525677
O2    O     O_R   0.999300 0.563490 0.142080 -0.538092
O3    O     O_R   0.999300 0.936510 0.642080 -0.525648
O4    O     O_R   0.000700 0.063490 0.357920 -0.539228
O5    O     O_R   0.930080 0.766380 0.721890 -0.544693
O6    O     O_R   0.069920 0.233620 0.278110 -0.532541
O7    O     O_R   0.069920 0.266380 0.778110 -0.545710
O8    O     O_R   0.930080 0.733620 0.221890 -0.532297
C1    C     C_R   0.910407 0.596842 0.711451 0.733474
C2    C     C_R   0.089446 0.402727 0.288874 0.746494
C3    C     C_R   0.089473 0.097476 0.788263 0.734359
C4    C     C_R   0.910560 0.902300 0.211250 0.740605
O9    O     O_R   0.996180 0.766230 0.862310 -0.549769
O10   O     O_R   0.003820 0.233770 0.137690 -0.539771
O11   O     O_R   0.003820 0.266230 0.637690 -0.549689
O12   O     O_R   0.996180 0.733770 0.362310 -0.539299
O13   O     O_R   0.065870 0.936460 0.783500 -0.528796
O14   O     O_R   0.934130 0.063540 0.216500 -0.539026
O15   O     O_R   0.934130 0.436460 0.716500 -0.529099
O16   O     O_R   0.065870 0.563540 0.283500 -0.536628
C5    C     C_R   0.998483 0.596558 0.894507 0.774933
C6    C     C_R   0.001497 0.403424 0.105485 0.780621
C7    C     C_R   0.001525 0.096263 0.605573 0.776156
C8    C     C_R   0.998477 0.903720 0.394430 0.774104
O17   O     O_3   0.022790 0.603020 0.723980 -0.372125
O18   O     O_3   0.977210 0.396980 0.276020 -0.379726
O19   O     O_3   0.977210 0.103020 0.776020 -0.372833
O20   O     O_3   0.022790 0.896980 0.223980 -0.377819
V1    V     V_3+5 0.995770 0.877900 0.754830 1.477905
V2    V     V_3+5 0.004230 0.122100 0.245170 1.466694
V3    V     V_3+5 0.004230 0.377900 0.745170 1.477472
V4    V     V_3+5 0.995770 0.622100 0.254830 1.469709
C9    C     C_2   0.001725 0.082440 0.519708 -0.314376
C10   C     C_2   0.998282 0.917495 0.480300 -0.292890
C11   C     C_2   0.998298 0.582577 0.980484 -0.310171
C12   C     C_2   0.001697 0.417352 0.019510 -0.290496
H1    H     H_    0.004541 0.211186 0.488276 0.146523
H2    H     H_    0.995463 0.788741 0.511726 0.153926
H3    H     H_    0.995513 0.711279 0.012297 0.146003
H4    H     H_    0.004495 0.288640 0.987711 0.151369
C13   C     C_R   0.682827 0.879045 0.035695 0.638822
C14   C     C_R   0.317697 0.076658 0.970350 0.662385
C15   C     C_R   0.319882 0.320842 0.446361 0.636327
C16   C     C_R   0.683285 0.559628 0.521835 0.663797
O21   O     O_2   0.711023 0.790977 0.992608 -0.486974
O22   O     O_2   0.288444 0.102480 0.022542 -0.490911
O23   O     O_2   0.292718 0.203750 0.480272 -0.485594
O24   O     O_2   0.713391 0.591409 0.471535 -0.490560
N1    N     N_R   0.703403 0.954592 0.107696 -0.559086
N2    N     N_R   0.297866 0.051218 0.891359 -0.545970
N3    N     N_R   0.297673 0.440668 0.388736 -0.556000
N4    N     N_R   0.701998 0.534176 0.601267 -0.545129
C17   C     C_R   0.675917 0.048419 0.151892 0.628503
C18   C     C_R   0.326960 0.998579 0.840099 0.611482
C19   C     C_R   0.324377 0.562412 0.353818 0.632382
C20   C     C_R   0.671928 0.478624 0.650704 0.612305
C21   C     C_R   0.774760 0.793876 0.183351 -0.122919
C22   C     C_R   0.219802 0.920446 0.820128 -0.125662
C23   C     C_R   0.224731 0.302032 0.305741 -0.127468
C24   C     C_R   0.780070 0.411810 0.676147 -0.129800
C25   C     C_R   0.825158 0.779048 0.211803 -0.065669
C26   C     C_R   0.169682 0.931469 0.789722 -0.068070
C27   C     C_R   0.174095 0.291637 0.278297 -0.065969
C28   C     C_R   0.830048 0.426949 0.708144 -0.067805
C29   C     C_R   0.836176 0.062574 0.140574 -0.182199
C30   C     C_R   0.169655 0.236323 0.850872 -0.198014
C31   C     C_R   0.164857 0.545578 0.367777 -0.206260
C32   C     C_R   0.829795 0.730956 0.647395 -0.197769
C33   C     C_R   0.786029 0.078277 0.114629 0.228737
C34   C     C_R   0.220240 0.230082 0.875502 0.243649
C35   C     C_R   0.215315 0.555973 0.393718 0.228071
C36   C     C_R   0.779231 0.720584 0.621065 0.243497
C37   C     C_R   0.755108 0.942515 0.135379 0.307132
C38   C     C_R   0.245762 0.067705 0.862943 0.290897
C39   C     C_R   0.245563 0.433596 0.362721 0.304959
C40   C     C_R   0.753930 0.556099 0.632261 0.291152
C41   C     C_R   0.603289 0.984011 0.051585 -0.043977
C42   C     C_R   0.398599 0.019269 0.946197 -0.044996
C43   C     C_R   0.398867 0.441590 0.434758 -0.037035
C44   C     C_R   0.602222 0.486274 0.540965 -0.038875
C45   C     C_R   0.632589 0.895420 0.005808 -0.032376
C46   C     C_R   0.368500 0.073673 0.997787 -0.059992
C47   C     C_R   0.370851 0.319330 0.470575 -0.055970
C48   C     C_R   0.632730 0.550687 0.491918 -0.061040
C49   C     C_R   0.612123 0.840430 0.928580 -0.181924
C50   C     C_R   0.389208 0.114754 0.076560 -0.146909
C51   C     C_R   0.394300 0.193551 0.527464 -0.122463
C52   C     C_R   0.612449 0.599220 0.413541 -0.147763
C53   C     C_R   0.625475 0.065916 0.124400 -0.037557
C54   C     C_R   0.376997 0.970087 0.867891 -0.056439
C55   C     C_R   0.375460 0.565311 0.376223 -0.041978
C56   C     C_R   0.622253 0.443267 0.620456 -0.028972
C57   C     C_R   0.856678 0.913352 0.188511 -0.149525
C58   C     C_R   0.143503 0.087701 0.809064 -0.159987
C59   C     C_R   0.143423 0.413308 0.310837 -0.141316
C60   C     C_R   0.856178 0.584610 0.689719 -0.159251
H5    H     H_    0.859246 0.167280 0.122190 0.155410
H6    H     H_    0.150713 0.359223 0.864390 0.173606
H7    H     H_    0.142199 0.639185 0.393572 0.150621
H8    H     H_    0.848553 0.855111 0.634629 0.173808
H9    H     H_    0.635590 0.790635 0.890292 0.186726
H10   H     H_    0.365691 0.146580 0.117455 0.201138
H11   H     H_    0.373141 0.089607 0.550898 0.199964
H12   H     H_    0.636272 0.640706 0.374497 0.204687
C61   C     C_R   0.479076 0.936287 0.921306 0.025919
C62   C     C_R   0.523111 0.079956 0.072474 0.055989
C63   C     C_R   0.522633 0.372026 0.556804 0.009505
C64   C     C_R   0.478573 0.553563 0.416981 0.076672
C65   C     C_R   0.471352 0.068563 0.051305 -0.031395
C66   C     C_R   0.530869 0.931603 0.946133 0.004993
C67   C     C_R   0.530316 0.537701 0.435344 -0.032554
C68   C     C_R   0.473150 0.332324 0.522959 -0.053628
C69   C     C_R   0.449951 0.009491 0.972964 0.061755
C70   C     C_R   0.552082 0.995502 0.023681 0.073681
C71   C     C_R   0.551689 0.464491 0.510698 0.089642
C72   C     C_R   0.450288 0.441535 0.457967 0.103472
C73   C     C_R   0.454590 0.857840 0.848600 -0.102962
C74   C     C_R   0.547392 0.185312 0.137936 -0.112649
C75   C     C_R   0.543147 0.333538 0.636691 -0.085947
C76   C     C_R   0.454159 0.686168 0.363564 -0.108567
C77   C     C_R   0.405262 0.885307 0.820258 -0.072793
C78   C     C_R   0.597277 0.172686 0.165449 -0.071674
C79   C     C_R   0.592028 0.369796 0.668222 -0.071642
C80   C     C_R   0.403579 0.690697 0.342596 -0.092742
O25   O     O_2   0.307779 0.974167 0.762312 -0.499997
O26   O     O_2   0.697346 0.125561 0.221809 -0.489270
O27   O     O_2   0.689770 0.458175 0.729026 -0.506449
O28   O     O_2   0.301644 0.679490 0.297401 -0.491556
C81   C     C_R   0.563179 0.873945 0.896137 -0.147434
C82   C     C_R   0.439572 0.108463 0.104975 -0.044754
C83   C     C_R   0.445055 0.193811 0.552193 -0.149796
C84   C     C_R   0.561904 0.594592 0.384170 -0.066999
H13   H     H_    0.239414 0.798648 0.807505 0.197933
H14   H     H_    0.750298 0.692195 0.200235 0.174182
H15   H     H_    0.760698 0.288724 0.688158 0.198906
H16   H     H_    0.248499 0.210278 0.281345 0.176196
H17   H     H_    0.388894 0.831268 0.762150 0.194753
H18   H     H_    0.613695 0.249784 0.218289 0.169011
H19   H     H_    0.606090 0.338492 0.730073 0.169981
H20   H     H_    0.386653 0.793223 0.300006 0.173822
H21   H     H_    0.472309 0.769774 0.812762 0.148036
H22   H     H_    0.528319 0.281592 0.168141 0.144619
H23   H     H_    0.520890 0.284683 0.676519 0.176404
H24   H     H_    0.473985 0.790997 0.339229 0.137616
I1    I     I_    0.758509 0.309312 0.043799 -0.262517
I2    I     I_    0.255498 0.476054 0.926465 -0.318409
I3    I     I_    0.244264 0.754420 0.481740 -0.229562
I4    I     I_    0.743552 0.964113 0.569979 -0.313009
C85   C     C_2   0.147303 0.783782 0.733447 0.813979
O29   O     O_2   0.115628 0.822402 0.675968 -0.553729
O30   O     O_R   0.164406 0.601613 0.743770 -0.659389
H25   H     H_    0.146779 0.513912 0.701274 0.304036
C86   C     C_2   0.842788 0.629009 0.269170 0.823845
O31   O     O_2   0.823924 0.475132 0.260067 -0.534999
O32   O     O_R   0.879484 0.665318 0.335498 -0.659322
H26   H     H_    0.888052 0.552237 0.370379 0.294193
C87   C     C_2   0.852333 0.281532 0.764934 0.813773
O33   O     O_2   0.883468 0.322965 0.822969 -0.553289
O34   O     O_R   0.835765 0.098192 0.754359 -0.660099
H27   H     H_    0.853285 0.012236 0.797228 0.304586
C88   C     C_2   0.155094 0.159827 0.212802 0.819778
O35   O     O_2   0.174796 0.009444 0.209859 -0.527573
O36   O     O_R   0.115925 0.209885 0.152740 -0.664903
H28   H     H_    0.106653 0.108801 0.111254 0.290888
C89   C     C_2   0.551410 0.888203 0.808555 0.840697
O37   O     O_2   0.532338 0.029147 0.778057 -0.526496
O38   O     O_R   0.562860 0.746087 0.760072 -0.619150
H29   H     H_    0.576255 0.631921 0.791066 0.259597
C90   C     C_2   0.455494 0.122249 0.192655 0.762046
O39   O     O_2   0.434887 0.228709 0.230372 -0.539944
O40   O     O_R   0.493051 0.010731 0.232601 -0.649974
H30   H     H_    0.503782 0.048057 0.290336 0.295045
C91   C     C_2   0.467136 0.031493 0.599415 0.857049
O41   O     O_2   0.447877 0.968746 0.651152 -0.517522
O42   O     O_R   0.508470 0.943159 0.583820 -0.616314
H31   H     H_    0.518906 0.991550 0.534730 0.259609
C92   C     C_2   0.545209 0.627699 0.297611 0.768782
O43   O     O_2   0.568361 0.731065 0.262809 -0.539517
O44   O     O_R   0.504251 0.536104 0.254973 -0.648179
H32   H     H_    0.495800 0.576044 0.197427 0.307877

loop_
_geom_bond_atom_site_label_1
_geom_bond_atom_site_label_2
_ccdc_geom_bond_type
O17   V3    S    
C35   I3    S    
O40   H30   S    
N1    C17   A    
O1    C5    A    
C89   O37   D    
C26   C85   S    
C79   H19   S    
O19   V1    S    
O13   V1    S    
C90   O39   D    
C64   C76   A    
O3    C7    A    
O36   H28   S    
C14   C46   A    
C44   C48   A    
O15   V3    S    
C88   O35   D    
O4    V2    S    
C81   C89   S    
C91   O41   D    
C42   C54   A    
O7    C3    A    
C41   C53   A    
C32   C60   A    
C62   C70   A    
O9    V1    S    
C61   C66   A    
N3    C39   S    
C18   C54   A    
C85   O30   S    
C74   C78   A    
O4    C8    A    
C25   C57   A    
C31   C35   A    
C53   C78   A    
C82   C90   S    
C77   H17   S    
C27   C59   A    
C23   H16   S    
O1    V3    S    
C75   H23   S    
C66   C81   A    
O2    V4    S    
C14   O22   S    
C20   O27   S    
C51   C83   A    
O3    V1    S    
C73   C77   A    
C34   C38   A    
C19   C55   A    
C49   C81   A    
C76   C80   A    
C1    O15   A    
C87   O33   D    
C11   C12   D    
C2    O16   A    
C92   O44   S    
C76   H24   S    
C28   C87   S    
O2    C6    A    
O30   H25   S    
C33   C37   A    
C34   I2    S    
C86   O32   S    
C66   C70   A    
C43   C55   A    
C65   C69   A    
C84   C92   S    
C30   C58   A    
C16   N4    A    
O11   C7    A    
O12   C8    A    
C43   C72   A    
C62   C74   A    
C31   C59   A    
C90   O40   S    
C61   C73   A    
O10   V2    S    
C63   C75   A    
C88   O36   S    
O5    V1    S    
C91   O42   S    
C22   H13   S    
C73   H21   S    
C18   O25   S    
O32   H26   S    
O7    V3    S    
O8    V4    S    
C12   H4    S    
C78   H18   S    
C56   C79   A    
O38   H29   S    
O18   V4    S    
C50   C82   A    
C7    C9    S    
C36   I4    S    
C83   C91   S    
C8    C10   S    
C32   C36   A    
C44   C56   A    
C11   H3    S    
C32   H8    S    
O5    C1    A    
C33   I1    S    
C42   C46   A    
O34   H27   S    
C1    C60   S    
C44   C71   A    
C41   C45   A    
O8    C4    A    
C13   C45   A    
C9    C10   D    
O9    C5    A    
C36   C40   A    
C63   C68   A    
N2    C18   A    
O11   V3    S    
C24   H15   S    
C63   C71   A    
C22   C26   A    
C14   N2    A    
C51   H11   S    
C3    C58   S    
O6    V2    S    
C75   C79   A    
C55   C80   A    
C26   C58   A    
C17   C53   A    
O14   V2    S    
C54   C77   A    
N1    C37   S    
C4    C57   S    
C42   C69   A    
C52   C84   A    
O10   C6    A    
C41   C70   A    
C50   H10   S    
C23   C39   A    
C68   C72   A    
C49   H9    S    
C22   C38   A    
O16   V4    S    
C61   C69   A    
C27   C88   S    
C3    O13   A    
C10   H2    S    
C21   C37   A    
C80   H20   S    
C48   C52   A    
C74   H22   S    
C25   C86   S    
C47   C51   A    
O6    C2    A    
C87   O34   S    
C30   H6    S    
C21   C25   A    
C5    C11   S    
C31   H7    S    
O12   V4    S    
C13   N1    A    
C6    C12   S    
C23   C27   A    
C64   C67   A    
C16   C48   A    
N4    C40   S    
C24   C28   A    
C64   C72   A    
N2    C38   S    
C29   H5    S    
O42   H31   S    
C46   C50   A    
C85   O29   D    
C35   C39   A    
C15   C47   A    
C15   N3    A    
C30   C34   A    
C2    C59   S    
C29   C33   A    
O20   V2    S    
C29   C57   A    
C24   C40   A    
C28   C60   A    
N3    C19   A    
C68   C83   A    
C21   H14   S    
C9    H1    S    
C17   O26   S    
O44   H32   S    
C43   C47   A    
N4    C20   A    
C67   C84   A    
C20   C56   A    
C19   O28   S    
C89   O38   S    
C92   O43   D    
C4    O14   A    
C65   C82   A    
C13   O21   S    
C67   C71   A    
C86   O31   D    
C15   O23   S    
C52   H12   S    
C45   C49   A    
C16   O24   S    
C62   C65   A    
