data_mof_unit_3366.cif
_audit_creation_date              2012-10-26T17:10:28-0400
_audit_creation_method            fapswitch 2.2
_symmetry_space_group_name_H-M    P1
_symmetry_Int_Tables_number       1
_space_group_crystal_system       triclinic
_cell_length_a                    16.887483
_cell_length_b                    16.881358
_cell_length_c                    16.892179
_cell_angle_alpha                 67.403441
_cell_angle_beta                  67.399162
_cell_angle_gamma                 67.462219
_cell_volume                      3944.60788599

loop_
_atom_site_label
_atom_site_type_symbol
_atom_type_description
_atom_site_fract_x
_atom_site_fract_y
_atom_site_fract_z
_atom_type_partial_charge
C1    C     C_R   0.590544 0.040099 0.589831 -0.069361
C2    C     C_R   0.170838 0.433970 0.975506 0.561871
C3    C     C_R   0.565865 0.025174 0.829032 0.555125
C4    C     C_R   0.434562 0.973744 0.171059 0.565762
C5    C     C_R   0.434071 0.170876 0.975220 0.556515
C6    C     C_R   0.565887 0.829110 0.024895 0.561049
C7    C     C_R   0.981829 0.431647 0.169509 0.560147
C8    C     C_R   0.017954 0.568436 0.830561 0.558337
C9    C     C_R   0.169157 0.983027 0.431261 0.565238
C10   C     C_R   0.829050 0.025622 0.565690 0.563362
C11   C     C_R   0.541878 0.028520 0.540442 0.064433
C12   C     C_R   0.403031 0.989167 0.399576 -0.069092
C13   C     C_R   0.452283 0.002825 0.447033 0.069714
C14   C     C_R   0.010730 0.548668 0.544201 0.076818
C15   C     C_R   0.989243 0.451448 0.455860 0.067587
C16   C     C_R   0.544775 0.545151 0.014826 0.058056
C17   C     C_R   0.455312 0.454942 0.984809 0.060978
C18   C     C_R   0.547336 0.941869 0.545165 -0.013325
C19   C     C_R   0.447057 0.089623 0.441944 -0.049205
C20   C     C_R   0.924851 0.552840 0.547882 -0.037949
C21   C     C_R   0.075127 0.447265 0.452161 -0.046020
C22   C     C_R   0.550937 0.552072 0.927290 -0.019089
C23   C     C_R   0.021376 0.597199 0.594228 -0.062797
C24   C     C_R   0.449057 0.448114 0.072347 -0.019531
C25   C     C_R   0.502606 0.929042 0.498768 -0.031391
C26   C     C_R   0.491752 0.102468 0.488596 -0.062331
C27   C     C_R   0.506328 0.507020 0.912271 -0.059896
C28   C     C_R   0.493760 0.493072 0.087364 -0.061146
C29   C     C_R   0.914122 0.504374 0.503773 -0.039060
C30   C     C_R   0.085860 0.495761 0.496250 -0.037361
C31   C     C_R   0.549548 0.042214 0.679250 0.037093
C32   C     C_R   0.448187 0.966492 0.318237 0.033389
C33   C     C_R   0.041244 0.679943 0.550092 0.035813
C34   C     C_R   0.978533 0.402891 0.405901 -0.066018
C35   C     C_R   0.959453 0.319742 0.449951 0.044492
C36   C     C_R   0.681363 0.551526 0.033640 0.043921
C37   C     C_R   0.318700 0.448741 0.965668 0.041964
C38   C     C_R   0.310142 0.001132 0.434852 0.034092
C39   C     C_R   0.679488 0.043902 0.548787 0.032922
C40   C     C_R   0.449108 0.319045 0.964232 0.037936
C41   C     C_R   0.550815 0.681057 0.035749 0.034839
C42   C     C_R   0.991603 0.438452 0.312972 0.034432
C43   C     C_R   0.007286 0.562137 0.687288 0.031116
C44   C     C_R   0.601544 0.036871 0.731421 -0.032612
C45   C     C_R   0.592777 0.593076 0.029362 -0.068789
C46   C     C_R   0.397740 0.965827 0.267824 -0.023873
C47   C     C_R   0.037065 0.731766 0.601679 -0.031005
C48   C     C_R   0.963209 0.268176 0.398351 -0.018319
C49   C     C_R   0.732116 0.602214 0.033583 -0.032097
C50   C     C_R   0.267935 0.397891 0.966076 -0.028053
C51   C     C_R   0.263777 0.983503 0.391479 -0.031796
C52   C     C_R   0.731480 0.037735 0.601237 -0.026599
C53   C     C_R   0.398042 0.268055 0.965458 -0.032212
C54   C     C_R   0.601897 0.731929 0.034675 -0.027655
C55   C     C_R   0.979634 0.392780 0.264849 -0.033077
C56   C     C_R   0.407228 0.407090 0.970297 -0.068078
C57   C     C_R   0.019896 0.607461 0.735320 -0.035468
C58   C     C_R   0.691558 0.034482 0.691442 -0.163500
C59   C     C_R   0.307687 0.969017 0.307355 -0.163113
C60   C     C_R   0.031802 0.692763 0.692260 -0.168324
C61   C     C_R   0.968188 0.307299 0.307835 -0.164562
C62   C     C_R   0.691488 0.691532 0.033820 -0.168654
C63   C     C_R   0.308468 0.308452 0.966265 -0.166880
C64   C     C_2   0.451741 0.054062 0.714770 0.606412
C65   C     C_2   0.547440 0.942394 0.287386 0.604596
C66   C     C_2   0.066985 0.710653 0.450815 0.598017
C67   C     C_R   0.026913 0.828924 0.565223 0.557462
C68   C     C_2   0.934238 0.288310 0.549230 0.603170
C69   C     C_2   0.717520 0.454441 0.041372 0.616288
C70   C     C_2   0.282698 0.546252 0.955993 0.615921
C71   C     C_2   0.262475 0.036043 0.514326 0.597561
C72   C     C_2   0.714907 0.059113 0.450435 0.609261
C73   C     C_2   0.546867 0.283824 0.952876 0.608713
C74   C     C_2   0.452886 0.716425 0.047980 0.610445
C75   C     C_2   0.021517 0.521100 0.267457 0.598125
C76   C     C_2   0.976197 0.480157 0.732648 0.598667
C77   C     C_R   0.973217 0.171059 0.434744 0.576261
C78   C     C_R   0.829183 0.566090 0.024323 0.555405
Cu1   Cu    Cu3+1 0.995180 0.995180 0.424630 1.062316
Cu2   Cu    Cu3+1 0.004820 0.004820 0.575370 1.048221
Cu3   Cu    Cu3+1 0.995180 0.424630 0.995180 1.069244
Cu4   Cu    Cu3+1 0.004820 0.575370 0.004820 1.048108
Cu5   Cu    Cu3+1 0.424630 0.995180 0.995180 1.063160
Cu6   Cu    Cu3+1 0.575370 0.004820 0.004820 1.058100
H1    H     H_    0.487429 0.169570 0.484429 0.131534
H2    H     H_    0.590380 0.592280 0.870927 0.137219
H3    H     H_    0.133487 0.406756 0.414845 0.130266
H4    H     H_    0.866480 0.593331 0.585204 0.125667
H5    H     H_    0.731764 0.027758 0.731721 0.171115
H6    H     H_    0.270594 0.963064 0.270905 0.174245
H7    H     H_    0.033940 0.730494 0.730424 0.171110
H8    H     H_    0.966151 0.269532 0.269649 0.172551
H9    H     H_    0.730789 0.730832 0.031105 0.169537
H10   H     H_    0.269113 0.269085 0.969218 0.172513
H11   H     H_    0.348651 0.004833 0.745969 0.360446
H12   H     H_    0.506792 0.861851 0.503322 0.125816
H13   H     H_    0.661765 0.853949 0.242362 0.348563
H14   H     H_    0.038850 0.733621 0.336840 0.355564
H15   H     H_    0.846689 0.239497 0.662386 0.349020
H16   H     H_    0.754594 0.355938 0.984096 0.344699
H17   H     H_    0.235786 0.668773 0.878993 0.347152
H18   H     H_    0.167706 0.134038 0.566145 0.358379
H19   H     H_    0.765892 0.139000 0.331685 0.350587
H20   H     H_    0.648970 0.250079 0.004223 0.345251
H21   H     H_    0.331825 0.763574 0.127016 0.348381
H22   H     H_    0.118074 0.578309 0.178018 0.360291
H23   H     H_    0.152347 0.491799 0.493582 0.130486
H24   H     H_    0.000279 0.350107 0.744489 0.358587
H25   H     H_    0.847636 0.508325 0.506448 0.129326
H26   H     H_    0.488738 0.487451 0.155082 0.131318
H27   H     H_    0.511354 0.512635 0.844553 0.130912
H28   H     H_    0.408115 0.147027 0.402199 0.126148
H29   H     H_    0.586165 0.884389 0.584977 0.127601
H30   H     H_    0.409565 0.407954 0.128712 0.135596
O1    O     O_R   0.124540 0.978640 0.385460 -0.510314
O2    O     O_R   0.124540 0.385460 0.978640 -0.522732
O3    O     O_R   0.021360 0.875460 0.614540 -0.522458
O4    O     O_R   0.978640 0.124540 0.385460 -0.517680
O5    O     O_R   0.013780 0.867370 0.487190 -0.473404
O6    O     O_R   0.986220 0.132630 0.512810 -0.465958
O7    O     O_R   0.867370 0.487190 0.013780 -0.460981
O8    O     O_R   0.132630 0.512810 0.986220 -0.464734
O9    O     O_R   0.487190 0.013780 0.867370 -0.474706
O10   O     O_R   0.512810 0.986220 0.132630 -0.476658
O11   O     O_R   0.512810 0.132630 0.986220 -0.475284
O12   O     O_R   0.875460 0.021360 0.614540 -0.514460
O13   O     O_R   0.487190 0.867370 0.013780 -0.476158
O14   O     O_R   0.986220 0.512810 0.132630 -0.474801
O15   O     O_R   0.013780 0.487190 0.867370 -0.473957
O16   O     O_R   0.132630 0.986220 0.512810 -0.475816
O17   O     O_R   0.867370 0.013780 0.487190 -0.477357
O18   O     O_2   0.402594 0.121735 0.736842 -0.487205
O19   O     O_R   0.416071 0.988581 0.721778 -0.670526
O20   O     O_2   0.587458 0.991442 0.283298 -0.479031
O21   O     O_R   0.594822 0.863223 0.262558 -0.671590
O22   O     O_2   0.135238 0.734469 0.410287 -0.492450
O23   O     O_R   0.978640 0.385460 0.124540 -0.513243
O24   O     O_R   0.013689 0.712097 0.403894 -0.667754
O25   O     O_2   0.980740 0.287015 0.590410 -0.506056
O26   O     O_R   0.856946 0.259734 0.595301 -0.668603
O27   O     O_2   0.734886 0.402013 0.110266 -0.493108
O28   O     O_R   0.730412 0.423285 0.970486 -0.659677
O29   O     O_2   0.273890 0.575747 0.015555 -0.494165
O30   O     O_R   0.259485 0.604032 0.878075 -0.671587
O31   O     O_2   0.282531 0.994758 0.584427 -0.494732
O32   O     O_R   0.195294 0.116907 0.508031 -0.679855
O33   O     O_2   0.719427 0.005067 0.416041 -0.482489
O34   O     O_R   0.021360 0.614540 0.875460 -0.515573
O35   O     O_R   0.742936 0.135811 0.397497 -0.663634
O36   O     O_2   0.596827 0.264710 0.883978 -0.489862
O37   O     O_R   0.581519 0.273742 0.020267 -0.681677
O38   O     O_2   0.421355 0.724266 0.990310 -0.488497
O39   O     O_R   0.397055 0.740369 0.126085 -0.663305
O40   O     O_2   0.974031 0.590801 0.286207 -0.492017
O41   O     O_R   0.104794 0.518239 0.204167 -0.670994
O42   O     O_2   0.903338 0.483034 0.788052 -0.482788
O43   O     O_R   0.029272 0.400719 0.710175 -0.667838
O44   O     O_R   0.385460 0.124540 0.978640 -0.510717
O45   O     O_R   0.614540 0.875460 0.021360 -0.516034
O46   O     O_R   0.614540 0.021360 0.875460 -0.512653
O47   O     O_R   0.385460 0.978640 0.124540 -0.515149
O48   O     O_R   0.875460 0.614540 0.021360 -0.523825

loop_
_geom_bond_atom_site_label_1
_geom_bond_atom_site_label_2
_ccdc_geom_bond_type
C16   C28   A    
H21   O39   S    
C21   H3    S    
C11   C18   A    
C24   H30   S    
Cu1   O1    S    
C73   O36   D    
C34   C42   A    
C7    C55   S    
C77   O6    A    
C10   C52   S    
Cu2   O6    S    
C6    O45   A    
Cu6   O46   S    
C4    C46   S    
C9    O16   A    
C40   C73   S    
Cu3   O23   S    
C63   H10   S    
C42   C75   S    
H19   O35   S    
H14   O24   S    
H11   O19   S    
H20   O37   S    
C5    C53   S    
C6    C54   S    
C6    O13   A    
C30   H23   S    
H17   O30   S    
C69   O27   D    
Cu1   O4    S    
C55   C61   A    
C1    C31   A    
C23   C43   A    
C49   C78   S    
C4    O10   A    
C34   C35   A    
C78   O7    A    
C19   C26   A    
C10   O17   A    
C2    C50   S    
C41   C74   S    
C64   O19   S    
C37   C56   A    
C2    O2    A    
C64   O18   D    
C44   C58   A    
C40   C56   A    
Cu1   O5    S    
C39   C72   S    
C7    O14   A    
C15   C34   S    
C65   O20   D    
C61   H8    S    
C39   C52   A    
C47   C60   A    
C27   H27   S    
C37   C70   S    
C12   C32   A    
C12   C38   A    
C50   C63   A    
C13   C25   A    
C8    O34   A    
C18   C25   A    
C14   C30   A    
C35   C48   A    
C18   H29   S    
C47   C67   S    
Cu6   O45   S    
C3    O9    A    
C33   C66   S    
C15   C29   A    
C20   C29   A    
C2    O8    A    
C3    C44   S    
C76   O43   S    
C17   C24   A    
Cu2   O16   S    
C31   C44   A    
C13   C19   A    
C9    O1    A    
C14   C20   A    
C77   O4    A    
C7    O23   A    
C43   C57   A    
C57   C60   A    
H24   O43   S    
Cu4   O48   S    
C11   C26   A    
C23   C33   A    
C69   O28   S    
C19   H28   S    
Cu3   O2    S    
C76   O42   D    
Cu3   Cu4   S    
C74   O39   S    
Cu3   O7    S    
C59   H6    S    
C17   C27   A    
C48   C77   S    
C42   C55   A    
Cu3   O15   S    
Cu5   Cu6   S    
C66   O24   S    
Cu1   O17   S    
C70   O29   D    
C36   C45   A    
C67   O3    A    
C17   C56   S    
Cu4   O14   S    
C65   O21   S    
C52   C58   A    
C25   H12   S    
C66   O22   D    
C71   O31   D    
C40   C53   A    
C22   C27   A    
C3    O46   A    
C33   C47   A    
H15   O26   S    
C68   O26   S    
C51   C59   A    
H13   O21   S    
C5    O44   A    
C36   C69   S    
C60   H7    S    
C29   H25   S    
Cu6   O11   S    
C38   C71   S    
C16   C22   A    
C49   C62   A    
C32   C46   A    
C31   C64   S    
H22   O41   S    
C24   C28   A    
Cu5   O13   S    
C16   C45   S    
Cu4   O34   S    
C78   O48   A    
C38   C51   A    
C14   C23   S    
Cu6   O10   S    
C72   O33   D    
C54   C62   A    
C21   C30   A    
C70   O30   S    
C28   H26   S    
C9    C51   S    
H16   O28   S    
H18   O32   S    
C37   C50   A    
C53   C63   A    
C75   O40   D    
C48   C61   A    
Cu5   O44   S    
Cu2   O12   S    
C35   C68   S    
C26   H1    S    
C20   H4    S    
Cu2   O3    S    
C74   O38   D    
C22   H2    S    
Cu5   O47   S    
C58   H5    S    
C41   C54   A    
C1    C39   A    
Cu1   Cu2   S    
C75   O41   S    
C15   C21   A    
C71   O32   S    
C12   C13   S    
C46   C59   A    
C72   O35   S    
C62   H9    S    
C5    O11   A    
C8    O15   A    
C41   C45   A    
C4    O47   A    
C43   C76   S    
C68   O25   D    
C1    C11   S    
Cu5   O9    S    
C10   O12   A    
C67   O5    A    
Cu4   O8    S    
C8    C57   S    
C73   O37   S    
C36   C49   A    
C32   C65   S    
