data_mof_unit_337.cif
_audit_creation_date              2012-12-10T17:03:41-0500
_audit_creation_method            fapswitch 2.2
_symmetry_space_group_name_H-M    P1
_symmetry_Int_Tables_number       1
_space_group_crystal_system       triclinic
_cell_length_a                    10.129876
_cell_length_b                    10.824966
_cell_length_c                    13.276536
_cell_angle_alpha                 92.63814
_cell_angle_beta                  71.921972
_cell_angle_gamma                 89.783261
_cell_volume                      1382.26089806

loop_
_atom_site_label
_atom_site_type_symbol
_atom_type_description
_atom_site_fract_x
_atom_site_fract_y
_atom_site_fract_z
_atom_type_partial_charge
C1    C     C_R   0.499746 0.736912 0.501246 0.946472
C2    C     C_R   0.441765 0.579280 0.981484 -0.005614
C3    C     C_R   0.483033 0.575387 0.869980 0.020688
C4    C     C_R   0.546380 0.559669 0.030158 0.066659
C5    C     C_R   0.688637 0.562518 0.969352 0.155269
C6    C     C_R   0.724760 0.591557 0.864104 -0.277612
C7    C     C_R   0.622011 0.605987 0.816860 0.183765
C8    C     C_R   0.513694 0.527530 0.135041 -0.253810
C9    C     C_R   0.757629 0.521608 0.123022 -0.175123
C10   C     C_R   0.382965 0.546709 0.817574 -0.094887
C11   C     C_2   0.609909 0.062948 0.506712 0.162779
C12   C     C_R   0.424652 0.511691 0.702986 0.898995
C13   C     C_2   0.509712 0.131163 0.487358 -0.361514
C14   C     C_2   0.609155 0.932965 0.477147 0.130120
C15   C     C_2   0.495541 0.867313 0.522586 -0.063105
C16   C     C_2   0.079336 0.408506 0.471067 0.238785
C17   C     C_2   0.951817 0.428580 0.438677 0.090619
C18   C     C_R   0.501251 0.263031 0.499347 0.950996
C19   C     C_R   0.575764 0.500248 0.297096 0.872130
C20   C     C_R   0.792938 0.543995 0.015962 -0.162991
C21   C     C_R   0.617726 0.513501 0.182976 -0.044710
C22   C     C_R   0.241887 0.550773 0.876812 -0.227010
C23   C     C_R   0.201090 0.589554 0.983525 -0.142840
C24   C     C_R   0.299867 0.608964 0.036807 0.186892
H1    H     H_    0.839416 0.511616 0.158426 0.143169
H2    H     H_    0.432122 0.087165 0.457158 0.181424
H3    H     H_    0.861616 0.524976 0.571853 0.189143
H4    H     H_    0.831413 0.612322 0.821349 0.157600
H5    H     H_    0.901371 0.548361 0.969625 0.127457
H6    H     H_    0.406627 0.512755 0.179600 0.180194
H7    H     H_    0.162711 0.533300 0.839005 0.168355
H8    H     H_    0.092522 0.610976 0.022910 0.148620
N1    N     N_2   0.148270 0.498670 0.498870 -0.097726
N2    N     N_2   0.852610 0.498640 0.498840 -0.218914
O1    O     O_R   0.386950 0.680940 0.500020 -0.626971
O2    O     O_R   0.613110 0.680900 0.499980 -0.560689
O3    O     O_R   0.330780 0.500000 0.653640 -0.604299
O4    O     O_R   0.556930 0.499960 0.653610 -0.602238
O5    O     O_R   0.386890 0.319100 0.500020 -0.563153
O6    O     O_R   0.613050 0.319060 0.499980 -0.648295
O7    O     O_R   0.443070 0.500040 0.346390 -0.626757
O8    O     O_R   0.669220 0.500000 0.346360 -0.626731
Zn1   Zn    Zn3+2 0.349000 0.500030 0.500020 0.973103
Zn2   Zn    Zn3+2 0.651000 0.499970 0.499980 0.958593
I1    I     I_    0.778465 0.867107 0.343225 -0.405412
I2    I     I_    0.323920 0.934545 0.654149 -0.357081
I3    I     I_    0.114956 0.222711 0.501062 -0.378576
C25   C     C_3   0.112027 0.627806 0.489379 -0.262379
C26   C     C_3   0.072827 0.696932 0.597600 -0.741554
H9    H     H_    0.154636 0.685883 0.635943 0.290170
H10   H     H_    0.056746 0.796824 0.588526 0.260914
H11   H     H_    0.975799 0.660270 0.650795 0.225114
H12   H     H_    0.201803 0.671663 0.433511 0.232465
H13   H     H_    0.029131 0.643115 0.453679 0.173437
C27   C     C_3   0.938473 0.374015 0.335215 -0.330325
C28   C     C_3   0.064121 0.299267 0.264117 -0.879607
H14   H     H_    0.162733 0.347446 0.257528 0.264138
H15   H     H_    0.067466 0.205987 0.294425 0.291025
H16   H     H_    0.054383 0.286506 0.183254 0.258264
H17   H     H_    0.845791 0.314969 0.351216 0.237757
H18   H     H_    0.922884 0.452397 0.289420 0.216503
C29   C     C_3   0.258575 0.696453 0.134512 -0.407758
C30   C     C_3   0.140789 0.649005 0.225711 -0.876381
H19   H     H_    0.048411 0.626660 0.200988 0.264651
H20   H     H_    0.174969 0.566303 0.257616 0.254213
H21   H     H_    0.109241 0.723404 0.289129 0.266488
H22   H     H_    0.347766 0.720456 0.162898 0.215954
H23   H     H_    0.223046 0.785241 0.111715 0.232251
I4    I     I_    0.667028 0.744938 0.708059 -0.401347
C31   C     C_3   0.725093 0.115330 0.547511 -0.334111
C32   C     C_3   0.787995 0.024294 0.604455 -0.772303
H24   H     H_    0.707345 0.000531 0.678399 0.285342
H25   H     H_    0.831212 0.940594 0.553357 0.292773
H26   H     H_    0.873255 0.068699 0.627815 0.268798
H27   H     H_    0.808715 0.151004 0.480063 0.236351
H28   H     H_    0.682901 0.191415 0.608205 0.233385

loop_
_geom_bond_atom_site_label_1
_geom_bond_atom_site_label_2
_ccdc_geom_bond_type
O3    Zn1   S    
C32   H26   S    
C2    C4    A    
C18   O5    A    
C30   H20   S    
O4    Zn2   S    
C6    C7    A    
C1    C15   S    
C16   N1    D    
O1    Zn1   S    
C17   C27   S    
C9    C20   A    
C28   H16   S    
C29   H23   S    
C23   C24   A    
C26   H11   S    
C8    H6    S    
C23   H8    S    
C27   C28   S    
C2    C3    A    
C11   C31   S    
C9    H1    S    
C32   H24   S    
C3    C10   A    
O6    Zn2   S    
C27   H17   S    
C10   C22   A    
C25   H13   S    
O7    Zn1   S    
C19   O8    A    
C9    C21   A    
C29   C30   S    
C25   H12   S    
C10   C12   S    
C29   H22   S    
O8    Zn2   S    
C27   H18   S    
C16   I3    S    
C25   C26   S    
C19   C21   S    
C28   H15   S    
C8    C21   A    
C14   I1    S    
C3    C7    A    
C20   H5    S    
H3    N2    S    
C31   H28   S    
C5    C6    A    
C11   C14   S    
C5    C20   A    
C13   H2    S    
C30   H21   S    
C11   C13   D    
O2    Zn2   S    
C17   N2    D    
C30   H19   S    
N1    Zn1   S    
C12   O4    A    
C12   O3    A    
C31   C32   S    
N2    Zn2   S    
C28   H14   S    
C1    O1    A    
C13   C18   S    
C26   H9    S    
C22   H7    S    
C4    C8    A    
C32   H25   S    
N1    C25   S    
C18   O6    A    
C14   C15   D    
C16   C17   S    
C31   H27   S    
O5    Zn1   S    
C2    C24   A    
C15   I2    S    
C22   C23   A    
C24   C29   S    
C7    I4    S    
C6    H4    S    
C19   O7    A    
C1    O2    A    
C4    C5    A    
C26   H10   S    
