data_mof_unit_4884.cif
_audit_creation_date              2012-12-10T16:52:39-0500
_audit_creation_method            fapswitch 2.2
_symmetry_space_group_name_H-M    P1
_symmetry_Int_Tables_number       1
_space_group_crystal_system       triclinic
_cell_length_a                    7.803184
_cell_length_b                    8.575245
_cell_length_c                    14.168898
_cell_angle_alpha                 93.210523
_cell_angle_beta                  95.060654
_cell_angle_gamma                 93.962028
_cell_volume                      940.306326218

loop_
_atom_site_label
_atom_site_type_symbol
_atom_type_description
_atom_site_fract_x
_atom_site_fract_y
_atom_site_fract_z
_atom_type_partial_charge
C1    C     C_R   0.045021 0.794644 0.497573 0.966338
C2    C     C_R   0.930407 0.474393 0.319741 0.882979
C3    C     C_R   0.117069 0.568653 0.780807 -0.090399
C4    C     C_R   0.882931 0.431347 0.219193 -0.090399
C5    C     C_R   0.045699 0.651108 0.937783 -0.189810
C6    C     C_R   0.954300 0.348892 0.062217 -0.189810
C7    C     C_R   0.994499 0.613758 0.841770 -0.253139
C8    C     C_R   0.005501 0.386242 0.158230 -0.253139
C9    C     C_R   0.291233 0.571700 0.816495 0.131776
C10   C     C_R   0.708767 0.428300 0.183505 0.131776
C11   C     C_R   0.327716 0.558966 0.913546 0.068260
C12   C     C_R   0.954979 0.205356 0.502427 0.966338
C13   C     C_R   0.672284 0.441034 0.086454 0.068260
C14   C     C_R   0.211164 0.618518 0.974829 0.130871
C15   C     C_R   0.788836 0.381482 0.025171 0.130871
C16   C     C_R   0.477705 0.492207 0.950705 0.060024
C17   C     C_R   0.522295 0.507793 0.049295 0.060024
C18   C     C_3   0.566359 0.363741 0.240237 -0.878661
C19   C     C_3   0.433641 0.636259 0.759763 -0.878661
C20   C     C_R   0.420976 0.596621 0.107244 -0.232055
C21   C     C_R   0.579024 0.403379 0.892756 -0.232055
C22   C     C_R   0.263227 0.645000 0.071150 -0.223366
C23   C     C_R   0.736773 0.355000 0.928850 -0.223365
C24   C     C_2   0.068579 0.958195 0.496219 -0.383107
C25   C     C_2   0.931421 0.041805 0.503781 -0.383108
C26   C     C_R   0.069593 0.525607 0.680259 0.882979
H1    H     H_    0.181996 0.702262 0.118528 0.155578
H2    H     H_    0.802049 0.990753 0.510976 0.178487
H3    H     H_    0.486614 0.364765 0.437076 0.188893
H4    H     H_    0.513386 0.635235 0.562924 0.188893
H5    H     H_    0.520086 0.457029 0.286608 0.247889
H6    H     H_    0.454594 0.309376 0.192841 0.229891
H7    H     H_    0.613637 0.269685 0.284371 0.234630
H8    H     H_    0.545406 0.690624 0.807159 0.229891
H9    H     H_    0.479914 0.542970 0.713392 0.247889
H10   H     H_    0.386363 0.730315 0.715629 0.234630
H11   H     H_    0.818004 0.297738 0.881472 0.155578
H12   H     H_    0.138076 0.375347 0.185077 0.178489
H13   H     H_    0.861924 0.624653 0.814923 0.178489
H14   H     H_    0.953318 0.694288 0.983785 0.154446
H15   H     H_    0.046682 0.305712 0.016215 0.154446
H16   H     H_    0.461556 0.628811 0.180878 0.171679
H17   H     H_    0.538444 0.371189 0.819122 0.171679
H18   H     H_    0.197951 0.009247 0.489024 0.178487
N1    N     N_2   0.440860 0.456490 0.474790 -0.181628
N2    N     N_2   0.559140 0.543510 0.525210 -0.181629
O1    O     O_R   0.891570 0.738930 0.506190 -0.610991
O2    O     O_R   0.108430 0.261070 0.493810 -0.610991
O3    O     O_R   0.174650 0.711050 0.490030 -0.630813
O4    O     O_R   0.825350 0.288950 0.509970 -0.630813
O5    O     O_R   0.909850 0.521900 0.644940 -0.622689
O6    O     O_R   0.090150 0.478100 0.355060 -0.622689
O7    O     O_R   0.192930 0.494020 0.628780 -0.611775
O8    O     O_R   0.807070 0.505980 0.371220 -0.611775
Zn1   Zn    Zn3+2 0.810990 0.518620 0.510790 0.928204
Zn2   Zn    Zn3+2 0.189010 0.481380 0.489210 0.928204

loop_
_geom_bond_atom_site_label_1
_geom_bond_atom_site_label_2
_ccdc_geom_bond_type
N2    Zn1   S    
C2    C4    S    
C10   C13   A    
C16   C21   A    
C3    C9    A    
C23   H11   S    
O3    Zn2   S    
C5    C7    A    
C11   C16   A    
H4    N2    S    
C26   O5    A    
O4    Zn1   S    
C13   C17   A    
C12   C25   S    
C4    C8    A    
C14   C22   A    
C15   C23   A    
C19   H9    S    
N1    N2    D    
C25   H2    S    
C20   H16   S    
C9    C11   A    
C5    C14   A    
C16   C17   A    
C2    O6    A    
C8    H12   S    
C10   C18   S    
C11   C14   A    
C12   O2    A    
C20   C22   A    
C3    C7    A    
C19   H10   S    
C13   C15   A    
C21   C23   A    
C22   H1    S    
C24   H18   S    
C18   H7    S    
O7    Zn2   S    
C18   H6    S    
C4    C10   A    
C26   O7    A    
C17   C20   A    
C24   C25   D    
C1    C24   S    
O1    Zn1   S    
C2    O8    A    
C5    H14   S    
O2    Zn2   S    
C7    H13   S    
O8    Zn1   S    
C1    O1    A    
C6    C8    A    
C18   H5    S    
O5    Zn1   S    
C6    C15   A    
C21   H17   S    
C1    O3    A    
C9    C19   S    
C3    C26   S    
O6    Zn2   S    
N1    Zn2   S    
H3    N1    S    
C12   O4    A    
C6    H15   S    
C19   H8    S    
