data_mof_unit_1698.cif
_audit_creation_date              2012-12-10T18:56:30-0500
_audit_creation_method            fapswitch 2.2
_symmetry_space_group_name_H-M    P1
_symmetry_Int_Tables_number       1
_space_group_crystal_system       triclinic
_cell_length_a                    10.767475
_cell_length_b                    9.80757
_cell_length_c                    19.222519
_cell_angle_alpha                 90.017364
_cell_angle_beta                  89.938091
_cell_angle_gamma                 89.910191
_cell_volume                      2029.94737955

loop_
_atom_site_label
_atom_site_type_symbol
_atom_type_description
_atom_site_fract_x
_atom_site_fract_y
_atom_site_fract_z
_atom_type_partial_charge
C1    C     C_R   0.872329 0.502588 0.514794 -0.389934
C2    C     C_R   0.740059 0.500274 0.504713 1.024431
C3    C     C_R   0.499840 0.499992 0.365924 1.039564
C4    C     C_R   0.499567 0.500027 0.634026 1.005762
C5    C     C_R   0.065224 0.383819 0.530935 0.352349
C6    C     C_R   0.936024 0.628247 0.510202 0.389453
C7    C     C_R   0.937068 0.379961 0.526599 0.403629
C8    C     C_R   0.062807 0.626343 0.499497 0.412303
C9    C     C_R   0.593781 0.435899 0.745713 0.279213
C10   C     C_R   0.400428 0.567747 0.256078 0.284838
C11   C     C_R   0.591602 0.431875 0.253895 0.291705
C12   C     C_R   0.127365 0.502795 0.509496 -0.385580
C13   C     C_R   0.398139 0.563870 0.743894 0.268726
C14   C     C_R   0.591145 0.435656 0.818192 0.347545
C15   C     C_R   0.398039 0.567689 0.183594 0.348063
C16   C     C_R   0.588831 0.431746 0.181415 0.358491
C17   C     C_R   0.395771 0.563615 0.816369 0.361015
C18   C     C_R   0.492274 0.499631 0.853007 -0.273160
C19   C     C_R   0.492223 0.499791 0.146793 -0.273947
C20   C     C_R   0.451003 0.072155 0.554681 -0.014769
C21   C     C_R   0.550125 0.927845 0.445631 -0.005286
C22   C     C_R   0.550152 0.071904 0.445639 -0.070786
C23   C     C_R   0.557259 0.600878 0.963836 -0.071665
C24   C     C_R   0.451545 0.928118 0.554836 -0.120709
C25   C     C_R   0.497245 0.500070 0.708978 -0.350647
C26   C     C_R   0.497397 0.499998 0.290877 -0.358576
C27   C     C_3   0.143312 0.268367 0.623063 -0.172701
C28   C     C_3   0.848806 0.792632 0.577552 -0.228608
C29   C     C_3   0.883382 0.174220 0.480686 -0.127025
C30   C     C_3   0.140145 0.842502 0.517101 -0.110836
C31   C     C_R   0.423094 0.401228 0.035996 -0.068850
C32   C     C_R   0.557207 0.600950 0.035909 -0.070502
C33   C     C_R   0.423153 0.401148 0.963890 -0.072875
C34   C     C_R   0.490403 0.500922 0.071627 0.206385
C35   C     C_R   0.490521 0.500764 0.928180 0.209392
C36   C     C_R   0.259618 0.500434 0.501476 1.038478
Cl1   Cl    Cl    0.720481 0.360283 0.701200 -0.507682
Cl2   Cl    Cl    0.279226 0.648487 0.302991 -0.441854
Cl3   Cl    Cl    0.715848 0.351140 0.298016 -0.536177
Cl4   Cl    Cl    0.274715 0.640311 0.697113 -0.609873
Cl5   Cl    Cl    0.711688 0.355331 0.865481 -0.435761
Cl6   Cl    Cl    0.277151 0.652667 0.138753 -0.420607
Cl7   Cl    Cl    0.706573 0.346766 0.133847 -0.420381
Cl8   Cl    Cl    0.272233 0.643864 0.861377 -0.438756
H1    H     H_    0.411547 0.126875 0.598259 0.144563
H2    H     H_    0.190274 0.172659 0.639018 0.165586
H3    H     H_    0.052027 0.272112 0.650294 0.218209
H4    H     H_    0.786602 0.719174 0.604526 0.184253
H5    H     H_    0.800538 0.892583 0.576456 0.195607
H6    H     H_    0.935245 0.804976 0.608532 0.155220
H7    H     H_    0.848663 0.226706 0.433149 0.181886
H8    H     H_    0.824077 0.083426 0.489192 0.174229
H9    H     H_    0.979778 0.137428 0.472039 0.186489
H10   H     H_    0.217879 0.906207 0.498033 0.184241
H11   H     H_    0.166164 0.803633 0.569596 0.149462
H12   H     H_    0.590424 0.873115 0.402267 0.164126
H13   H     H_    0.058405 0.910904 0.520316 0.177744
H14   H     H_    0.590593 0.126432 0.402317 0.176039
H15   H     H_    0.412047 0.873624 0.598442 0.176769
H16   H     H_    0.609289 0.677771 0.935801 0.171434
H17   H     H_    0.371581 0.323955 0.064053 0.174147
H18   H     H_    0.609225 0.677870 0.063890 0.173823
H19   H     H_    0.371666 0.323825 0.935891 0.170124
H20   H     H_    0.202837 0.354993 0.639831 0.172548
N1    N     N_R   0.500000 0.857200 0.500000 -0.091879
N2    N     N_R   0.500000 0.142800 0.500000 -0.085296
O1    O     O_R   0.316770 0.614620 0.500000 -0.577254
O2    O     O_3   0.874734 0.752392 0.508301 -0.571446
O3    O     O_3   0.875307 0.258861 0.540013 -0.550137
O4    O     O_3   0.119639 0.737622 0.468138 -0.520036
O5    O     O_R   0.683230 0.385380 0.500000 -0.573550
O6    O     O_R   0.683230 0.614620 0.500000 -0.594667
O7    O     O_R   0.316770 0.385380 0.500000 -0.587730
O8    O     O_R   0.500030 0.614710 0.398180 -0.599100
O9    O     O_R   0.499970 0.385290 0.601820 -0.609615
O10   O     O_R   0.499970 0.614710 0.601820 -0.621429
O11   O     O_R   0.500030 0.385290 0.398180 -0.610329
O12   O     O_3   0.128733 0.266999 0.550195 -0.595694
Zn1   Zn    Zn3+2 0.500000 0.653120 0.500000 1.019013
Zn2   Zn    Zn3+2 0.500000 0.346880 0.500000 1.028854

loop_
_geom_bond_atom_site_label_1
_geom_bond_atom_site_label_2
_ccdc_geom_bond_type
N1    Zn1   S    
C14   C18   A    
O10   Zn1   S    
C27   O12   S    
C4    C25   S    
C36   O1    A    
C9    C25   A    
C15   C19   A    
C30   H10   S    
C18   C35   S    
C20   N2    A    
C28   O2    S    
O6    Zn1   S    
C10   C15   A    
C24   H15   S    
C30   H13   S    
C1    C2    S    
C28   H5    S    
C3    O8    A    
C31   H17   S    
C22   N2    A    
C4    O9    A    
C28   H6    S    
C20   C24   A    
C13   Cl4   S    
C31   C33   A    
C12   C36   S    
O9    Zn2   S    
C20   H1    S    
C33   H19   S    
C10   C26   A    
C6    O2    S    
C21   C22   A    
C13   C25   A    
C2    O6    A    
O5    Zn2   S    
C30   O4    S    
C29   O3    S    
C23   H16   S    
C1    C6    A    
O1    Zn1   S    
C5    C12   A    
C27   H20   S    
C5    C7    A    
C6    C8    A    
C11   C26   A    
C32   C34   A    
C9    C14   A    
C7    O3    S    
C11   C16   A    
C8    C12   A    
C9    Cl1   S    
C17   C18   A    
C31   C34   A    
C11   Cl3   S    
C16   Cl7   S    
C24   N1    A    
C14   Cl5   S    
C27   H2    S    
C23   C35   A    
O8    Zn1   S    
C2    O5    A    
C3    O11   A    
C29   H7    S    
O11   Zn2   S    
C27   H3    S    
C28   H4    S    
C21   N1    A    
C1    C7    A    
C3    C26   S    
C15   Cl6   S    
C19   C34   S    
C22   H14   S    
C21   H12   S    
N2    Zn2   S    
C30   H11   S    
C8    O4    S    
C13   C17   A    
C10   Cl2   S    
C23   C32   A    
C17   Cl8   S    
C32   H18   S    
C29   H9    S    
C16   C19   A    
C33   C35   A    
O7    Zn2   S    
C4    O10   A    
C36   O7    A    
C5    O12   S    
C29   H8    S    
