data_mof_unit_1433.cif
_audit_creation_date              2012-12-11T14:38:22-0500
_audit_creation_method            fapswitch 2.2
_symmetry_space_group_name_H-M    P1
_symmetry_Int_Tables_number       1
_space_group_crystal_system       triclinic
_cell_length_a                    19.585218
_cell_length_b                    11.102399
_cell_length_c                    19.65745
_cell_angle_alpha                 89.76659
_cell_angle_beta                  96.93016
_cell_angle_gamma                 90.064498
_cell_volume                      4243.10823592

loop_
_atom_site_label
_atom_site_type_symbol
_atom_type_description
_atom_site_fract_x
_atom_site_fract_y
_atom_site_fract_z
_atom_type_partial_charge
C1    C     C_R   0.725272 0.951797 0.359855 0.549211
C2    C     C_3   0.175539 0.475409 0.466938 -0.209096
C3    C     C_2   0.987120 0.911778 0.060221 0.597337
C4    C     C_3   0.316397 0.974103 0.525965 -0.222606
C5    C     C_3   0.675542 0.975409 0.466937 -0.209257
C6    C     C_3   0.765447 0.282650 0.561818 -0.252757
C7    C     C_3   0.237460 0.286068 0.445983 -0.263848
C8    C     C_3   0.265446 0.782649 0.561818 -0.253065
C9    C     C_3   0.737461 0.786066 0.445982 -0.263799
C10   C     C_3   0.760304 0.419170 0.568017 0.064101
C11   C     C_3   0.237866 0.421688 0.432458 0.064760
C12   C     C_3   0.260303 0.919168 0.568018 0.065283
C13   C     C_R   0.275819 0.955276 0.639180 0.543639
C14   C     C_3   0.737867 0.921686 0.432457 0.064540
C15   C     C_3   0.737805 0.361237 0.439403 0.052961
C16   C     C_3   0.252697 0.389704 0.564250 0.056234
C17   C     C_3   0.237805 0.861238 0.439404 0.052614
C18   C     C_3   0.752698 0.889702 0.564250 0.055899
C19   C     C_3   0.791739 0.464008 0.449050 -0.231569
C20   C     C_3   0.190402 0.471757 0.545231 -0.258179
C21   C     C_3   0.291739 0.964008 0.449051 -0.231671
C22   C     C_3   0.690404 0.971760 0.545230 -0.257913
C23   C     C_3   0.766332 0.254726 0.485637 -0.250884
C24   C     C_R   0.225271 0.451800 0.359856 0.548463
C25   C     C_3   0.237061 0.270090 0.523678 -0.219300
C26   C     C_3   0.266330 0.754725 0.485637 -0.250398
C27   C     C_3   0.737057 0.770089 0.523678 -0.219348
C28   C     C_3   0.552337 0.277190 0.946644 -0.051908
C29   C     C_3   0.571795 0.287367 0.025153 -0.063911
C30   C     C_3   0.016588 0.805633 0.956432 -0.056928
C31   C     C_3   0.029190 0.808998 0.034267 -0.049787
C32   C     C_3   0.436195 0.196090 0.971847 -0.245793
C33   C     C_3   0.560786 0.060041 0.029847 -0.259910
C34   C     C_3   0.924196 0.647398 0.967315 -0.247758
C35   C     C_R   0.775819 0.455277 0.639180 0.548168
C36   C     C_3   0.064591 0.589572 0.032361 -0.261406
C37   C     C_3   0.530274 0.051065 0.953834 -0.232297
C38   C     C_3   0.458650 0.185096 0.049043 -0.213671
C39   C     C_3   0.044582 0.580094 0.954485 -0.247515
C40   C     C_3   0.941564 0.638230 0.045464 -0.245702
C41   C     C_R   0.536074 0.180097 0.338562 0.537829
C42   C     C_R   0.463630 0.180482 0.661251 0.545194
C43   C     C_R   0.036069 0.680097 0.338560 0.531958
C44   C     C_R   0.963625 0.680483 0.661249 0.543527
C45   C     C_3   0.498280 0.174119 0.930581 0.009898
C46   C     C_3   0.670044 0.405925 0.464174 -0.239433
C47   C     C_3   0.538157 0.179655 0.062159 0.003344
C48   C     C_3   0.990001 0.677004 0.932285 0.024494
C49   C     C_3   0.016313 0.679409 0.064863 0.004686
C50   C     C_1   0.765406 0.432977 0.906491 0.031046
C51   C     C_1   0.222096 0.467817 0.086463 -0.009063
C52   C     C_1   0.264775 0.930615 0.905854 0.006769
C53   C     C_1   0.726824 0.956986 0.088523 -0.007029
C54   C     C_1   0.751863 0.414488 0.036820 -0.012476
C55   C     C_1   0.243874 0.430263 0.959512 -0.026556
C56   C     C_1   0.249813 0.910183 0.035665 -0.012947
C57   C     C_3   0.318382 0.448708 0.542235 -0.234117
C58   C     C_1   0.747674 0.921042 0.961606 0.007901
C59   C     C_1   0.758295 0.423909 0.966322 -0.013414
C60   C     C_1   0.232912 0.450969 0.028163 -0.032873
C61   C     C_1   0.256984 0.919990 0.965396 0.007653
C62   C     C_1   0.738081 0.939188 0.030596 -0.006943
C63   C     C_1   0.745757 0.398193 0.096405 0.030235
C64   C     C_1   0.252733 0.405222 0.901620 0.004010
C65   C     C_1   0.243976 0.894863 0.095331 0.000296
C66   C     C_1   0.754726 0.899834 0.902932 0.006162
C67   C     C_R   0.726992 0.319177 0.367998 0.547460
C68   C     C_3   0.170043 0.905927 0.464174 -0.239043
C69   C     C_R   0.261185 0.359727 0.637644 0.537478
C70   C     C_R   0.226992 0.819178 0.367998 0.546683
C71   C     C_R   0.761185 0.859726 0.637644 0.538650
C72   C     C_R   0.708985 0.987869 0.154683 0.530873
C73   C     C_R   0.278641 0.955378 0.837365 0.532244
C74   C     C_R   0.206684 0.493501 0.154460 0.545210
C75   C     C_R   0.778741 0.455774 0.837564 0.563658
C76   C     C_R   0.560997 0.183035 0.136816 0.521108
C77   C     C_R   0.469975 0.178921 0.857959 0.553696
C78   C     C_R   0.034751 0.680465 0.139569 0.530047
C79   C     C_3   0.818384 0.948701 0.542234 -0.234264
C80   C     C_R   0.968396 0.679461 0.858625 0.585792
C81   C     C_R   0.736524 0.360094 0.164378 0.548930
C82   C     C_R   0.263526 0.360158 0.835503 0.546574
C83   C     C_R   0.236049 0.858967 0.163897 0.544856
C84   C     C_R   0.763805 0.859375 0.835718 0.540086
C85   C     C_1   0.484754 0.173185 0.594068 -0.025845
C86   C     C_1   0.514443 0.172185 0.405547 -0.031139
C87   C     C_1   0.984743 0.673187 0.594062 -0.027992
C88   C     C_1   0.014431 0.672185 0.405541 -0.029886
C89   C     C_1   0.503924 0.169196 0.464690 -0.069903
C90   C     C_3   0.816398 0.474105 0.525964 -0.223418
C91   C     C_1   0.495023 0.169720 0.534877 -0.068243
C92   C     C_1   0.003909 0.669198 0.464682 -0.069442
C93   C     C_1   0.995007 0.669722 0.534870 -0.068668
C94   C     C_3   0.685648 0.453778 0.537626 -0.236296
C95   C     C_3   0.310413 0.464949 0.464508 -0.239624
C96   C     C_3   0.185646 0.953775 0.537627 -0.236321
C97   C     C_3   0.810415 0.964946 0.464507 -0.239658
C98   C     C_2   0.614619 0.262583 0.908299 0.531937
C99   C     C_2   0.552998 0.413156 0.048060 0.581092
C100  C     C_2   0.077801 0.852637 0.923227 0.551639
Cr1   Cr    Cr6+3 0.765780 0.160710 0.267420 1.017847
Cr2   Cr    Cr6+3 0.383970 0.323720 0.751490 1.038918
Cr3   Cr    Cr6+3 0.116030 0.823720 0.248510 1.055722
Cr4   Cr    Cr6+3 0.883970 0.823720 0.751490 1.033987
Cr5   Cr    Cr6+3 0.234220 0.160710 0.732580 1.032855
Cr6   Cr    Cr6+3 0.265780 0.660710 0.267420 1.018139
Cr7   Cr    Cr6+3 0.734220 0.660710 0.732580 1.038224
Cr8   Cr    Cr6+3 0.612200 0.009560 0.248850 1.017284
Cr9   Cr    Cr6+3 0.387800 0.009560 0.751150 1.022791
Cr10  Cr    Cr6+3 0.112200 0.509560 0.248850 1.023588
Cr11  Cr    Cr6+3 0.887800 0.509560 0.751150 1.024659
Cr12  Cr    Cr6+3 0.616030 0.323720 0.248510 1.048881
H1    H     H_    0.678854 0.551622 0.537358 0.124808
H2    H     H_    0.129459 0.417656 0.452651 0.142078
H3    H     H_    0.364458 0.920044 0.536740 0.137079
H4    H     H_    0.629461 0.917657 0.452651 0.141845
H5    H     H_    0.837001 0.446792 0.421317 0.147183
H6    H     H_    0.144250 0.437236 0.567118 0.132723
H7    H     H_    0.337001 0.946791 0.421319 0.147222
H8    H     H_    0.644252 0.937245 0.567118 0.132863
H9    H     H_    0.527940 0.363721 0.927866 0.165726
H10   H     H_    0.628434 0.277766 0.037617 0.113685
H11   H     H_    0.974707 0.871525 0.940354 0.160373
H12   H     H_    0.322710 0.557060 0.450391 0.131858
H13   H     H_    0.084565 0.830855 0.049796 0.135661
H14   H     H_    0.413952 0.287175 0.960281 0.177366
H15   H     H_    0.617280 0.059231 0.032700 0.145407
H16   H     H_    0.884525 0.718457 0.954784 0.151502
H17   H     H_    0.118514 0.622172 0.042474 0.104149
H18   H     H_    0.437331 0.261021 0.076415 0.195345
H19   H     H_    0.570348 0.023471 0.921577 0.172891
H20   H     H_    0.905118 0.692668 0.071682 0.177799
H21   H     H_    0.090918 0.589613 0.927566 0.179273
H22   H     H_    0.489968 0.979800 0.948362 0.141622
H23   H     H_    0.178851 0.051618 0.537361 0.125184
H24   H     H_    0.436492 0.101391 0.068834 0.129917
H25   H     H_    0.022985 0.489010 0.941796 0.145639
H26   H     H_    0.935722 0.543171 0.062114 0.130023
H27   H     H_    0.544742 0.979544 0.057836 0.155038
H28   H     H_    0.394368 0.129769 0.956915 0.119137
H29   H     H_    0.062345 0.497949 0.055168 0.164116
H30   H     H_    0.900949 0.560664 0.948013 0.135154
H31   H     H_    0.647592 0.415903 0.569687 0.127544
H32   H     H_    0.350815 0.411058 0.443253 0.118780
H33   H     H_    0.147591 0.915896 0.569687 0.124479
H34   H     H_    0.822711 0.057057 0.450391 0.132028
H35   H     H_    0.850816 0.911056 0.443251 0.119025
H36   H     H_    0.632560 0.330361 0.462975 0.124366
H37   H     H_    0.363978 0.390537 0.557612 0.147319
H38   H     H_    0.132558 0.830365 0.462972 0.124325
H39   H     H_    0.863978 0.890525 0.557610 0.147424
H40   H     H_    0.646167 0.479133 0.430530 0.139621
H41   H     H_    0.328059 0.537098 0.567823 0.117520
H42   H     H_    0.146169 0.979137 0.430531 0.140074
H43   H     H_    0.828064 0.037090 0.567823 0.117657
H44   H     H_    0.335958 0.063731 0.540837 0.100708
H45   H     H_    0.820692 0.239476 0.477034 0.130802
H46   H     H_    0.656552 0.064205 0.447170 0.103841
H47   H     H_    0.835959 0.563734 0.540835 0.100703
H48   H     H_    0.156550 0.564205 0.447171 0.103807
H49   H     H_    0.267797 0.048764 0.428837 0.122396
H50   H     H_    0.700632 0.061481 0.566597 0.110320
H51   H     H_    0.767797 0.548763 0.428834 0.122317
H52   H     H_    0.200626 0.561477 0.566598 0.109620
H53   H     H_    0.812744 0.245429 0.591507 0.135299
H54   H     H_    0.191475 0.241589 0.417958 0.131325
H55   H     H_    0.312744 0.745429 0.591507 0.135011
H56   H     H_    0.184675 0.239863 0.532017 0.133711
H57   H     H_    0.691477 0.741587 0.417955 0.130816
H58   H     H_    0.720492 0.242605 0.582492 0.113436
H59   H     H_    0.283909 0.243824 0.429018 0.111162
H60   H     H_    0.220493 0.742601 0.582492 0.111200
H61   H     H_    0.783912 0.743822 0.429020 0.111134
H62   H     H_    0.737276 0.174370 0.472829 0.115964
H63   H     H_    0.273671 0.202749 0.544312 0.121300
H64   H     H_    0.237274 0.674371 0.472829 0.116017
H65   H     H_    0.773660 0.702738 0.544314 0.121070
H66   H     H_    0.703884 0.176821 0.899451 0.338292
H67   H     H_    0.320691 0.739475 0.477034 0.130614
H68   H     H_    0.479407 0.538235 0.054845 0.345444
H69   H     H_    0.143348 0.829812 0.852444 0.337089
H70   H     H_    0.893954 0.984154 0.068033 0.346291
H71   H     H_    0.684668 0.739872 0.532013 0.133628
H72   H     H_    0.864459 0.420045 0.536739 0.137219
O1    O     O_R   0.783100 0.287550 0.345460 -0.525516
O2    O     O_R   0.454350 0.284910 0.836260 -0.506140
O3    O     O_R   0.045650 0.784910 0.163740 -0.487391
O4    O     O_R   0.954350 0.784910 0.836260 -0.507975
O5    O     O_R   0.677950 0.374280 0.185410 -0.467450
O6    O     O_R   0.322050 0.374280 0.814590 -0.496666
O7    O     O_R   0.177950 0.874280 0.185410 -0.477438
O8    O     O_R   0.822050 0.874280 0.814590 -0.498418
O9    O     O_3   0.664670 0.164660 0.254930 -0.310943
O10   O     O_3   0.335330 0.164660 0.745070 -0.265648
O11   O     O_3   0.164670 0.664660 0.254930 -0.300121
O12   O     O_R   0.216900 0.287550 0.654540 -0.531057
O13   O     O_3   0.835330 0.664660 0.745070 -0.272080
O14   O     O_R   0.760020 0.037400 0.337700 -0.517650
O15   O     O_R   0.239980 0.037400 0.662300 -0.514332
O16   O     O_R   0.260020 0.537400 0.337700 -0.519631
O17   O     O_R   0.739980 0.537400 0.662300 -0.510602
O18   O     O_R   0.666600 0.921990 0.332020 -0.518311
O19   O     O_R   0.333400 0.921990 0.667980 -0.525302
O20   O     O_R   0.166600 0.421990 0.332020 -0.517910
O21   O     O_R   0.833400 0.421990 0.667980 -0.524719
O22   O     O_R   0.557260 0.082670 0.312540 -0.495301
O23   O     O_R   0.283100 0.787550 0.345460 -0.526316
O24   O     O_R   0.442740 0.082670 0.687460 -0.498798
O25   O     O_R   0.057260 0.582670 0.312540 -0.498991
O26   O     O_R   0.942740 0.582670 0.687460 -0.496847
O27   O     O_R   0.548410 0.285740 0.316480 -0.512491
O28   O     O_R   0.451590 0.285740 0.683520 -0.504302
O29   O     O_R   0.048410 0.785740 0.316480 -0.511439
O30   O     O_R   0.951590 0.785740 0.683520 -0.508059
O31   O     O_R   0.680500 0.375040 0.327000 -0.502370
O32   O     O_R   0.319500 0.375040 0.673000 -0.508925
O33   O     O_R   0.180500 0.875040 0.327000 -0.500137
O34   O     O_R   0.716900 0.787550 0.654540 -0.530738
O35   O     O_R   0.819500 0.875040 0.673000 -0.507869
O36   O     O_R   0.780350 0.286720 0.192720 -0.516827
O37   O     O_R   0.219650 0.286720 0.807280 -0.497661
O38   O     O_R   0.280350 0.786720 0.192720 -0.512707
O39   O     O_R   0.719650 0.786720 0.807280 -0.504739
O40   O     O_R   0.757470 0.036630 0.196110 -0.485710
O41   O     O_R   0.242530 0.036630 0.803890 -0.485082
O42   O     O_R   0.257470 0.536630 0.196110 -0.486168
O43   O     O_R   0.742530 0.536630 0.803890 -0.473923
O44   O     O_R   0.663840 0.921160 0.179280 -0.499292
O45   O     O_R   0.554710 0.081900 0.170950 -0.512461
O46   O     O_R   0.336160 0.921160 0.820720 -0.511418
O47   O     O_R   0.163840 0.421160 0.179280 -0.492076
O48   O     O_R   0.836160 0.421160 0.820720 -0.519837
O49   O     O_2   0.620038 0.325567 0.858027 -0.510310
O50   O     O_R   0.665592 0.177969 0.929837 -0.740540
O51   O     O_2   0.598126 0.481577 0.072773 -0.502084
O52   O     O_R   0.484766 0.452837 0.038226 -0.721382
O53   O     O_2   0.098781 0.954727 0.936354 -0.503497
O54   O     O_R   0.107274 0.784056 0.874872 -0.715457
O55   O     O_2   0.016863 0.997734 0.089168 -0.471372
O56   O     O_R   0.445290 0.081900 0.829050 -0.505849
O57   O     O_R   0.915258 0.910324 0.048948 -0.734173
O58   O     O_R   0.054710 0.581900 0.170950 -0.518155
O59   O     O_R   0.945290 0.581900 0.829050 -0.508856
O60   O     O_R   0.545650 0.284910 0.163740 -0.480156

loop_
_geom_bond_atom_site_label_1
_geom_bond_atom_site_label_2
_ccdc_geom_bond_type
C95   H12   S    
C58   C62   S    
Cr5   O12   S    
C46   H40   S    
C39   H25   S    
C17   C26   S    
C77   O2    A    
C7    H59   S    
C8    C26   S    
C32   C45   S    
C87   C93   T    
C4    H3    S    
C9    H57   S    
C1    O14   A    
C51   C74   S    
C9    C14   S    
C34   H30   S    
C27   H71   S    
C20   H6    S    
C85   C91   T    
Cr3   O7    S    
C23   H62   S    
C26   H67   S    
C22   H8    S    
C41   C86   S    
Cr2   O2    S    
C71   O34   A    
C63   C81   S    
C34   C40   S    
C50   C59   T    
C38   H18   S    
C83   O7    A    
C28   C29   S    
C76   O60   A    
C4    C21   S    
C47   C76   S    
C32   H28   S    
C68   H42   S    
C52   C61   T    
C6    H58   S    
C30   C31   S    
C22   H50   S    
C65   C83   S    
C54   C63   T    
C10   C94   S    
C28   C98   S    
C40   C49   S    
C72   O40   A    
Cr4   O13   S    
C30   C100  S    
C11   C24   S    
C33   H15   S    
C71   O35   A    
C49   C78   S    
C20   H52   S    
Cr10  O20   S    
C3    O57   S    
Cr12  O31   S    
C32   H14   S    
C41   O22   A    
C25   H63   S    
Cr8   O18   S    
Cr9   O56   S    
Cr12  O5    S    
C83   O38   A    
C67   O31   A    
C58   C66   T    
C46   H36   S    
C5    C22   S    
C88   C92   T    
C2    H48   S    
C18   C79   S    
C57   H37   S    
C64   C82   S    
C77   O56   A    
Cr6   O42   S    
C9    H61   S    
C10   C35   S    
Cr5   O41   S    
C4    C12   S    
C44   C87   S    
C5    C14   S    
Cr11  O21   S    
C74   O42   A    
C8    C12   S    
Cr9   O46   S    
C54   C59   S    
C78   O58   A    
C15   C23   S    
C40   H20   S    
C6    H53   S    
C15   C67   S    
C95   H32   S    
C55   C60   S    
C82   O6    A    
Cr11  O48   S    
C97   H35   S    
C69   O32   A    
Cr3   O11   S    
C5    H4    S    
C31   C49   S    
Cr1   O1    S    
C1    O18   A    
Cr2   O10   S    
C73   O46   A    
C94   H1    S    
Cr1   O9    S    
C7    C11   S    
C96   H23   S    
Cr7   O39   S    
Cr8   O45   S    
C25   H56   S    
Cr5   O10   S    
Cr4   O4    S    
C28   C45   S    
C70   O33   A    
C21   H49   S    
C29   C99   S    
C2    C20   S    
Cr12  O27   S    
Cr9   O19   S    
Cr3   O3    S    
Cr8   O22   S    
C52   C73   S    
Cr6   O23   S    
C82   O37   A    
Cr1   O14   S    
C35   O17   A    
C19   H51   S    
Cr8   O44   S    
C35   O21   A    
C70   O23   A    
C81   O36   A    
C57   H41   S    
C86   C89   T    
C69   O12   A    
C33   C37   S    
C13   O19   A    
C40   H26   S    
C66   C84   S    
Cr9   O24   S    
C15   C19   S    
C36   H29   S    
Cr4   O35   S    
C96   H33   S    
C8    H55   S    
Cr7   O34   S    
C99   O51   D    
C53   C62   T    
Cr10  O58   S    
C98   O50   S    
C26   H64   S    
C16   C20   S    
C81   O5    A    
C29   H10   S    
C80   O4    A    
C100  O53   D    
C43   C88   S    
C42   C85   S    
C68   C96   S    
C12   C13   S    
C42   O24   A    
C100  O54   S    
H68   O52   S    
C38   C47   S    
Cr3   O33   S    
Cr5   O15   S    
Cr9   O10   S    
Cr1   O40   S    
Cr2   O32   S    
C4    H44   S    
C7    H54   S    
C29   C47   S    
Cr6   O16   S    
Cr7   O13   S    
H69   O54   S    
C72   O44   A    
C18   C71   S    
C33   C47   S    
C44   O30   A    
C51   C60   T    
Cr10  O25   S    
C89   C91   S    
C94   H31   S    
C56   C65   T    
C37   C45   S    
C43   O29   A    
H70   O57   S    
Cr10  O11   S    
C19   H5    S    
C42   O28   A    
C9    C27   S    
C14   C97   S    
H66   O50   S    
C39   H21   S    
C79   H39   S    
C30   C48   S    
C16   C25   S    
Cr3   O29   S    
C24   O20   A    
C17   C68   S    
Cr11  O59   S    
C13   O15   A    
C18   C22   S    
C38   H24   S    
C79   C97   S    
C36   C39   S    
C18   C27   S    
C27   H65   S    
C90   H72   S    
C74   O47   A    
C84   O39   A    
C6    C10   S    
C45   C77   S    
C8    H60   S    
Cr7   O17   S    
Cr6   O11   S    
C1    C14   S    
C55   C64   T    
C16   C69   S    
C34   C48   S    
C32   C38   S    
C7    C25   S    
C80   O59   A    
C48   C80   S    
C75   O43   A    
Cr11  O26   S    
Cr4   O30   S    
C21   H7    S    
C19   C90   S    
C36   H17   S    
Cr11  O13   S    
C3    C31   S    
C73   O41   A    
C99   O52   S    
C2    H2    S    
Cr1   O36   S    
Cr2   O28   S    
Cr6   O38   S    
C98   O49   D    
C33   H27   S    
Cr5   O37   S    
C6    C23   S    
C23   H45   S    
C92   C93   S    
Cr2   O6    S    
C84   O8    A    
C44   O26   A    
C16   C57   S    
C46   C94   S    
C90   H47   S    
C75   O48   A    
C43   O25   A    
C17   C21   S    
Cr12  O9    S    
C68   H38   S    
Cr10  O47   S    
C79   H43   S    
C41   O27   A    
C97   H34   S    
C37   H19   S    
Cr7   O43   S    
Cr12  O60   S    
C10   C90   S    
C11   C95   S    
C30   H11   S    
C24   O16   A    
C34   H16   S    
C5    H46   S    
C57   C95   S    
C76   O45   A    
C31   H13   S    
C37   H22   S    
C12   C96   S    
C2    C11   S    
C78   O3    A    
C28   H9    S    
C15   C46   S    
Cr8   O9    S    
C50   C75   S    
C53   C72   S    
C17   C70   S    
C56   C61   S    
C36   C49   S    
C67   O1    A    
C3    O55   D    
C39   C48   S    
Cr4   O8    S    
