data_mof_unit_4124.cif
_audit_creation_date              2012-12-11T14:54:43-0500
_audit_creation_method            fapswitch 2.2
_symmetry_space_group_name_H-M    P1
_symmetry_Int_Tables_number       1
_space_group_crystal_system       triclinic
_cell_length_a                    19.012455
_cell_length_b                    10.886362
_cell_length_c                    18.83551
_cell_angle_alpha                 89.93094
_cell_angle_beta                  89.852709
_cell_angle_gamma                 90.035416
_cell_volume                      3898.49086007

loop_
_atom_site_label
_atom_site_type_symbol
_atom_type_description
_atom_site_fract_x
_atom_site_fract_y
_atom_site_fract_z
_atom_type_partial_charge
C1    C     C_R   0.729430 0.374451 0.645166 0.540471
C2    C     C_R   0.272006 0.372513 0.356089 0.542812
C3    C     C_R   0.229429 0.874449 0.645165 0.540469
C4    C     C_R   0.772006 0.872513 0.356089 0.542815
C5    C     C_3   0.540095 0.362475 0.453933 -0.277591
C6    C     C_3   0.551255 0.366993 0.533493 -0.247110
C7    C     C_3   0.040093 0.862488 0.453936 -0.277598
C8    C     C_3   0.051247 0.867004 0.533497 -0.247117
C9    C     C_R   0.690575 0.887110 0.536726 -0.143577
C10   C     C_R   0.276505 0.831060 0.455121 -0.165185
C11   C     C_R   0.190578 0.387096 0.536728 -0.143577
C12   C     C_R   0.776517 0.331073 0.455124 -0.165172
C13   C     C_R   0.696145 0.875685 0.463500 -0.158842
C14   C     C_R   0.272562 0.811334 0.527800 -0.152303
C15   C     C_R   0.196147 0.375673 0.463501 -0.158843
C16   C     C_R   0.772573 0.311346 0.527803 -0.152309
C17   C     C_R   0.761062 0.896680 0.430829 0.028558
C18   C     C_R   0.246584 0.904363 0.572731 0.012926
C19   C     C_R   0.261062 0.396682 0.430829 0.028556
C20   C     C_R   0.746588 0.404371 0.572733 0.012934
C21   C     C_R   0.820771 0.923146 0.472050 -0.132014
C22   C     C_R   0.224828 0.016555 0.545103 -0.144569
C23   C     C_R   0.320770 0.423160 0.472048 -0.132017
C24   C     C_R   0.724825 0.516558 0.545104 -0.144566
C25   C     C_R   0.815609 0.931806 0.544544 -0.145328
C26   C     C_R   0.227505 0.035082 0.472846 -0.120160
C27   C     C_R   0.315609 0.431818 0.544542 -0.145329
C28   C     C_R   0.727502 0.535083 0.472847 -0.120162
C29   C     C_R   0.750139 0.919094 0.577055 0.023427
C30   C     C_R   0.252525 0.942180 0.427653 0.032260
C31   C     C_R   0.250140 0.419093 0.577055 0.023427
C32   C     C_R   0.752528 0.442185 0.427654 0.032271
C33   C     C_R   0.556532 0.057500 0.979232 -0.131467
C34   C     C_R   0.537113 0.059988 0.050202 -0.128865
C35   C     C_R   0.056533 0.557501 0.979233 -0.131467
C36   C     C_R   0.037114 0.559989 0.050202 -0.128864
C37   C     C_R   0.507153 0.166394 0.079515 0.026355
C38   C     C_R   0.547504 0.161628 0.936655 0.029798
C39   C     C_R   0.007153 0.666394 0.079515 0.026356
C40   C     C_R   0.047504 0.661628 0.936655 0.029798
C41   C     C_R   0.503059 0.273763 0.038476 -0.139241
C42   C     C_R   0.523332 0.271492 0.967331 -0.133069
C43   C     C_R   0.003057 0.773763 0.038475 -0.139243
C44   C     C_R   0.023329 0.771490 0.967330 -0.133072
C45   C     C_R   0.530185 0.155816 0.647767 0.554531
C46   C     C_R   0.463050 0.153002 0.356916 0.548623
C47   C     C_R   0.030185 0.655816 0.647767 0.554535
C48   C     C_R   0.963060 0.653004 0.356912 0.548609
C49   C     C_R   0.786715 0.026591 0.972898 -0.125133
C50   C     C_R   0.185796 0.949627 0.040719 -0.136152
C51   C     C_R   0.286714 0.526592 0.972898 -0.125132
C52   C     C_R   0.685798 0.449639 0.040717 -0.136152
C53   C     C_R   0.788206 0.012515 0.045424 -0.136322
C54   C     C_R   0.181922 0.943561 0.968158 -0.133287
C55   C     C_R   0.288206 0.512515 0.045424 -0.136322
C56   C     C_R   0.681926 0.443574 0.968156 -0.133289
C57   C     C_R   0.750891 0.916454 0.076786 0.030528
C58   C     C_R   0.239888 0.903274 0.928152 0.034738
C59   C     C_R   0.250891 0.416454 0.076786 0.030527
C60   C     C_R   0.739890 0.403278 0.928151 0.034738
C61   C     C_R   0.707639 0.839950 0.035321 -0.137605
C62   C     C_R   0.302240 0.869203 0.962217 -0.142763
C63   C     C_R   0.207640 0.339949 0.035320 -0.137606
C64   C     C_R   0.802240 0.369199 0.962217 -0.142760
C65   C     C_R   0.705532 0.855119 0.962188 -0.153061
C66   C     C_R   0.307068 0.879871 0.035577 -0.137881
C67   C     C_R   0.205533 0.355118 0.962187 -0.153062
C68   C     C_R   0.807067 0.379867 0.035577 -0.137881
C69   C     C_R   0.746454 0.946755 0.930682 0.033930
C70   C     C_R   0.249130 0.923167 0.074768 0.030781
C71   C     C_R   0.246454 0.446755 0.930682 0.033929
C72   C     C_R   0.749130 0.423170 0.074767 0.030783
C73   C     C_R   0.741322 0.968179 0.647780 0.548019
C74   C     C_R   0.258995 0.971630 0.353392 0.539040
C75   C     C_R   0.241323 0.468179 0.647780 0.548018
C76   C     C_R   0.758996 0.471633 0.353393 0.539048
C77   C     C_R   0.728076 0.375330 0.853957 0.541188
C78   C     C_R   0.270087 0.378481 0.147712 0.549401
C79   C     C_R   0.228076 0.875329 0.853957 0.541188
C80   C     C_R   0.770087 0.878481 0.147712 0.549401
C81   C     C_R   0.563885 0.153100 0.860831 0.560732
C82   C     C_R   0.469372 0.157278 0.147172 0.550267
C83   C     C_R   0.063885 0.653100 0.860831 0.560731
C84   C     C_R   0.969372 0.657278 0.147172 0.550263
C85   C     C_R   0.740203 0.975390 0.855989 0.542131
C86   C     C_R   0.258720 0.970037 0.145969 0.549024
C87   C     C_R   0.240203 0.475390 0.855989 0.542130
C88   C     C_R   0.758720 0.470038 0.145969 0.549024
C89   C     C_R   0.477978 0.153229 0.433329 0.017374
C90   C     C_R   0.490321 0.165807 0.581971 0.013254
C91   C     C_R   0.977994 0.653230 0.433323 0.017376
C92   C     C_R   0.990324 0.665803 0.581968 0.013252
C93   C     C_R   0.485727 0.266004 0.467288 -0.010771
C94   C     C_R   0.495160 0.271428 0.539834 -0.015256
C95   C     C_R   0.985732 0.766005 0.467286 -0.010769
C96   C     C_R   0.995159 0.771427 0.539833 -0.015262
C97   C     C_R   0.463301 0.058059 0.550952 -0.005686
C98   C     C_R   0.467059 0.045399 0.476397 0.000519
C99   C     C_R   0.963316 0.558051 0.550944 -0.005684
C100  C     C_R   0.967084 0.545394 0.476389 0.000538
Cr1   Cr    Cr6+3 0.771950 0.169480 0.750100 1.004923
Cr2   Cr    Cr6+3 0.228050 0.169480 0.249900 1.007837
Cr3   Cr    Cr6+3 0.271950 0.669480 0.750100 1.004923
Cr4   Cr    Cr6+3 0.728050 0.669480 0.249900 1.007841
Cr5   Cr    Cr6+3 0.614930 0.323340 0.749170 1.007986
Cr6   Cr    Cr6+3 0.385070 0.323340 0.250830 1.013692
Cr7   Cr    Cr6+3 0.114930 0.823340 0.749170 1.007985
Cr8   Cr    Cr6+3 0.885070 0.823340 0.250830 1.013691
Cr9   Cr    Cr6+3 0.616590 0.010620 0.750610 1.003276
Cr10  Cr    Cr6+3 0.383410 0.010620 0.249390 1.004475
Cr11  Cr    Cr6+3 0.116590 0.510620 0.750610 1.003276
Cr12  Cr    Cr6+3 0.883410 0.510620 0.249390 1.004481
H1    H     H_    0.816839 0.101313 0.950061 0.137465
H2    H     H_    0.140196 0.982487 0.069643 0.128960
H3    H     H_    0.316838 0.601314 0.950061 0.137467
H4    H     H_    0.640200 0.482505 0.069640 0.128961
H5    H     H_    0.821504 0.072694 0.076500 0.125863
H6    H     H_    0.132317 0.967871 0.943807 0.130656
H7    H     H_    0.321503 0.572695 0.076500 0.125864
H8    H     H_    0.632322 0.467891 0.943804 0.130656
H9    H     H_    0.678686 0.764237 0.058692 0.136859
H10   H     H_    0.346818 0.834917 0.932316 0.122954
H11   H     H_    0.178688 0.264234 0.058692 0.136861
H12   H     H_    0.846816 0.334906 0.932317 0.122954
H13   H     H_    0.672708 0.795320 0.930414 0.119969
H14   H     H_    0.356781 0.859711 0.061006 0.131680
H15   H     H_    0.172709 0.295318 0.930414 0.119970
H16   H     H_    0.856778 0.359700 0.061007 0.131677
H17   H     H_    0.016781 0.948216 0.432191 0.136966
H18   H     H_    0.103774 0.832163 0.549299 0.173587
H19   H     H_    0.516787 0.448208 0.432188 0.136967
H20   H     H_    0.603782 0.332141 0.549291 0.173576
H21   H     H_    0.586511 0.327229 0.424205 0.144125
H22   H     H_    0.535412 0.455922 0.557628 0.137163
H23   H     H_    0.086513 0.827253 0.424211 0.144127
H24   H     H_    0.035396 0.955926 0.557633 0.137159
H25   H     H_    0.639151 0.877662 0.561041 0.137874
H26   H     H_    0.296865 0.759887 0.420581 0.115743
H27   H     H_    0.139155 0.377635 0.561045 0.137866
H28   H     H_    0.796882 0.259903 0.420584 0.115741
H29   H     H_    0.650180 0.851680 0.432598 0.115445
H30   H     H_    0.287880 0.722539 0.548659 0.145989
H31   H     H_    0.150183 0.351655 0.432601 0.115441
H32   H     H_    0.787896 0.222555 0.548663 0.145988
H33   H     H_    0.872271 0.936041 0.448536 0.144040
H34   H     H_    0.203680 0.087878 0.579104 0.127110
H35   H     H_    0.372270 0.436065 0.448534 0.144036
H36   H     H_    0.703672 0.587877 0.579103 0.127111
H37   H     H_    0.862164 0.955767 0.574623 0.132511
H38   H     H_    0.210409 0.122805 0.452162 0.144426
H39   H     H_    0.362163 0.455788 0.574620 0.132514
H40   H     H_    0.710399 0.622802 0.452162 0.144426
H41   H     H_    0.576227 0.972695 0.956881 0.129531
H42   H     H_    0.541724 0.976224 0.080952 0.129268
H43   H     H_    0.076229 0.472697 0.956882 0.129531
H44   H     H_    0.041726 0.476226 0.080953 0.129267
H45   H     H_    0.480195 0.356986 0.059912 0.129152
H46   H     H_    0.516958 0.353919 0.935794 0.127844
H47   H     H_    0.980191 0.856985 0.059911 0.129152
H48   H     H_    0.016953 0.853917 0.935792 0.127843
O1    O     O_R   0.787510 0.042610 0.670410 -0.524138
O2    O     O_R   0.212490 0.042610 0.329590 -0.525763
O3    O     O_R   0.287510 0.542610 0.670410 -0.524139
O4    O     O_R   0.712490 0.542610 0.329590 -0.525767
O5    O     O_R   0.556450 0.252890 0.823790 -0.505574
O6    O     O_R   0.443550 0.252890 0.176210 -0.501416
O7    O     O_R   0.056450 0.752890 0.823790 -0.505575
O8    O     O_R   0.943550 0.752890 0.176210 -0.501419
O9    O     O_R   0.545750 0.051070 0.830560 -0.516376
O10   O     O_R   0.454250 0.051070 0.169440 -0.523623
O11   O     O_R   0.045750 0.551070 0.830560 -0.516374
O12   O     O_R   0.954250 0.551070 0.169440 -0.523625
O13   O     O_R   0.681210 0.959150 0.825320 -0.522548
O14   O     O_R   0.318790 0.959150 0.174680 -0.504734
O15   O     O_R   0.181210 0.459150 0.825320 -0.522548
O16   O     O_R   0.818790 0.459150 0.174680 -0.504735
O17   O     O_3   0.667820 0.167810 0.749960 -0.264833
O18   O     O_3   0.332180 0.167810 0.250040 -0.243363
O19   O     O_3   0.167820 0.667810 0.749960 -0.264833
O20   O     O_3   0.832180 0.667810 0.250040 -0.243360
O21   O     O_R   0.765670 0.292090 0.675090 -0.505174
O22   O     O_R   0.234330 0.292090 0.324910 -0.508469
O23   O     O_R   0.265670 0.792090 0.675090 -0.505174
O24   O     O_R   0.734330 0.792090 0.324910 -0.508467
O25   O     O_R   0.670220 0.409020 0.668560 -0.524968
O26   O     O_R   0.329780 0.409020 0.331440 -0.530350
O27   O     O_R   0.170220 0.909020 0.668560 -0.524968
O28   O     O_R   0.829780 0.909020 0.331440 -0.530348
O29   O     O_R   0.556580 0.251590 0.674980 -0.498286
O30   O     O_R   0.443420 0.251590 0.325020 -0.499178
O31   O     O_R   0.056580 0.751590 0.674980 -0.498288
O32   O     O_R   0.943420 0.751590 0.325020 -0.499177
O33   O     O_R   0.545890 0.049670 0.670030 -0.521736
O34   O     O_R   0.454110 0.049670 0.329970 -0.533585
O35   O     O_R   0.045890 0.549670 0.670030 -0.521735
O36   O     O_R   0.954110 0.549670 0.329970 -0.533577
O37   O     O_R   0.681340 0.957860 0.676500 -0.505187
O38   O     O_R   0.318660 0.957860 0.323500 -0.512537
O39   O     O_R   0.181340 0.457860 0.676500 -0.505186
O40   O     O_R   0.818660 0.457860 0.323500 -0.512519
O41   O     O_R   0.787380 0.044010 0.830940 -0.522662
O42   O     O_R   0.212620 0.044010 0.169060 -0.526703
O43   O     O_R   0.287380 0.544010 0.830940 -0.522662
O44   O     O_R   0.712620 0.544010 0.169060 -0.526704
O45   O     O_R   0.765540 0.293390 0.823910 -0.507693
O46   O     O_R   0.234460 0.293390 0.176090 -0.506489
O47   O     O_R   0.265540 0.793390 0.823910 -0.507692
O48   O     O_R   0.734460 0.793390 0.176090 -0.506489
O49   O     O_R   0.670090 0.410410 0.829090 -0.534129
O50   O     O_R   0.329910 0.410410 0.170910 -0.522179
O51   O     O_R   0.170090 0.910410 0.829090 -0.534127
O52   O     O_R   0.829910 0.910410 0.170910 -0.522180
C101  C     C_3   0.435443 0.954919 0.597178 -0.365358
H49   H     H_    0.416349 0.990374 0.649045 0.146353
H50   H     H_    0.390088 0.910861 0.571295 0.138717
H51   H     H_    0.476693 0.884492 0.606214 0.142526
C102  C     C_3   0.465966 0.916423 0.445324 -0.363407
H52   H     H_    0.511005 0.904342 0.408348 0.141489
H53   H     H_    0.472804 0.842896 0.485346 0.099335
H54   H     H_    0.415524 0.899023 0.417920 0.177230
C103  C     C_3   0.935458 0.454902 0.597163 -0.365360
H55   H     H_    0.916344 0.490354 0.649023 0.146349
H56   H     H_    0.890117 0.410822 0.571266 0.138712
H57   H     H_    0.976715 0.384492 0.606213 0.142532
C104  C     C_3   0.966016 0.416416 0.445315 -0.363401
H58   H     H_    0.011051 0.404372 0.408327 0.141493
H59   H     H_    0.972889 0.342895 0.485340 0.099328
H60   H     H_    0.915567 0.398975 0.417926 0.177198

loop_
_geom_bond_atom_site_label_1
_geom_bond_atom_site_label_2
_ccdc_geom_bond_type
C58   C62   A    
C49   H1    S    
C82   O10   A    
C93   C94   A    
C12   C32   A    
C55   C59   A    
C63   H11   S    
C8    H24   S    
C34   C37   A    
C47   C92   S    
C14   C18   A    
Cr9   O37   S    
C95   C96   A    
C8    C96   S    
C86   O42   A    
C65   H13   S    
C14   H30   S    
C97   C98   A    
C69   C85   S    
C7    C8    S    
C46   C89   S    
C55   H7    S    
C101  H49   S    
C102  H54   S    
C79   O51   A    
C50   C54   A    
C51   C71   A    
C37   C41   A    
Cr11  O15   S    
C64   C68   A    
C75   O3    A    
C16   H32   S    
C35   H43   S    
C39   C84   S    
C38   C42   A    
C103  H57   S    
C43   H47   S    
C2    O22   A    
C5    C6    S    
C30   C74   S    
C53   H5    S    
C79   O47   A    
Cr3   O19   S    
Cr10  O38   S    
Cr10  O18   S    
C2    O26   A    
Cr6   O50   S    
Cr7   O27   S    
C92   C96   A    
C104  H60   S    
Cr5   O49   S    
Cr8   O20   S    
C3    C18   S    
C61   H9    S    
C41   C42   A    
C5    H19   S    
Cr5   O25   S    
Cr8   O52   S    
C9    C13   A    
Cr12  O36   S    
C11   H27   S    
C77   O49   A    
Cr11  O39   S    
C9    H25   S    
C22   H34   S    
C6    C94   S    
C48   C91   S    
C83   O11   A    
Cr10  O34   S    
C85   O13   A    
C12   H28   S    
Cr9   O33   S    
C23   C27   A    
C91   C100  A    
Cr3   O43   S    
C78   O50   A    
C90   C97   A    
C67   C71   A    
C85   O41   A    
C77   O45   A    
C80   O52   A    
Cr7   O19   S    
C52   H4    S    
Cr8   O8    S    
C11   C31   A    
C97   C101  S    
C48   O36   A    
C25   C29   A    
C56   H8    S    
C40   C83   S    
C87   O15   A    
C42   H46   S    
C11   C15   A    
C46   O30   A    
Cr3   O47   S    
C59   C78   S    
C87   O43   A    
C72   C88   S    
Cr9   O9    S    
C90   C94   A    
Cr7   O7    S    
C75   O39   A    
Cr10  O14   S    
C45   O33   A    
C63   C67   A    
C60   C77   S    
C7    H17   S    
C62   C66   A    
C27   C31   A    
Cr2   O22   S    
C12   C16   A    
C28   C32   A    
Cr11  O19   S    
Cr6   O26   S    
C6    H20   S    
C15   H31   S    
C76   O40   A    
C74   O2    A    
C53   C57   A    
C19   C23   A    
C39   C43   A    
C51   C55   A    
C102  H52   S    
C64   H12   S    
C83   O7    A    
C1    O21   A    
C88   O44   A    
C74   O38   A    
C66   H14   S    
C46   O34   A    
C73   O37   A    
C68   C72   A    
C86   O14   A    
C35   C36   A    
C21   H33   S    
C15   C19   A    
C43   C44   A    
C78   O46   A    
C7    H23   S    
Cr12  O20   S    
C52   C72   A    
C67   H15   S    
C103  H55   S    
C10   C30   A    
C73   O1    A    
C99   C100  A    
C26   H38   S    
C16   C20   A    
C54   C58   A    
C33   C34   A    
C5    H21   S    
C4    O24   A    
C57   C61   A    
C45   C90   S    
Cr2   O46   S    
C71   C87   S    
Cr1   O45   S    
C58   C79   S    
C41   H45   S    
C4    C17   S    
Cr10  O10   S    
C45   O29   A    
C80   O48   A    
C57   C80   S    
C26   C30   A    
C34   H42   S    
C81   O9    A    
C54   H6    S    
C38   C81   S    
C8    H18   S    
C68   H16   S    
C44   H48   S    
Cr3   O23   S    
C37   C82   S    
C76   O4    A    
Cr6   O30   S    
Cr12  O16   S    
C70   C86   S    
Cr4   O44   S    
C31   C75   S    
C62   H10   S    
Cr1   O21   S    
Cr2   O2    S    
C36   H44   S    
C82   O6    A    
C101  H51   S    
C47   O35   A    
C65   C69   A    
C21   C25   A    
C1    C20   S    
C27   H39   S    
C104  H58   S    
C2    C19   S    
C18   C22   A    
C59   C63   A    
C13   H29   S    
Cr8   O28   S    
C36   C39   A    
C24   C28   A    
C25   H37   S    
Cr5   O17   S    
C99   C103  S    
C84   O12   A    
C3    O27   A    
C32   C76   S    
C5    C93   S    
Cr11  O11   S    
C47   O31   A    
C28   H40   S    
C9    C29   A    
C102  H53   S    
Cr12  O40   S    
C7    C95   S    
C66   C70   A    
Cr3   O3    S    
C33   C38   A    
C88   O16   A    
C13   C17   A    
C89   C98   A    
C60   C64   A    
C1    O25   A    
C4    O28   A    
Cr1   O1    S    
C35   C40   A    
C50   C70   A    
C101  H50   S    
C6    H22   S    
Cr1   O41   S    
C56   C60   A    
Cr7   O51   S    
Cr4   O4    S    
Cr4   O20   S    
C23   H35   S    
Cr6   O6    S    
Cr2   O18   S    
C104  H59   S    
Cr5   O29   S    
Cr5   O5    S    
Cr9   O13   S    
Cr4   O48   S    
C89   C93   A    
C100  C104  S    
C20   C24   A    
C51   H3    S    
C48   O32   A    
C49   C53   A    
Cr1   O17   S    
C91   C95   A    
C10   C14   A    
C61   C65   A    
C40   C44   A    
C29   C73   S    
C84   O8    A    
Cr2   O42   S    
C103  H56   S    
C22   C26   A    
C98   C102  S    
Cr7   O31   S    
Cr9   O17   S    
C81   O5    A    
Cr8   O32   S    
Cr4   O24   S    
C49   C69   A    
C10   H26   S    
C50   H2    S    
C33   H41   S    
C3    O23   A    
Cr6   O18   S    
C24   H36   S    
C52   C56   A    
C92   C99   A    
Cr11  O35   S    
Cr12  O12   S    
C17   C21   A    
