data_mof_unit_2999.cif
_audit_creation_date              2012-12-10T17:53:44-0500
_audit_creation_method            fapswitch 2.2
_symmetry_space_group_name_H-M    P1
_symmetry_Int_Tables_number       1
_space_group_crystal_system       triclinic
_cell_length_a                    10.903042
_cell_length_b                    11.721232
_cell_length_c                    10.442858
_cell_angle_alpha                 90.0
_cell_angle_beta                  91.083755
_cell_angle_gamma                 90.000079
_cell_volume                      1334.32807522

loop_
_atom_site_label
_atom_site_type_symbol
_atom_type_description
_atom_site_fract_x
_atom_site_fract_y
_atom_site_fract_z
_atom_type_partial_charge
C1    C     C_R   0.500000 0.283282 0.500000 0.839284
C2    C     C_3   0.121706 0.524977 0.494888 0.083852
C3    C     C_3   0.878294 0.524976 0.505112 0.083852
C4    C     C_1   0.500000 0.838151 0.500000 -0.206245
C5    C     C_1   0.500000 0.940410 0.500000 -0.040092
C6    C     C_R   0.259709 0.511891 0.498339 0.769600
C7    C     C_R   0.740291 0.511891 0.501661 0.769600
C8    C     C_1   0.500000 0.500174 0.071990 0.055555
C9    C     C_1   0.500000 0.500174 0.928010 0.055555
C10   C     C_R   0.500000 0.716711 0.500000 0.844356
C11   C     C_1   0.500000 0.161944 0.500000 -0.203110
C12   C     C_3   0.074461 0.453598 0.611597 -0.385272
C13   C     C_3   0.065309 0.459574 0.378057 -0.422292
C14   C     C_3   0.934691 0.459574 0.621942 -0.422292
C15   C     C_3   0.925539 0.453598 0.388402 -0.385272
C16   C     C_1   0.500000 0.059751 0.500000 -0.013588
C17   C     C_3   0.076427 0.658638 0.497092 -0.013965
C18   C     C_3   0.923574 0.658638 0.502908 -0.013965
Cu1   Cu    Cu3+1 0.500000 0.500000 0.625300 0.967537
Cu2   Cu    Cu3+1 0.500000 0.500000 0.374700 0.967537
H1    H     H_    0.120042 0.473624 0.704297 0.179895
H2    H     H_    0.088994 0.492992 0.283798 0.154513
H3    H     H_    0.911006 0.492991 0.716202 0.154513
H4    H     H_    0.879958 0.473625 0.295703 0.179895
H5    H     H_    0.100131 0.362299 0.598306 0.161956
H6    H     H_    0.102086 0.370867 0.376261 0.167725
H7    H     H_    0.897913 0.370866 0.623738 0.167724
H8    H     H_    0.899869 0.362299 0.401692 0.161956
N1    N     N_1   0.500000 0.499990 0.186410 -0.149001
N2    N     N_1   0.500000 0.499990 0.813590 -0.149001
O1    O     O_R   0.500000 0.337200 0.605810 -0.566817
O2    O     O_R   0.500000 0.337200 0.394190 -0.566817
O3    O     O_R   0.317690 0.499990 0.605810 -0.570240
O4    O     O_R   0.317690 0.499990 0.394190 -0.603376
O5    O     O_R   0.682310 0.499990 0.605810 -0.603375
O6    O     O_R   0.682310 0.499990 0.394190 -0.570240
O7    O     O_R   0.500000 0.662810 0.605810 -0.565128
O8    O     O_R   0.500000 0.662810 0.394190 -0.565128
C19   C     C_R   0.140886 0.713253 0.621435 0.081037
C20   C     C_R   0.233829 0.797876 0.612823 -0.159559
C21   C     C_R   0.288706 0.847550 0.721431 -0.115900
C22   C     C_R   0.255744 0.813340 0.842974 -0.107607
C23   C     C_R   0.165330 0.731408 0.856678 -0.135041
C24   C     C_R   0.108552 0.683247 0.748651 -0.103923
H9    H     H_    0.265152 0.828808 0.522526 0.147863
H10   H     H_    0.357327 0.913337 0.711615 0.138777
H11   H     H_    0.299287 0.851693 0.926188 0.110767
H12   H     H_    0.136882 0.706504 0.951442 0.126067
H13   H     H_    0.034243 0.627140 0.768319 0.122721
C25   C     C_R   0.121463 0.733957 0.376922 0.033336
C26   C     C_R   0.205362 0.697614 0.282469 -0.151228
C27   C     C_R   0.263141 0.773335 0.199598 -0.135000
C28   C     C_R   0.233014 0.888117 0.199761 -0.118652
C29   C     C_R   0.139681 0.925571 0.277241 -0.129360
C30   C     C_R   0.083467 0.850043 0.361300 -0.139221
H14   H     H_    0.224118 0.611860 0.260996 0.160241
H15   H     H_    0.329578 0.741710 0.132464 0.128958
H16   H     H_    0.277205 0.946730 0.135220 0.117848
H17   H     H_    0.109029 0.013301 0.271063 0.123063
H18   H     H_    0.004978 0.884335 0.405863 0.129968
C31   C     C_R   0.878538 0.733956 0.623078 0.033336
C32   C     C_R   0.916533 0.850043 0.638700 -0.139221
C33   C     C_R   0.860319 0.925571 0.722760 -0.129359
C34   C     C_R   0.766987 0.888116 0.800241 -0.118653
C35   C     C_R   0.736860 0.773334 0.800404 -0.135000
C36   C     C_R   0.794639 0.697613 0.717533 -0.151226
H19   H     H_    0.995022 0.884335 0.594137 0.129968
H20   H     H_    0.890972 0.013301 0.728938 0.123063
H21   H     H_    0.722796 0.946729 0.864782 0.117848
H22   H     H_    0.670423 0.741709 0.867538 0.128958
H23   H     H_    0.775883 0.611858 0.739005 0.160240
C37   C     C_R   0.859114 0.713253 0.378566 0.081036
C38   C     C_R   0.891449 0.683248 0.251349 -0.103923
C39   C     C_R   0.834671 0.731410 0.143322 -0.135042
C40   C     C_R   0.744257 0.813341 0.157027 -0.107608
C41   C     C_R   0.711294 0.847550 0.278570 -0.115900
C42   C     C_R   0.766171 0.797875 0.387178 -0.159558
H24   H     H_    0.965758 0.627141 0.231681 0.122721
H25   H     H_    0.863120 0.706507 0.048558 0.126068
H26   H     H_    0.700715 0.851695 0.073813 0.110767
H27   H     H_    0.642672 0.913337 0.288387 0.138777
H28   H     H_    0.734848 0.828806 0.477476 0.147862

loop_
_geom_bond_atom_site_label_1
_geom_bond_atom_site_label_2
_ccdc_geom_bond_type
C24   H13   S    
C21   C22   A    
Cu1   Cu2   S    
C1    C11   S    
C23   C24   A    
Cu1   O1    S    
C28   C29   A    
C37   C42   A    
C32   H19   S    
C10   O7    A    
C8    N1    T    
C3    C7    S    
C17   C19   S    
C35   H22   S    
C1    O1    A    
C3    C18   S    
C26   H14   S    
C7    O6    A    
C2    C13   S    
C5    C16   S    
Cu1   O7    S    
C33   H20   S    
C31   C36   A    
C8    C9    S    
C21   H10   S    
C14   H7    S    
C23   H12   S    
C29   H17   S    
Cu2   O4    S    
C2    C12   S    
C30   H18   S    
C2    C17   S    
C2    C6    S    
C17   C18   S    
Cu2   N1    S    
C38   C39   A    
C18   C37   S    
C20   H9    S    
C39   C40   A    
C26   C27   A    
C41   C42   A    
Cu1   O3    S    
C19   C20   A    
C4    C5    T    
C12   H1    S    
C1    O2    A    
C6    O4    A    
C14   H3    S    
C41   H27   S    
C40   C41   A    
C32   C33   A    
Cu2   O8    S    
C11   C16   T    
C36   H23   S    
C38   H24   S    
C25   C26   A    
C34   H21   S    
C3    C14   S    
C9    N2    T    
C15   H4    S    
C12   C14   S    
C39   H25   S    
C13   C15   S    
C13   H6    S    
C22   C23   A    
C4    C10   S    
C3    C15   S    
C27   C28   A    
Cu2   O2    S    
C29   C30   A    
C20   C21   A    
C7    O5    A    
C37   C38   A    
C17   C25   S    
C28   H16   S    
C18   C31   S    
C19   C24   A    
C25   C30   A    
C6    O3    A    
C12   H5    S    
C10   O8    A    
C34   C35   A    
Cu1   O5    S    
C15   H8    S    
C42   H28   S    
C13   H2    S    
C22   H11   S    
C31   C32   A    
C27   H15   S    
C33   C34   A    
Cu2   O6    S    
C40   H26   S    
C35   C36   A    
Cu1   N2    S    
