data_mof_unit_1597.cif
_audit_creation_date              2012-12-10T17:48:47-0500
_audit_creation_method            fapswitch 2.2
_symmetry_space_group_name_H-M    P1
_symmetry_Int_Tables_number       1
_space_group_crystal_system       triclinic
_cell_length_a                    15.734144
_cell_length_b                    10.615761
_cell_length_c                    9.979908
_cell_angle_alpha                 89.775903
_cell_angle_beta                  89.750831
_cell_angle_gamma                 93.740656
_cell_volume                      1663.36143423

loop_
_atom_site_label
_atom_site_type_symbol
_atom_type_description
_atom_site_fract_x
_atom_site_fract_y
_atom_site_fract_z
_atom_type_partial_charge
C1    C     C_R   0.504062 0.261332 0.500034 0.869551
C2    C     C_R   0.715361 0.084189 0.675117 -0.121297
C3    C     C_R   0.715313 0.953083 0.674059 -0.115842
C4    C     C_R   0.338738 0.502178 0.500160 0.904234
C5    C     C_R   0.647542 0.881421 0.616778 -0.186415
C6    C     C_R   0.578042 0.940731 0.560169 0.096707
C7    C     C_R   0.578174 0.072805 0.560987 0.088663
C8    C     C_R   0.509467 0.129315 0.499782 -0.086844
C9    C     C_R   0.444243 0.059519 0.434690 -0.187595
C10   C     C_R   0.443908 0.930817 0.434454 -0.197922
C11   C     C_R   0.508968 0.872327 0.498845 -0.093048
C12   C     C_3   0.943731 0.372151 0.558827 -0.467696
C13   C     C_R   0.385030 0.341048 0.150975 -0.127250
C14   C     C_R   0.321315 0.266072 0.094034 -0.190602
C15   C     C_R   0.314850 0.261896 0.958154 -0.164308
C16   C     C_R   0.502711 0.739363 0.499706 0.857221
C17   C     C_R   0.373473 0.330251 0.874894 -0.014467
C18   C     C_R   0.439921 0.418362 0.930365 0.113723
C19   C     C_R   0.442125 0.420529 0.075483 0.161513
C20   C     C_R   0.555393 0.575863 0.070195 -0.095916
C21   C     C_R   0.555505 0.575742 0.927810 -0.097102
C22   C     C_R   0.661392 0.500619 0.499694 0.867773
C23   C     C_3   0.917093 0.497949 0.496587 0.168166
C24   C     C_3   0.042195 0.366330 0.552993 0.135102
C25   C     C_3   0.051023 0.524080 0.352756 -0.059876
C26   C     C_3   0.951883 0.511060 0.349646 -0.202538
C27   C     C_1   0.750106 0.499321 0.499113 -0.171437
C28   C     C_3   0.082884 0.495865 0.497711 0.155904
C29   C     C_1   0.931273 0.733235 0.538141 0.161869
C30   C     C_1   0.064684 0.258973 0.469078 0.249504
C31   C     C_1   0.356047 0.288965 0.740790 0.315617
C32   C     C_1   0.918446 0.405220 0.264877 0.259549
C33   C     C_3   0.955946 0.608368 0.584860 -0.154387
C34   C     C_3   0.054189 0.604295 0.588333 -0.474136
C35   C     C_1   0.825313 0.498296 0.498267 -0.074144
C36   C     C_1   0.174588 0.498784 0.499577 -0.010358
C37   C     C_1   0.249925 0.500915 0.500405 -0.120287
C38   C     C_R   0.647641 0.144077 0.618867 -0.180403
H1    H     H_    0.910606 0.290045 0.507271 0.180225
H2    H     H_    0.386862 0.333147 0.256170 0.211427
H3    H     H_    0.277339 0.208531 0.156164 0.177982
H4    H     H_    0.264079 0.198654 0.917949 0.179058
H5    H     H_    0.601039 0.638084 0.874094 0.142411
H6    H     H_    0.070041 0.624955 0.330412 0.152629
H7    H     H_    0.928969 0.598238 0.303625 0.139849
H8    H     H_    0.074980 0.591117 0.693464 0.219883
H9    H     H_    0.086249 0.695999 0.555070 0.185671
H10   H     H_    0.931178 0.596087 0.689126 0.158487
H11   H     H_    0.920993 0.365839 0.664485 0.200469
H12   H     H_    0.392539 0.104930 0.386622 0.150689
H13   H     H_    0.651004 0.246009 0.619468 0.149742
H14   H     H_    0.768375 0.139742 0.718532 0.147454
H15   H     H_    0.768286 0.906779 0.716666 0.148003
H16   H     H_    0.650942 0.780011 0.615397 0.139778
H17   H     H_    0.391903 0.876377 0.386450 0.157929
H18   H     H_    0.600915 0.638362 0.122562 0.147054
I1    I     I_    0.088634 0.322059 0.750942 -0.390231
I2    I     I_    0.116278 0.434256 0.189074 -0.345529
N1    N     N_R   0.499210 0.498800 0.142780 -0.121253
N2    N     N_R   0.499180 0.498720 0.857170 -0.117962
N3    N     N_1   0.911908 0.830886 0.501635 -0.193503
N4    N     N_1   0.082162 0.174210 0.404186 -0.167108
N5    N     N_1   0.335695 0.248365 0.637288 -0.232108
N6    N     N_1   0.891987 0.322460 0.198761 -0.169731
O1    O     O_R   0.500000 0.316780 0.614690 -0.624535
O2    O     O_R   0.499990 0.316750 0.385360 -0.639982
O3    O     O_R   0.377150 0.500020 0.614720 -0.609784
O4    O     O_R   0.377140 0.499990 0.385380 -0.629551
O5    O     O_R   0.500010 0.683250 0.614640 -0.615576
O6    O     O_R   0.500000 0.683220 0.385310 -0.610630
O7    O     O_R   0.622860 0.500010 0.614620 -0.630554
O8    O     O_R   0.622850 0.499980 0.385280 -0.604453
Zn1   Zn    Zn3+2 0.500010 0.500020 0.653130 0.952616
Zn2   Zn    Zn3+2 0.499990 0.499980 0.346870 0.949912

loop_
_geom_bond_atom_site_label_1
_geom_bond_atom_site_label_2
_ccdc_geom_bond_type
O6    Zn2   S    
C4    O3    A    
C1    O1    A    
C16   O6    A    
C26   C32   S    
C6    C7    A    
O3    Zn1   S    
C31   N5    T    
C1    C8    S    
C9    C10   A    
C12   C24   S    
N1    Zn2   S    
C20   H18   S    
C27   C35   T    
C2    C38   A    
C3    C5    A    
C12   H1    S    
C17   C18   A    
C28   C34   S    
C7    C8    A    
C13   C14   A    
C4    C37   S    
C20   N1    A    
O5    Zn1   S    
C10   H17   S    
C3    H15   S    
C12   C23   S    
C32   N6    T    
C2    H14   S    
C14   H3    S    
C34   H8    S    
N2    Zn1   S    
C25   H6    S    
C22   O8    A    
C36   C37   T    
C7    C38   A    
C33   C34   S    
C23   C33   S    
C2    C3    A    
C23   C35   S    
C22   C27   S    
C30   N4    T    
C5    C6    A    
C17   C31   S    
C29   N3    T    
C12   H11   S    
C10   C11   A    
C13   C19   A    
C24   C30   S    
O4    Zn2   S    
C38   H13   S    
O2    Zn2   S    
C29   C33   S    
C22   O7    A    
O1    Zn1   S    
C20   C21   A    
C28   C36   S    
C21   N2    A    
O8    Zn2   S    
C18   C19   A    
C25   I2    S    
C23   C26   S    
O7    Zn1   S    
C6    C11   A    
C15   C17   A    
C33   H10   S    
C18   N2    A    
C14   C15   A    
C8    C9    A    
C13   H2    S    
C5    H16   S    
C34   H9    S    
C26   H7    S    
C19   N1    A    
C25   C26   S    
C21   H5    S    
C4    O4    A    
C16   O5    A    
C11   C16   S    
C9    H12   S    
C24   C28   S    
C15   H4    S    
C24   I1    S    
C25   C28   S    
C1    O2    A    
