data_mof_unit_509.cif
_audit_creation_date              2012-12-10T18:57:09-0500
_audit_creation_method            fapswitch 2.2
_symmetry_space_group_name_H-M    P1
_symmetry_Int_Tables_number       1
_space_group_crystal_system       triclinic
_cell_length_a                    10.807465
_cell_length_b                    10.053964
_cell_length_c                    11.045889
_cell_angle_alpha                 88.774805
_cell_angle_beta                  89.638244
_cell_angle_gamma                 84.520726
_cell_volume                      1194.45450327

loop_
_atom_site_label
_atom_site_type_symbol
_atom_type_description
_atom_site_fract_x
_atom_site_fract_y
_atom_site_fract_z
_atom_type_partial_charge
C1    C     C_R   0.259162 0.504340 0.510978 0.979873
C2    C     C_R   0.740971 0.493462 0.506271 0.945819
C3    C     C_R   0.603814 0.056742 0.524050 0.234855
C4    C     C_R   0.406994 0.084409 0.442910 0.207819
C5    C     C_R   0.588847 0.923124 0.555880 0.145001
C6    C     C_R   0.403705 0.942121 0.449408 0.226753
C7    C     C_R   0.511559 0.499430 0.260306 0.949405
C8    C     C_R   0.511791 0.497296 0.738610 1.012345
C9    C     C_R   0.489010 0.608298 0.057337 -0.116436
C10   C     C_R   0.482216 0.602642 0.933871 -0.116112
C11   C     C_R   0.535738 0.498378 0.127227 -0.221447
C12   C     C_R   0.533740 0.494028 0.869756 -0.197525
C13   C     C_R   0.606204 0.391184 0.065149 0.337551
C14   C     C_R   0.609899 0.392666 0.934753 0.332259
C15   C     C_3   0.357754 0.681502 0.928079 0.420381
C16   C     C_3   0.373173 0.701337 0.065227 0.347166
C17   C     C_R   0.081524 0.375636 0.557466 0.127219
C18   C     C_R   0.956058 0.363686 0.536100 0.175591
C19   C     C_R   0.874202 0.481772 0.534328 -0.234651
C20   C     C_R   0.125464 0.503365 0.541565 -0.197440
C21   C     C_R   0.917314 0.588140 0.594051 0.119133
C22   C     C_R   0.039447 0.614033 0.571719 0.186671
N1    N     N_R   0.500000 0.857200 0.500000 -0.154136
N2    N     N_R   0.500000 0.142810 0.500000 -0.169198
O1    O     O_R   0.316770 0.614620 0.499990 -0.588522
O2    O     O_R   0.683230 0.614620 0.500010 -0.621205
O3    O     O_R   0.316800 0.385290 0.500000 -0.614796
O4    O     O_R   0.683200 0.385290 0.500000 -0.548372
O5    O     O_R   0.500000 0.614690 0.316780 -0.576110
O6    O     O_R   0.500000 0.614690 0.683220 -0.614480
O7    O     O_R   0.500020 0.385360 0.316780 -0.546511
O8    O     O_R   0.499980 0.385360 0.683220 -0.554075
Zn1   Zn    Zn3+2 0.500000 0.653120 0.500000 1.078298
Zn2   Zn    Zn3+2 0.500000 0.346880 0.500000 1.128409
S1    S     S_3+6 0.672131 0.250169 0.151694 0.123259
O9    O     O_2   0.729615 0.299522 0.263774 -0.342555
O10   O     O_2   0.564983 0.172491 0.186169 -0.187743
O11   O     O_3   0.779245 0.141420 0.087170 -0.419913
H1    H     H_    0.857005 0.146593 0.133136 0.393633
S2    S     S_3+6 0.711968 0.272834 0.856882 0.096860
O12   O     O_2   0.666696 0.136961 0.873785 -0.172489
O13   O     O_2   0.720299 0.303453 0.724667 -0.327408
O14   O     O_3   0.857093 0.272991 0.911194 -0.502051
H2    H     H_    0.908098 0.205550 0.863467 0.404693
I1    I     I_    0.345417 0.856599 0.809461 -0.032717
I2    I     I_    0.229171 0.626714 0.181640 -0.107564
S3    S     S_3+6 0.239683 0.575061 0.890328 0.041858
O15   O     O_2   0.114711 0.645048 0.920471 -0.230960
O16   O     O_2   0.246292 0.548644 0.758269 -0.344260
O17   O     O_3   0.260611 0.427291 0.965599 -0.531009
H3    H     H_    0.186570 0.380929 0.946217 0.414947
S4    S     S_3+6 0.420295 0.863328 0.102453 0.099285
O18   O     O_2   0.309012 0.964909 0.100389 -0.203243
O19   O     O_2   0.478944 0.857769 0.224672 -0.283698
O20   O     O_3   0.528035 0.912864 0.004995 -0.446470
H4    H     H_    0.605745 0.856734 0.025457 0.384363
I3    I     I_    0.183556 0.224929 0.670838 -0.143694
I4    I     I_    0.904531 0.169268 0.531966 -0.116234
I5    I     I_    0.877933 0.569049 0.782878 -0.089334
I6    I     I_    0.074540 0.800799 0.639718 -0.082342
I7    I     I_    0.713890 0.988712 0.370519 -0.040990
I8    I     I_    0.288713 0.197268 0.312167 -0.038993
I9    I     I_    0.681448 0.853667 0.712025 -0.103720
I10   I     I_    0.238704 0.876298 0.385800 -0.095043

loop_
_geom_bond_atom_site_label_1
_geom_bond_atom_site_label_2
_ccdc_geom_bond_type
C17   I3    S    
N1    Zn1   S    
C7    C11   S    
O20   H4    S    
C21   I5    S    
C7    O5    A    
C4    I8    S    
S3    O16   D    
C11   C13   A    
C9    C10   A    
O2    Zn1   S    
S1    O9    D    
C5    N1    A    
S4    O20   S    
C15   S3    S    
C8    C12   S    
C8    O6    A    
C17   C20   A    
O1    Zn1   S    
S2    O13   D    
C17   C18   A    
O7    Zn2   S    
O4    Zn2   S    
C2    O2    A    
C21   C22   A    
C1    O1    A    
C9    C11   A    
C3    N2    A    
C16   S4    S    
C10   C12   A    
O14   H2    S    
C6    N1    A    
S2    O12   D    
C19   C21   A    
C9    C16   S    
C12   C14   A    
C13   S1    S    
S3    O17   S    
C10   C15   S    
C3    I7    S    
O3    Zn2   S    
C22   I6    S    
O11   H1    S    
C4    N2    A    
C7    O7    A    
C20   C22   A    
C14   S2    S    
C15   C16   S    
C8    O8    A    
O5    Zn1   S    
S1    O11   S    
S4    O18   D    
C5    I9    S    
C4    C6    A    
C18   C19   A    
C16   I2    S    
C1    O3    A    
C15   I1    S    
C1    C20   S    
C2    O4    A    
O17   H3    S    
O6    Zn1   S    
S1    O10   D    
C2    C19   S    
C13   C14   A    
C18   I4    S    
S2    O14   S    
N2    Zn2   S    
S3    O15   D    
S4    O19   D    
C3    C5    A    
C6    I10   S    
O8    Zn2   S    
