data_mof_unit_1420.cif
_audit_creation_date              2013-03-05T15:51:28-0500
_audit_creation_method            fapswitch 2.2
_symmetry_space_group_name_H-M    P1
_symmetry_Int_Tables_number       1
_space_group_crystal_system       triclinic
_cell_length_a                    12.033449
_cell_length_b                    12.936165
_cell_length_c                    17.00282
_cell_angle_alpha                 90.651392
_cell_angle_beta                  81.380161
_cell_angle_gamma                 90.961753
_cell_volume                      2616.40248603

loop_
_atom_site_label
_atom_site_type_symbol
_atom_site_description
_atom_site_fract_x
_atom_site_fract_y
_atom_site_fract_z
_atom_type_partial_charge
O1    O     O_R   0.421320 0.658850 0.503920 -0.590857
O2    O     O_R   0.578680 0.341150 0.496080 -0.565220
O3    O     O_R   0.609840 0.646370 0.494500 -0.584764
O4    O     O_R   0.390160 0.353630 0.505500 -0.610949
C1    C     C_R   0.520456 0.699836 0.493031 1.043630
C2    C     C_R   0.479477 0.300310 0.501756 0.961714
O5    O     O_R   0.394600 0.506990 0.621070 -0.535855
O6    O     O_R   0.605400 0.493010 0.378930 -0.549937
O7    O     O_R   0.583120 0.494520 0.611640 -0.633987
O8    O     O_R   0.416880 0.505480 0.388360 -0.624882
C3    C     C_R   0.485081 0.504937 0.653080 0.997085
C4    C     C_R   0.515111 0.499671 0.346119 0.936458
Zn1   Zn    Zn3+2 0.374120 0.508330 0.506290 1.077684
Zn2   Zn    Zn3+2 0.625880 0.491670 0.493710 1.085469
C5    C     C_R   0.478249 0.519561 0.738269 -0.218332
C6    C     C_R   0.520418 0.487544 0.259797 -0.264882
C7    C     C_R   0.556276 0.587083 0.767936 0.227712
C8    C     C_R   0.421258 0.499607 0.225192 0.287966
C9    C     C_R   0.564483 0.585478 0.848436 -0.189396
C10   C     C_R   0.418425 0.462547 0.148803 -0.211968
C11   C     C_R   0.494060 0.520867 0.898878 -0.024617
C12   C     C_R   0.515806 0.426349 0.102776 -0.060338
C13   C     C_R   0.409955 0.461414 0.870985 -0.267695
C14   C     C_R   0.615735 0.420199 0.134132 -0.249089
C15   C     C_R   0.399584 0.461013 0.789939 0.527867
C16   C     C_R   0.619545 0.451870 0.212462 0.479965
C17   C     C_2   0.506944 0.517068 0.982733 0.410712
C18   C     C_2   0.518727 0.424733 0.016429 0.423252
H1    H     H_    0.355466 0.413752 0.912714 0.149355
H2    H     H_    0.691412 0.394639 0.096807 0.176142
H3    H     H_    0.343426 0.472729 0.121605 0.173711
H4    H     H_    0.625759 0.634528 0.872059 0.218227
C19   C     C_R   0.467551 0.190277 0.505534 -0.324898
C20   C     C_R   0.529619 0.810180 0.479440 -0.305671
C21   C     C_R   0.624116 0.961312 0.416475 0.268901
C22   C     C_R   0.387001 0.038352 0.573416 0.264195
C23   C     C_R   0.621770 0.854426 0.429551 0.153230
C24   C     C_R   0.394655 0.145251 0.568411 0.141219
C25   C     C_R   0.441421 0.872091 0.514559 0.503698
C26   C     C_R   0.535930 0.130436 0.449187 0.525824
C27   C     C_R   0.457503 0.978052 0.517711 -0.223429
C28   C     C_R   0.541335 0.024034 0.461022 -0.208084
N1    N     N_R   0.206400 0.519440 0.514690 -0.177061
N2    N     N_R   0.793600 0.480560 0.485310 -0.187113
C29   C     C_R   0.969335 0.402223 0.426293 0.186974
C30   C     C_R   0.031428 0.600642 0.571990 0.146464
C31   C     C_R   0.850389 0.404975 0.439041 0.317399
C32   C     C_R   0.147615 0.582935 0.571180 0.312989
C33   C     C_R   0.852512 0.548570 0.525934 0.013606
C34   C     C_R   0.149801 0.463981 0.464153 0.044091
C35   C     C_R   0.971579 0.542555 0.521208 -0.115465
C36   C     C_R   0.031020 0.470701 0.468588 -0.109386
H5    H     H_    0.197293 0.411338 0.422685 0.190293
H6    H     H_    0.805465 0.604373 0.564738 0.220688
N3    N     N_R   0.625134 0.659127 0.717520 0.220773
O9    O     O_R   0.582601 0.709493 0.663626 -0.367163
O10   O     O_R   0.722911 0.688132 0.734461 -0.296105
N4    N     N_R   0.326698 0.557115 0.263682 0.227703
O11   O     O_R   0.225182 0.530450 0.253178 -0.355317
O12   O     O_R   0.343117 0.646754 0.295941 -0.389225
N5    N     N_R   0.199653 0.622820 0.635689 0.248744
O13   O     O_R   0.203459 0.722098 0.647492 -0.251402
O14   O     O_R   0.199700 0.563549 0.696848 -0.346077
N6    N     N_R   0.790251 0.318998 0.412711 0.265574
O15   O     O_R   0.795332 0.301686 0.336820 -0.252501
O16   O     O_R   0.770340 0.241454 0.461060 -0.282517
N7    N     N_R   0.025589 0.323149 0.376323 0.218983
O17   O     O_R   0.087857 0.347569 0.309678 -0.339170
O18   O     O_R   0.013979 0.226603 0.396987 -0.271730
N8    N     N_R   0.973698 0.671891 0.628548 0.236768
O19   O     O_R   0.928417 0.753861 0.604028 -0.292859
O20   O     O_R   0.969828 0.657138 0.704475 -0.262631
O21   O     O_3   0.718492 0.443660 0.243876 -0.561528
C37   C     C_3   0.796675 0.518674 0.209223 -0.083863
H7    H     H_    0.759336 0.596978 0.210099 0.187425
H8    H     H_    0.832284 0.496116 0.147436 0.141302
H9    H     H_    0.867220 0.523442 0.244381 0.208561
O22   O     O_3   0.323256 0.397407 0.757318 -0.547618
C38   C     C_3   0.221888 0.380566 0.809570 -0.018333
H10   H     H_    0.190789 0.452514 0.841538 0.134644
H11   H     H_    0.231943 0.317939 0.851984 0.146653
H12   H     H_    0.156542 0.354124 0.773977 0.224640
O23   O     O_3   0.533609 0.335337 0.969204 -0.615707
C39   C     C_3   0.510604 0.244385 0.014097 -0.214080
H13   H     H_    0.425435 0.245999 0.050195 0.157705
H14   H     H_    0.576250 0.231609 0.052351 0.175135
H15   H     H_    0.512114 0.177645 0.972440 0.218815
O24   O     O_3   0.514914 0.607924 0.026769 -0.621397
C40   C     C_3   0.425692 0.674390 0.018279 -0.212113
H16   H     H_    0.343045 0.632704 0.025981 0.150800
H17   H     H_    0.440859 0.714107 0.959994 0.186872
H18   H     H_    0.421253 0.734858 0.065377 0.219580
O25   O     O_3   0.597482 0.176894 0.383348 -0.515469
C41   C     C_3   0.528137 0.185483 0.323879 -0.185072
H19   H     H_    0.456563 0.237911 0.343023 0.115495
H20   H     H_    0.496643 0.108329 0.306600 0.157182
H21   H     H_    0.578696 0.219565 0.270219 0.216749
O26   O     O_3   0.337428 0.829309 0.543163 -0.528027
C42   C     C_3   0.266498 0.840701 0.484707 -0.096847
H22   H     H_    0.301949 0.802444 0.427650 0.160925
H23   H     H_    0.250273 0.923558 0.474575 0.153160
H24   H     H_    0.184229 0.802895 0.505797 0.213588
N9    N     N_R   0.335296 0.207323 0.630869 0.247491
O27   O     O_R   0.355622 0.196045 0.703276 -0.315920
O28   O     O_R   0.245653 0.255976 0.618921 -0.315539
N10   N     N_R   0.707766 0.790917 0.386897 0.247574
O29   O     O_R   0.813199 0.811253 0.390294 -0.288701
O30   O     O_R   0.681297 0.718338 0.339152 -0.403535
N11   N     N_R   0.712048 0.004617 0.359692 0.282569
O31   O     O_R   0.716539 0.981688 0.284603 -0.327774
O32   O     O_R   0.798042 0.049900 0.384152 -0.197383
N12   N     N_R   0.314847 0.991959 0.639138 0.283485
O33   O     O_R   0.209564 0.017172 0.654852 -0.269653
O34   O     O_R   0.356088 0.929394 0.686372 -0.256286

loop_
_geom_bond_atom_site_label_1
_geom_bond_atom_site_label_2
_geom_bond_distance
_ccdc_geom_bond_type
N2    C33   1.365912 A    
N3    O9    1.300583 A    
O25   C41   1.410568 S    
C20   C23   1.408748 A    
O21   C37   1.410723 S    
C39   H15   1.109115 S    
C26   O25   1.383747 S    
N12   O34   1.301570 A    
C25   C27   1.382664 A    
O5    C3    1.288936 A    
C37   H8    1.111181 S    
C17   O24   1.396039 S    
O1    C1    1.285814 A    
C13   H1    1.081855 S    
C9    C11   1.388158 A    
C14   C16   1.396066 A    
N11   O32   1.300009 A    
C5    C15   1.408300 A    
N10   O29   1.301015 A    
N4    O12   1.301870 A    
C33   H6    1.080674 S    
C16   O21   1.382189 S    
C27   C28   1.414906 A    
O4    Zn1   2.013433 S    
N5    O14   1.299057 A    
C21   C28   1.418211 A    
C3    C5    1.448854 S    
C20   C25   1.397159 A    
C8    N4    1.438970 S    
O23   C39   1.410576 S    
C33   C35   1.426347 A    
C37   H9    1.109637 S    
C29   N7    1.434411 S    
C34   C36   1.424069 A    
N8    O19   1.301031 A    
C40   H17   1.110675 S    
N1    C32   1.376780 A    
C7    N3    1.438503 S    
N5    O13   1.298720 A    
C21   N11   1.432395 S    
N2    C31   1.373219 A    
C26   C28   1.397321 A    
C11   C17   1.458550 S    
C12   C18   1.463202 S    
C18   O23   1.398887 S    
C22   C27   1.410627 A    
O2    C2    1.288001 A    
C9    H4    1.083938 S    
N12   O33   1.301253 A    
C29   C31   1.416153 A    
C6    C16   1.416288 A    
C30   C32   1.418563 A    
C19   C26   1.400867 A    
C37   H7    1.114059 S    
N7    O17   1.300374 A    
C34   H5    1.081129 S    
C4    C6    1.466248 S    
C39   H13   1.113287 S    
O4    C2    1.279990 A    
C31   N6    1.421235 S    
C38   H11   1.110761 S    
O22   C38   1.412572 S    
C25   O26   1.381756 S    
C29   C36   1.405822 A    
N4    O11   1.301153 A    
C15   O22   1.394724 S    
C35   C36   1.409843 A    
N7    O18   1.300850 A    
N6    O16   1.300427 A    
O7    Zn2   1.994090 S    
C22   N12   1.438635 S    
C24   N9    1.433612 S    
C42   H22   1.113635 S    
O6    C4    1.298086 A    
C1    C20   1.448344 S    
N9    O28   1.300932 A    
C40   H18   1.109208 S    
C41   H20   1.113592 S    
O7    C3    1.288572 A    
O3    Zn2   2.013434 S    
O8    C4    1.290741 A    
C42   H23   1.112640 S    
C10   C12   1.392869 A    
N3    O10   1.300940 A    
C12   C14   1.390282 A    
O1    Zn1   2.018272 S    
Zn1   N1    2.009293 S    
Zn2   N2    2.009290 S    
C5    C7    1.415419 A    
O6    Zn2   2.003698 S    
C21   C23   1.402092 A    
C39   H14   1.111416 S    
O3    C1    1.292021 A    
O8    Zn1   1.994093 S    
C38   H12   1.109269 S    
N1    C34   1.364524 A    
C19   C24   1.402685 A    
C41   H21   1.109373 S    
C2    C19   1.429426 S    
N6    O15   1.299670 A    
C11   C13   1.396494 A    
C23   N10   1.435913 S    
N11   O31   1.300839 A    
C32   N5    1.429518 S    
N10   O30   1.300814 A    
C30   C35   1.407956 A    
C22   C24   1.387114 A    
C7    C9    1.387381 A    
C8    C10   1.384384 A    
C13   C15   1.402087 A    
C41   H19   1.112787 S    
O2    Zn2   2.018272 S    
C14   H2    1.083278 S    
C30   N8    1.434558 S    
C38   H10   1.113985 S    
O5    Zn1   2.003694 S    
C42   H24   1.108666 S    
O24   C40   1.411779 S    
C6    C8    1.418852 A    
O26   C42   1.414199 S    
N9    O27   1.300888 A    
N8    O20   1.300955 A    
C40   H16   1.114278 S    
C17   C18   1.349331 D    
C10   H3    1.084515 S    
