data_mof_unit_1270.cif
_audit_creation_date              2012-12-10T16:49:29-0500
_audit_creation_method            fapswitch 2.2
_symmetry_space_group_name_H-M    P1
_symmetry_Int_Tables_number       1
_space_group_crystal_system       triclinic
_cell_length_a                    7.857161
_cell_length_b                    8.569822
_cell_length_c                    12.830872
_cell_angle_alpha                 88.993302
_cell_angle_beta                  87.720781
_cell_angle_gamma                 92.957139
_cell_volume                      861.960281635

loop_
_atom_site_label
_atom_site_type_symbol
_atom_type_description
_atom_site_fract_x
_atom_site_fract_y
_atom_site_fract_z
_atom_type_partial_charge
C1    C     C_R   0.455519 0.205861 0.497447 0.958516
C2    C     C_R   0.696686 0.429843 0.141216 -0.213247
C3    C     C_R   0.575903 0.448871 0.869355 -0.279506
C4    C     C_R   0.424098 0.551158 0.130644 -0.279517
C5    C     C_R   0.570518 0.465419 0.975697 0.186744
C6    C     C_R   0.429487 0.534636 0.024301 0.186734
C7    C     C_2   0.432016 0.042562 0.495916 -0.384886
C8    C     C_2   0.567982 0.957437 0.504092 -0.384882
C9    C     C_3   0.003347 0.598968 0.372439 -0.496731
C10   C     C_3   0.996671 0.401008 0.627554 -0.496775
C11   C     C_R   0.544480 0.794138 0.502558 0.958521
C12   C     C_R   0.465689 0.501603 0.699488 0.871932
C13   C     C_R   0.534310 0.498399 0.300512 0.871941
C14   C     C_R   0.555094 0.495784 0.189171 -0.045012
C15   C     C_R   0.444907 0.504237 0.810827 -0.045015
C16   C     C_R   0.295405 0.585112 0.966028 -0.224006
C17   C     C_R   0.704604 0.414957 0.033967 -0.224016
C18   C     C_R   0.303321 0.570210 0.858778 -0.213239
H1    H     H_    0.315774 0.604509 0.167942 0.151786
H2    H     H_    0.976462 0.499889 0.320112 0.185127
H3    H     H_    0.896284 0.676552 0.381168 0.211748
H4    H     H_    0.889269 0.327960 0.664166 0.171724
H5    H     H_    0.103741 0.323437 0.618800 0.211786
H6    H     H_    0.023574 0.500070 0.679896 0.185128
H7    H     H_    0.684223 0.395494 0.832059 0.151780
H8    H     H_    0.797780 0.385702 0.186499 0.155315
H9    H     H_    0.202235 0.614356 0.813489 0.155315
H10   H     H_    0.186542 0.637675 0.003072 0.141700
H11   H     H_    0.813471 0.362418 0.996922 0.141707
H12   H     H_    0.303041 0.992871 0.488021 0.182557
H13   H     H_    0.696957 0.007129 0.511987 0.182558
H14   H     H_    0.110761 0.672027 0.335834 0.171725
N1    N     N_2   0.054030 0.541640 0.471970 -0.004423
N2    N     N_2   0.945970 0.458360 0.528030 -0.004412
O1    O     O_R   0.609680 0.261530 0.506880 -0.608390
O2    O     O_R   0.390320 0.738470 0.493120 -0.608397
O3    O     O_R   0.323330 0.288220 0.488910 -0.632778
O4    O     O_R   0.676670 0.711780 0.511090 -0.632761
O5    O     O_R   0.619510 0.488830 0.661140 -0.623215
O6    O     O_R   0.380490 0.511170 0.338860 -0.623222
O7    O     O_R   0.333160 0.515520 0.643180 -0.643470
O8    O     O_R   0.666840 0.484480 0.356820 -0.643457
Zn1   Zn    Zn3+2 0.691200 0.482180 0.511990 0.938514
Zn2   Zn    Zn3+2 0.308800 0.517820 0.488010 0.938497

loop_
_geom_bond_atom_site_label_1
_geom_bond_atom_site_label_2
_ccdc_geom_bond_type
C16   H10   S    
C15   C18   A    
C12   O7    A    
C10   H5    S    
C11   O4    A    
C17   H11   S    
C9    H2    S    
C12   C15   S    
C1    O3    A    
C12   O5    A    
N1    N2    D    
C3    C15   A    
C7    C8    D    
C2    H8    S    
C7    H12   S    
C13   C14   S    
C10   H4    S    
C2    C17   A    
C9    N1    S    
C8    H13   S    
C9    H3    S    
O3    Zn2   S    
C8    C11   S    
C4    C6    A    
C13   O8    A    
C4    C14   A    
C5    C6    A    
C2    C14   A    
O7    Zn2   S    
O4    Zn1   S    
O2    Zn2   S    
C5    C17   A    
O8    Zn1   S    
N2    Zn1   S    
C6    C16   A    
C3    C5    A    
O6    Zn2   S    
C3    H7    S    
O1    Zn1   S    
C1    O1    A    
C10   N2    S    
C11   O2    A    
C13   O6    A    
O5    Zn1   S    
C9    H14   S    
C10   H6    S    
C1    C7    S    
C4    H1    S    
C16   C18   A    
C18   H9    S    
N1    Zn2   S    
