data_mof_unit_3862.cif
_audit_creation_date              2013-03-05T16:35:54-0500
_audit_creation_method            fapswitch 2.2
_symmetry_space_group_name_H-M    P1
_symmetry_Int_Tables_number       1
_space_group_crystal_system       triclinic
_cell_length_a                    23.598668
_cell_length_b                    9.09431
_cell_length_c                    7.772257
_cell_angle_alpha                 90.041914
_cell_angle_beta                  90.0
_cell_angle_gamma                 90.00003
_cell_volume                      1668.03162706

loop_
_atom_site_label
_atom_site_type_symbol
_atom_site_description
_atom_site_fract_x
_atom_site_fract_y
_atom_site_fract_z
_atom_type_partial_charge
O1    O     O_R   0.500000 0.288390 0.642760 -0.570255
O2    O     O_R   0.500000 0.711610 0.357240 -0.570255
O3    O     O_R   0.500000 0.711610 0.642760 -0.572724
O4    O     O_R   0.500000 0.288390 0.357240 -0.572724
H1    H     H_    0.948924 0.130475 0.451993 0.186524
H2    H     H_    0.051902 0.869216 0.551776 0.186240
H3    H     H_    0.948924 0.869524 0.548008 0.186524
H4    H     H_    0.051902 0.130783 0.448225 0.186240
C1    C     C_R   0.499985 0.219968 0.499962 0.849526
C2    C     C_R   0.499985 0.780032 0.500038 0.849526
O5    O     O_R   0.417880 0.500000 0.642820 -0.545081
O6    O     O_R   0.582120 0.500000 0.357180 -0.540966
O7    O     O_R   0.582120 0.500000 0.642820 -0.540966
O8    O     O_R   0.417880 0.500000 0.357180 -0.545081
C3    C     C_R   0.208890 0.500000 0.500001 0.199984
C4    C     C_R   0.791767 0.499999 0.500001 0.197830
C5    C     C_R   0.390660 0.500000 0.500000 0.887153
C6    C     C_R   0.609471 0.500000 0.500000 0.876996
Cu1   Cu    Cu3+1 0.500000 0.500000 0.669080 1.127962
Cu2   Cu    Cu3+1 0.500000 0.500000 0.330920 1.127962
H5    H     H_    0.215521 0.637049 0.275396 0.195914
H6    H     H_    0.785004 0.392284 0.254238 0.196488
H7    H     H_    0.215521 0.362951 0.724605 0.195914
H8    H     H_    0.785004 0.607716 0.745763 0.196488
C7    C     C_R   0.297712 0.578698 0.372819 0.321858
C8    C     C_R   0.702868 0.436846 0.361210 0.328928
C9    C     C_R   0.297712 0.421302 0.627181 0.321858
C10   C     C_R   0.702868 0.563153 0.638790 0.328928
C11   C     C_R   0.328138 0.500000 0.500000 -0.216868
C12   C     C_R   0.672230 0.500000 0.500000 -0.226168
C13   C     C_R   0.881283 0.630981 0.512937 0.557895
C14   C     C_R   0.119563 0.369671 0.480004 0.559160
C15   C     C_R   0.881283 0.369018 0.487065 0.557895
C16   C     C_R   0.119563 0.630329 0.519998 0.559160
N1    N     N_R   0.852734 0.499999 0.500001 -0.451748
N2    N     N_R   0.148021 0.500000 0.500001 -0.453539
C17   C     C_R   0.940703 0.366624 0.483955 -0.021149
C18   C     C_R   0.060142 0.633158 0.518806 -0.021677
C19   C     C_R   0.940703 0.633375 0.516047 -0.021149
C20   C     C_R   0.060142 0.366842 0.481196 -0.021677
C21   C     C_R   0.970524 0.500000 0.500001 -0.015651
C22   C     C_R   0.030321 0.500000 0.500001 -0.015494
C23   C     C_R   0.970870 0.234346 0.465708 -0.154987
C24   C     C_R   0.029970 0.765469 0.536504 -0.155365
C25   C     C_R   0.970870 0.765653 0.534293 -0.154987
C26   C     C_R   0.029970 0.234530 0.463497 -0.155365
C27   C     C_1   0.499975 0.065358 0.499948 -0.099074
C28   C     C_1   0.499975 0.934641 0.500052 -0.099074
C29   C     C_R   0.238614 0.577163 0.373355 -0.111268
C30   C     C_R   0.761959 0.439251 0.361657 -0.113835
C31   C     C_R   0.238615 0.422837 0.626646 -0.111268
C32   C     C_R   0.761959 0.560748 0.638344 -0.113835
N3    N     N_1   0.500000 0.500000 0.076820 0.010464
N4    N     N_1   0.500000 0.500000 0.923180 0.010464
O9    O     O_2   0.852274 0.758719 0.520946 -0.496416
O10   O     O_2   0.148695 0.243408 0.457542 -0.494630
O11   O     O_2   0.852274 0.241280 0.479054 -0.496416
O12   O     O_2   0.148695 0.756592 0.542459 -0.494630
Cl1   Cl    Cl    0.331291 0.686728 0.214335 -0.511769
Cl2   Cl    Cl    0.670022 0.346961 0.186218 -0.503010
Cl3   Cl    Cl    0.331291 0.313271 0.785665 -0.511770
Cl4   Cl    Cl    0.670022 0.653040 0.813782 -0.503010

loop_
_geom_bond_atom_site_label_1
_geom_bond_atom_site_label_2
_geom_bond_distance
_ccdc_geom_bond_type
H8    C32   1.083846 S    
C7    C11   1.416306 A    
C10   Cl4   1.765572 S    
C18   C24   1.404821 A    
C6    C12   1.481036 S    
C3    C31   1.397991 A    
C9    C11   1.416307 A    
C5    C11   1.475429 S    
C21   C22   1.411144 A    
H7    C31   1.083466 S    
C27   C28   1.188781 T    
H6    C30   1.083846 S    
C19   C25   1.404925 A    
O3    Cu1   1.935438 S    
O6    Cu2   1.948641 S    
C10   C12   1.419624 A    
C9    Cl3   1.764153 S    
H1    C23   1.082483 S    
Cu2   N3    1.974930 S    
C19   C21   1.407773 A    
O3    C2    1.272276 A    
H2    C24   1.082591 S    
N3    N4    1.194130 T    
C3    C29   1.397989 A    
C20   C26   1.404821 A    
C10   C32   1.394633 A    
O8    C5    1.282494 A    
O5    Cu1   1.948643 S    
O7    C6    1.284046 A    
C17   C21   1.407774 A    
H3    C25   1.082482 S    
Cu1   N4    1.974930 S    
H5    C29   1.083465 S    
C15   N1    1.372130 A    
C9    C31   1.394694 A    
C8    C12   1.419624 A    
C16   N2    1.371032 A    
C8    C30   1.394633 A    
C4    N1    1.438759 S    
C2    C28   1.406070 S    
C4    C30   1.398323 A    
C23   C26   1.394791 A    
C13   N1    1.372131 A    
C17   C23   1.404925 A    
O1    Cu1   1.935141 S    
C1    C27   1.406070 S    
O7    Cu1   1.948641 S    
O2    Cu2   1.935140 S    
O4    Cu2   1.935439 S    
C18   C22   1.408120 A    
C14   N2    1.371033 A    
C3    N2    1.436427 S    
C14   C20   1.402526 A    
O1    C1    1.271996 A    
C24   C25   1.394791 A    
O8    Cu2   1.948643 S    
C4    C32   1.398323 A    
O6    C6    1.284047 A    
C16   O12   1.349576 S    
O5    C5    1.282494 A    
C15   O11   1.349786 S    
C7    Cl1   1.764153 S    
H4    C26   1.082591 S    
C13   O9    1.349785 S    
O4    C1    1.272276 A    
C16   C18   1.402526 A    
C8    Cl2   1.765572 S    
C14   O10   1.349576 S    
C15   C17   1.402612 A    
Cu1   Cu2   2.628267 S    
C13   C19   1.402612 A    
C20   C22   1.408121 A    
C7    C29   1.394694 A    
O2    C2    1.271996 A    
