data_mof_unit_263.cif
_audit_creation_date              2012-12-11T16:44:15-0500
_audit_creation_method            fapswitch 2.2
_symmetry_space_group_name_H-M    P1
_symmetry_Int_Tables_number       1
_space_group_crystal_system       triclinic
_cell_length_a                    27.363812
_cell_length_b                    7.185173
_cell_length_c                    22.797502
_cell_angle_alpha                 89.996899
_cell_angle_beta                  101.366007
_cell_angle_gamma                 89.996412
_cell_volume                      4394.39603736

loop_
_atom_site_label
_atom_site_type_symbol
_atom_type_description
_atom_site_fract_x
_atom_site_fract_y
_atom_site_fract_z
_atom_type_partial_charge
O1    O     O_R   0.707300 0.594030 0.176840 -0.525400
O2    O     O_R   0.292700 0.405970 0.823160 -0.524262
O3    O     O_R   0.792700 0.094030 0.323160 -0.525436
O4    O     O_R   0.207300 0.905970 0.676840 -0.524171
O5    O     O_R   0.697330 0.262360 0.295660 -0.539508
O6    O     O_R   0.302670 0.737640 0.704340 -0.544172
O7    O     O_R   0.802670 0.762360 0.204340 -0.539464
O8    O     O_R   0.197330 0.237640 0.795660 -0.544110
C1    C     C_R   0.684403 0.431816 0.311417 0.726745
C2    C     C_R   0.315760 0.568105 0.688828 0.735074
C3    C     C_R   0.815597 0.931817 0.188585 0.726974
C4    C     C_R   0.184238 0.068105 0.811168 0.734941
O9    O     O_R   0.701410 0.264250 0.175600 -0.537940
O10   O     O_R   0.298590 0.735750 0.824400 -0.541759
O11   O     O_R   0.798590 0.764250 0.324400 -0.538103
O12   O     O_R   0.201410 0.235750 0.675600 -0.541907
O13   O     O_R   0.796800 0.094950 0.202240 -0.537812
O14   O     O_R   0.203200 0.905050 0.797760 -0.534348
O15   O     O_R   0.703200 0.594950 0.297760 -0.537877
O16   O     O_R   0.296800 0.405050 0.702240 -0.534436
C5    C     C_R   0.689600 0.432861 0.153555 0.788858
C6    C     C_R   0.310389 0.567160 0.846398 0.790860
C7    C     C_R   0.810402 0.932842 0.346446 0.788351
C8    C     C_R   0.189612 0.067180 0.653598 0.790723
O17   O     O_3   0.781290 0.427390 0.258880 -0.377513
O18   O     O_3   0.218710 0.572610 0.741120 -0.379027
O19   O     O_3   0.718710 0.927390 0.241120 -0.377523
O20   O     O_3   0.281290 0.072610 0.758880 -0.379076
V1    V     V_3+5 0.744190 0.152150 0.248350 1.516348
V2    V     V_3+5 0.255810 0.847850 0.751650 1.514083
V3    V     V_3+5 0.755810 0.652150 0.251650 1.516338
V4    V     V_3+5 0.244190 0.347850 0.748350 1.513850
C9    C     C_R   0.154294 0.059820 0.595032 -0.190919
C10   C     C_R   0.845463 0.940160 0.405273 -0.190006
C11   C     C_R   0.345712 0.559674 0.904955 -0.191008
C12   C     C_R   0.654551 0.440282 0.094726 -0.189557
C13   C     C_R   0.139425 0.088953 0.486106 -0.058701
C14   C     C_R   0.860013 0.910073 0.514228 -0.059166
C15   C     C_R   0.360524 0.587240 0.013917 -0.058761
C16   C     C_R   0.640095 0.411385 0.985759 -0.058877
C17   C     C_R   0.171617 0.106192 0.542489 -0.080149
C18   C     C_R   0.827969 0.893199 0.457677 -0.078627
C19   C     C_R   0.328343 0.605062 0.957545 -0.080245
C20   C     C_R   0.672121 0.394407 0.042285 -0.077012
C21   C     C_R   0.103608 0.008783 0.591547 -0.073553
C22   C     C_R   0.896095 0.991835 0.409186 -0.076605
C23   C     C_R   0.396434 0.509187 0.908392 -0.073729
C24   C     C_R   0.603873 0.491257 0.090843 -0.076694
C25   C     C_R   0.068948 0.021599 0.535548 0.031499
C26   C     C_R   0.930639 0.977819 0.465218 0.032675
C27   C     C_R   0.431064 0.521420 0.964425 0.031664
C28   C     C_R   0.569368 0.477725 0.034773 0.032389
C29   C     C_R   0.088749 0.039797 0.482751 0.040807
C30   C     C_R   0.910739 0.959081 0.517872 0.043884
C31   C     C_R   0.411226 0.538503 0.017230 0.040736
C32   C     C_R   0.589317 0.460111 0.982116 0.042513
C33   C     C_R   0.015409 0.012329 0.529242 0.083608
C34   C     C_R   0.984154 0.986793 0.471589 0.077853
C35   C     C_R   0.484609 0.512561 0.970754 0.083173
C36   C     C_R   0.515848 0.486273 0.028376 0.077953
C37   C     C_R   0.007685 0.959929 0.422804 -0.124209
C38   C     C_R   0.991785 0.038861 0.577993 -0.133928
C39   C     C_R   0.492300 0.458300 0.077094 -0.124212
C40   C     C_R   0.508253 0.540250 0.922075 -0.134777
C41   C     C_R   0.058029 0.996566 0.427442 -0.112225
C42   C     C_R   0.941417 0.001840 0.573264 -0.117609
C43   C     C_R   0.441940 0.494571 0.072482 -0.112277
C44   C     C_R   0.558646 0.503671 0.926782 -0.115749
H1    H     H_    0.073001 0.983449 0.387117 0.149452
H2    H     H_    0.926379 0.014542 0.613554 0.148416
H3    H     H_    0.426951 0.480597 0.112770 0.149472
H4    H     H_    0.573688 0.517343 0.886526 0.153414
H5    H     H_    0.987760 0.909777 0.380171 0.141357
H6    H     H_    0.011610 0.089050 0.620654 0.140332
H7    H     H_    0.512229 0.407564 0.119651 0.141447
H8    H     H_    0.488422 0.591027 0.879492 0.141722
C45   C     C_R   0.860252 0.105995 0.119795 -0.197203
C46   C     C_R   0.139555 0.894214 0.879982 -0.184181
C47   C     C_R   0.639675 0.606074 0.380118 -0.197421
C48   C     C_R   0.360490 0.394133 0.620080 -0.183860
H9    H     H_    0.836449 0.224287 0.122647 0.173900
H10   H     H_    0.163561 0.776237 0.877487 0.170228
H11   H     H_    0.663432 0.724443 0.377210 0.174344
H12   H     H_    0.336527 0.276086 0.622633 0.170405
C49   C     C_R   0.895492 0.121243 0.083207 -0.127462
C50   C     C_R   0.104214 0.879078 0.916439 -0.128189
C51   C     C_R   0.604426 0.621329 0.416693 -0.124409
C52   C     C_R   0.395824 0.378992 0.583615 -0.127661
H13   H     H_    0.897217 0.249485 0.058750 0.130615
H14   H     H_    0.102569 0.751213 0.941117 0.131392
H15   H     H_    0.602653 0.749654 0.441087 0.132208
H16   H     H_    0.397505 0.251053 0.558990 0.131161
C53   C     C_R   0.927212 0.972011 0.077156 0.030103
C54   C     C_R   0.072296 0.028016 0.922107 0.029828
C55   C     C_R   0.572760 0.472005 0.422812 0.029994
C56   C     C_R   0.427690 0.528014 0.577870 0.029942
C57   C     C_R   0.923252 0.808104 0.109430 -0.099261
C58   C     C_R   0.076136 0.191487 0.889575 -0.100636
C59   C     C_R   0.576779 0.308001 0.390615 -0.098713
C60   C     C_R   0.423806 0.691573 0.610337 -0.098337
H17   H     H_    0.948225 0.692708 0.106817 0.125225
H18   H     H_    0.051023 0.306623 0.891938 0.124420
H19   H     H_    0.551847 0.192526 0.393281 0.124928
H20   H     H_    0.448881 0.806780 0.607916 0.125605
C61   C     C_R   0.887962 0.790411 0.146158 0.216278
C62   C     C_R   0.111499 0.209030 0.852934 0.219959
C63   C     C_R   0.612079 0.290301 0.353901 0.216639
C64   C     C_R   0.388450 0.709119 0.646987 0.219986
C65   C     C_R   0.855017 0.940805 0.151293 -0.097394
C66   C     C_R   0.144649 0.058975 0.848195 -0.071103
C67   C     C_R   0.644975 0.440790 0.348701 -0.098463
C68   C     C_R   0.355349 0.558978 0.651799 -0.071647
C69   C     C_R   0.974236 0.833286 0.003061 -0.143204
C70   C     C_R   0.025193 0.166922 0.996074 -0.142224
C71   C     C_R   0.525794 0.333356 0.496974 -0.140739
C72   C     C_R   0.474721 0.666833 0.503821 -0.141234
H21   H     H_    0.954373 0.703419 0.004208 0.112101
H22   H     H_    0.045052 0.296790 0.994897 0.113292
H23   H     H_    0.545702 0.203557 0.495883 0.113655
H24   H     H_    0.454817 0.796633 0.504944 0.112975
C73   C     C_R   0.009135 0.846508 0.965838 -0.135043
C74   C     C_R   0.990311 0.153678 0.033320 -0.135393
C75   C     C_R   0.490898 0.346578 0.534200 -0.132616
C76   C     C_R   0.509600 0.653588 0.466571 -0.134217
H25   H     H_    0.015169 0.726519 0.939419 0.113543
H26   H     H_    0.984307 0.273656 0.059758 0.113981
H27   H     H_    0.484910 0.226658 0.560676 0.114810
H28   H     H_    0.515557 0.773497 0.440076 0.113691
C77   C     C_R   0.035088 0.013537 0.961805 0.096592
C78   C     C_R   0.964360 0.986629 0.037367 0.095810
C79   C     C_R   0.464889 0.513530 0.538164 0.096332
C80   C     C_R   0.535610 0.486620 0.462596 0.095594
C81   C     C_2   0.909968 0.087789 0.357088 0.734972
O21   O     O_2   0.930897 0.238899 0.364011 -0.535831
O22   O     O_R   0.899699 0.005057 0.300533 -0.688493
H29   H     H_    0.911501 0.083629 0.269096 0.293023
C82   C     C_2   0.089729 0.914084 0.643952 0.723838
O23   O     O_2   0.100349 0.983756 0.693782 -0.588084
O24   O     O_R   0.064004 0.744949 0.635815 -0.645451
H30   H     H_    0.056434 0.693861 0.674513 0.307188
C83   C     C_2   0.589901 0.586222 0.143050 0.734707
O25   O     O_2   0.568898 0.737229 0.136322 -0.535766
O26   O     O_R   0.600157 0.502666 0.199482 -0.688568
H31   H     H_    0.588258 0.580563 0.231001 0.292842
C84   C     C_2   0.410392 0.415556 0.855857 0.724227
O27   O     O_2   0.399753 0.485973 0.806135 -0.587622
O28   O     O_R   0.436208 0.246568 0.863744 -0.645279
H32   H     H_    0.443821 0.196236 0.824975 0.308467
C85   C     C_2   0.775473 0.831732 0.453663 0.782808
O29   O     O_2   0.741204 0.924545 0.425674 -0.579142
O30   O     O_R   0.765456 0.668824 0.482708 -0.642249
H33   H     H_    0.728458 0.642659 0.477507 0.304845
C86   C     C_2   0.224096 0.167625 0.546204 0.781346
O31   O     O_2   0.258445 0.074806 0.574024 -0.579295
O32   O     O_R   0.233998 0.330582 0.517107 -0.642553
H34   H     H_    0.270985 0.356859 0.522191 0.303390
C87   C     C_2   0.724698 0.333903 0.046250 0.778822
O33   O     O_2   0.758850 0.426698 0.074489 -0.578710
O34   O     O_R   0.734929 0.171991 0.016843 -0.643817
H35   H     H_    0.771961 0.146582 0.021980 0.302601
C88   C     C_2   0.275834 0.666100 0.953885 0.781195
O35   O     O_2   0.241528 0.573458 0.925903 -0.579189
O36   O     O_R   0.265857 0.828478 0.983225 -0.642457
H36   H     H_    0.228858 0.854510 0.978164 0.303512
C89   C     C_2   0.158847 0.124251 0.430537 0.814418
O37   O     O_2   0.196346 0.044103 0.422287 -0.531404
O38   O     O_R   0.134217 0.250029 0.387955 -0.648871
H37   H     H_    0.150914 0.262407 0.352203 0.313056
C90   C     C_2   0.840394 0.874537 0.569642 0.812962
O39   O     O_2   0.802819 0.954523 0.577719 -0.531678
O40   O     O_R   0.864920 0.748708 0.612278 -0.651485
H38   H     H_    0.848089 0.736162 0.647914 0.310917
C91   C     C_2   0.341062 0.621433 0.069521 0.814543
O41   O     O_2   0.303583 0.540835 0.077619 -0.531345
O42   O     O_R   0.365633 0.746682 0.112313 -0.648868
H39   H     H_    0.348914 0.758309 0.148070 0.313045
C92   C     C_2   0.660129 0.377638 0.930531 0.813533
O43   O     O_2   0.639209 0.267854 0.892796 -0.539342
O44   O     O_R   0.703251 0.469907 0.922265 -0.642694
H40   H     H_    0.713381 0.434543 0.883295 0.313910
N1    N     N_3   0.887912 0.619454 0.178495 -0.660726
H41   H     H_    0.891611 0.648821 0.224073 0.261244
H42   H     H_    0.854505 0.549118 0.162734 0.259661
N2    N     N_3   0.111434 0.379447 0.820281 -0.664455
H43   H     H_    0.108025 0.349241 0.774794 0.254105
H44   H     H_    0.144683 0.450700 0.836122 0.259167
N3    N     N_3   0.612192 0.119219 0.321652 -0.660692
H45   H     H_    0.608464 0.148386 0.276057 0.261463
H46   H     H_    0.645631 0.049098 0.337437 0.259698
N4    N     N_3   0.388471 0.879645 0.679566 -0.663168
H47   H     H_    0.391915 0.849606 0.725070 0.254992
H48   H     H_    0.355192 0.950720 0.663715 0.258742

loop_
_geom_bond_atom_site_label_1
_geom_bond_atom_site_label_2
_ccdc_geom_bond_type
O17   V3    S    
C59   H19   S    
O40   H38   S    
C52   C56   A    
O1    C5    A    
C87   O33   D    
C51   H15   S    
C3    C65   S    
C9    C21   A    
C90   O39   D    
O3    C7    A    
C1    C67   S    
C10   C18   A    
C60   H20   S    
C15   C91   S    
C11   C23   A    
C23   C84   S    
C84   O27   D    
C25   C33   A    
C33   C38   A    
C5    C12   S    
C42   H2    S    
N1    H41   S    
O7    C3    A    
C6    C11   S    
C82   O24   S    
C35   C40   A    
C26   C30   A    
C28   C36   A    
C36   C39   A    
C40   C44   A    
O9    V1    S    
C14   C18   A    
C85   O30   S    
O34   H35   S    
O16   V4    S    
O4    C8    A    
C55   C59   A    
C43   H3    S    
O19   V1    S    
C54   C58   A    
O26   H31   S    
C63   N3    S    
O1    V3    S    
O13   V1    S    
N2    H43   S    
C76   C80   A    
O2    V4    S    
C32   C44   A    
O3    V1    S    
C18   C85   S    
C50   C54   A    
C88   O36   S    
C73   H25   S    
O36   H36   S    
C49   C53   A    
C1    O15   A    
C15   C31   A    
O28   H32   S    
C2    O16   A    
C16   C32   A    
C51   C55   A    
O2    C6    A    
O30   H33   S    
C2    C68   S    
C10   C22   A    
C21   C25   A    
C86   O32   S    
C11   C19   A    
C16   C20   A    
O5    V1    S    
C48   H12   S    
C76   H28   S    
C13   C29   A    
C46   C50   A    
C34   C37   A    
O11   C7    A    
O15   V3    S    
C35   C36   A    
O12   C8    A    
C20   C87   S    
C90   O40   S    
C64   N4    S    
C89   O38   S    
O10   V2    S    
C47   C51   A    
C84   O28   S    
C88   O35   D    
C12   C24   A    
C17   C86   S    
C71   C80   A    
C91   O42   S    
C39   C43   A    
C60   C64   A    
C54   C77   S    
O7    V3    S    
C69   C78   A    
C38   C42   A    
C26   C34   A    
C52   H16   S    
O22   H29   S    
C71   C75   A    
C50   H14   S    
N1    H42   S    
O38   H37   S    
C49   H13   S    
O18   V4    S    
C15   C19   A    
C37   H5    S    
C91   O41   D    
C72   H24   S    
C44   H4    S    
O8    V4    S    
C74   H26   S    
N4    H47   S    
O5    C1    A    
C37   C41   A    
C46   H10   S    
C75   H27   S    
O42   H39   S    
C14   C30   A    
C45   H9    S    
O8    C4    A    
C7    C10   S    
C48   C68   A    
C21   C82   S    
C40   H8    S    
O9    C5    A    
C46   C66   A    
C13   C89   S    
C45   C65   A    
C62   N2    S    
C70   H22   S    
C56   C79   S    
C69   H21   S    
C19   C88   S    
O6    V2    S    
C71   H23   S    
C81   O21   D    
C70   C77   A    
C12   C20   A    
C27   C35   A    
C53   C78   S    
C53   C57   A    
C29   C41   A    
C14   C90   S    
C62   C66   A    
C61   C65   A    
C3    O13   A    
N4    H48   S    
C72   C76   A    
C75   C79   A    
C63   C67   A    
C73   C77   A    
O6    C2    A    
C23   C27   A    
O24   H30   S    
O11   V3    S    
C30   C42   A    
O44   H40   S    
O12   V4    S    
C59   C63   A    
C82   O23   D    
C22   C26   A    
C8    C9    S    
C58   C62   A    
C47   C67   A    
C9    C17   A    
O10   C6    A    
C83   O26   S    
C57   C61   A    
C31   C43   A    
C48   C52   A    
C58   H18   S    
C83   O25   D    
C22   C81   S    
C47   H11   S    
C33   C34   A    
C55   C80   S    
C72   C79   A    
C39   H7    S    
C41   H1    S    
C4    C66   S    
C56   C60   A    
O20   V2    S    
C92   O44   S    
C24   C83   S    
N2    H44   S    
C27   C31   A    
C13   C17   A    
O4    V2    S    
N3    H46   S    
C25   C29   A    
O14   V2    S    
C45   C49   A    
C16   C92   S    
C70   C74   A    
C64   C68   A    
C89   O37   D    
C24   C28   A    
C69   C73   A    
C87   O34   S    
C92   O43   D    
C4    O14   A    
O32   H34   S    
C81   O22   S    
C38   H6    S    
N3    H45   S    
C61   N1    S    
C86   O31   D    
C85   O29   D    
C74   C78   A    
C57   H17   S    
C28   C32   A    
