data_mof_unit_1319.cif
_audit_creation_date              2012-12-10T20:41:52-0500
_audit_creation_method            fapswitch 2.2
_symmetry_space_group_name_H-M    P1
_symmetry_Int_Tables_number       1
_space_group_crystal_system       triclinic
_cell_length_a                    14.90287
_cell_length_b                    15.240953
_cell_length_c                    9.900867
_cell_angle_alpha                 89.987119
_cell_angle_beta                  89.630748
_cell_angle_gamma                 89.640801
_cell_volume                      2248.73201272

loop_
_atom_site_label
_atom_site_type_symbol
_atom_type_description
_atom_site_fract_x
_atom_site_fract_y
_atom_site_fract_z
_atom_type_partial_charge
C1    C     C_R   0.384056 0.876122 0.499865 0.870614
C2    C     C_R   0.922876 0.484298 0.070369 0.174130
C3    C     C_R   0.573537 0.025179 0.071098 -0.148124
C4    C     C_R   0.077488 0.508523 0.071249 -0.064403
C5    C     C_R   0.573633 0.024752 0.927398 -0.075370
C6    C     C_R   0.077314 0.509206 0.927371 0.022356
C7    C     C_R   0.429256 0.966185 0.930194 0.130334
C8    C     C_R   0.924758 0.477030 0.929000 0.132772
C9    C     C_3   0.334106 0.997685 0.932012 -0.709948
C10   C     C_3   0.834775 0.515942 0.912156 -0.746101
C11   C     C_3   0.332418 0.987549 0.086350 0.872041
C12   C     C_R   0.385184 0.124872 0.500462 0.865714
C13   C     C_3   0.836057 0.536374 0.065473 0.863176
C14   C     C_R   0.618933 0.120864 0.499869 0.867417
C15   C     C_R   0.619729 0.880158 0.500082 0.870681
C16   C     C_R   0.123428 0.616681 0.499682 0.860898
C17   C     C_R   0.123444 0.383244 0.499601 0.862803
C18   C     C_R   0.300465 0.236892 0.624399 0.176845
C19   C     C_R   0.297461 0.766450 0.620971 0.185818
C20   C     C_R   0.749693 0.687921 0.603490 0.059652
C21   C     C_R   0.782396 0.281296 0.621916 0.110184
C22   C     C_R   0.336458 0.206118 0.503136 -0.132643
C23   C     C_R   0.878457 0.381724 0.500312 0.875254
C24   C     C_R   0.332597 0.797036 0.500057 -0.130898
C25   C     C_R   0.817430 0.688887 0.506083 -0.067806
C26   C     C_R   0.804722 0.323592 0.502148 -0.074648
C27   C     C_R   0.323091 0.255300 0.384780 -0.230961
C28   C     C_R   0.317147 0.749606 0.380961 -0.201280
C29   C     C_R   0.829614 0.761705 0.422843 -0.217101
C30   C     C_R   0.753290 0.310629 0.385785 -0.207106
C31   C     C_R   0.764163 0.826472 0.420567 -0.234594
C32   C     C_R   0.689087 0.245393 0.385474 -0.210097
C33   C     C_R   0.254495 0.317680 0.382710 -0.211783
C34   C     C_R   0.879643 0.619338 0.500940 0.879793
C35   C     C_R   0.251810 0.684651 0.381423 -0.229417
C36   C     C_R   0.688530 0.816963 0.503234 -0.079053
C37   C     C_R   0.677545 0.193690 0.501312 -0.058123
C38   C     C_R   0.203378 0.331637 0.500548 -0.139285
C39   C     C_R   0.202440 0.669251 0.500429 -0.137303
C40   C     C_R   0.684842 0.751763 0.601376 0.129289
C41   C     C_R   0.720014 0.216243 0.621305 0.057290
C42   C     C_R   0.233773 0.298671 0.622725 0.124564
C43   C     C_R   0.232755 0.703124 0.622163 0.137225
C44   C     C_3   0.611167 0.687732 0.630214 -0.229967
C45   C     C_3   0.258777 0.189184 0.740329 -0.592891
C46   C     C_3   0.771911 0.161956 0.720987 -0.235729
C47   C     C_3   0.183022 0.255762 0.735109 -0.228818
C48   C     C_3   0.181417 0.748555 0.732796 -0.231801
C49   C     C_3   0.232572 0.084770 0.202448 0.101233
C50   C     C_3   0.179904 0.138017 0.098433 -0.415606
C51   C     C_3   0.085398 0.158682 0.150485 -0.863525
C52   C     C_3   0.205092 0.893771 0.085255 0.001057
C53   C     C_3   0.143503 0.852108 0.191319 -0.286286
C54   C     C_3   0.044810 0.864859 0.157199 -0.925057
C55   C     C_3   0.824462 0.689175 0.011770 0.050065
C56   C     C_3   0.254409 0.817057 0.731679 -0.597760
C57   C     C_3   0.807595 0.777660 0.079293 -0.387823
C58   C     C_3   0.788894 0.849415 0.975424 -0.837949
C59   C     C_3   0.682629 0.527745 0.119458 0.095938
C60   C     C_3   0.654667 0.587620 0.236900 -0.331269
C61   C     C_3   0.570177 0.640264 0.203884 -0.919563
C62   C     C_2   0.563556 0.702528 0.763132 0.943936
C63   C     C_2   0.806480 0.075885 0.665178 0.951566
C64   C     C_2   0.175613 0.311890 0.859458 0.960739
C65   C     C_2   0.177922 0.698311 0.863157 0.931499
C66   C     C_3   0.683766 0.617224 0.635925 -0.557534
C67   C     C_3   0.841290 0.234770 0.720994 -0.502913
C68   C     C_R   0.429750 0.964977 0.072049 0.168935
H1    H     H_    0.357443 0.238808 0.291340 0.198971
H2    H     H_    0.736326 0.156101 0.819557 0.134202
H3    H     H_    0.118204 0.227168 0.701844 0.142440
H4    H     H_    0.115156 0.774564 0.699403 0.144525
H5    H     H_    0.301263 0.195834 0.831332 0.228650
H6    H     H_    0.299494 0.816077 0.820519 0.232808
H7    H     H_    0.694384 0.589146 0.738132 0.198981
H8    H     H_    0.907870 0.216588 0.677346 0.216971
H9    H     H_    0.237407 0.121509 0.714229 0.195534
H10   H     H_    0.230012 0.882510 0.697712 0.188592
H11   H     H_    0.678681 0.567446 0.554582 0.196513
H12   H     H_    0.349736 0.766884 0.286648 0.207510
H13   H     H_    0.844503 0.270378 0.818836 0.204326
H14   H     H_    0.632495 0.047005 0.124279 0.152064
H15   H     H_    0.139933 0.516676 0.124729 0.113730
H16   H     H_    0.632729 0.045529 0.873017 0.162560
H17   H     H_    0.139614 0.517261 0.872488 0.154837
H18   H     H_    0.330819 0.066658 0.900720 0.210680
H19   H     H_    0.288036 0.956011 0.875741 0.175438
H20   H     H_    0.836680 0.570698 0.839447 0.211868
H21   H     H_    0.785491 0.464659 0.884206 0.202272
H22   H     H_    0.236038 0.124244 0.295419 0.167876
H23   H     H_    0.887875 0.766413 0.358044 0.157286
H24   H     H_    0.195681 0.026495 0.237394 0.159579
H25   H     H_    0.215777 0.200388 0.078677 0.249547
H26   H     H_    0.175168 0.101412 0.001956 0.214468
H27   H     H_    0.049917 0.097300 0.177861 0.246369
H28   H     H_    0.046163 0.192457 0.070949 0.298869
H29   H     H_    0.088591 0.201971 0.240608 0.267344
H30   H     H_    0.215840 0.845474 0.003973 0.170077
H31   H     H_    0.171564 0.952118 0.040458 0.145744
H32   H     H_    0.157963 0.780772 0.196912 0.236108
H33   H     H_    0.155968 0.880976 0.292535 0.222553
H34   H     H_    0.765866 0.347003 0.293772 0.207517
H35   H     H_    0.027308 0.935734 0.154406 0.252275
H36   H     H_    0.003739 0.833189 0.236751 0.248719
H37   H     H_    0.029337 0.834738 0.058028 0.301231
H38   H     H_    0.761497 0.672086 0.958710 0.132392
H39   H     H_    0.880179 0.696934 0.937424 0.182451
H40   H     H_    0.749071 0.772502 0.148686 0.237948
H41   H     H_    0.867461 0.796484 0.137294 0.235886
H42   H     H_    0.848063 0.858211 0.908060 0.278385
H43   H     H_    0.774889 0.912381 0.028155 0.257808
H44   H     H_    0.729817 0.832396 0.913392 0.303687
H45   H     H_    0.770984 0.881772 0.352508 0.162244
H46   H     H_    0.634875 0.472137 0.115762 0.156130
H47   H     H_    0.675502 0.561737 0.020722 0.136842
H48   H     H_    0.641777 0.546616 0.327528 0.207527
H49   H     H_    0.709333 0.633907 0.261262 0.262931
H50   H     H_    0.582563 0.683467 0.115445 0.272605
H51   H     H_    0.551250 0.682089 0.291462 0.253437
H52   H     H_    0.513690 0.595485 0.181378 0.278759
H53   H     H_    0.535556 0.784026 0.918607 0.328102
H54   H     H_    0.870427 0.011590 0.514285 0.332643
H55   H     H_    0.237224 0.389834 0.994536 0.319555
H56   H     H_    0.652385 0.232621 0.293513 0.165935
H57   H     H_    0.244232 0.626505 0.002223 0.318093
H58   H     H_    0.237316 0.349092 0.288090 0.174060
H59   H     H_    0.235239 0.652271 0.287532 0.165465
H60   H     H_    0.564392 0.679691 0.544064 0.125855
N1    N     N_R   0.499140 1.000000 0.142800 -0.111482
N2    N     N_R   0.999140 0.500000 0.142800 -0.115415
N3    N     N_R   0.499160 0.000000 0.857150 -0.080168
N4    N     N_R   0.999160 0.500000 0.857150 -0.093584
O1    O     O_R   0.408400 0.908380 0.614690 -0.603892
O2    O     O_R   0.591610 0.908390 0.614650 -0.557932
O3    O     O_R   0.091610 0.591610 0.614650 -0.623256
O4    O     O_R   0.091610 0.408390 0.614650 -0.614980
O5    O     O_R   0.591590 0.091600 0.385310 -0.631614
O6    O     O_R   0.591590 0.908400 0.385310 -0.633738
O7    O     O_R   0.091590 0.591600 0.385310 -0.621383
O8    O     O_R   0.091590 0.408400 0.385310 -0.622736
O9    O     O_3   0.321641 0.067908 0.157925 -0.638083
O10   O     O_3   0.288699 0.913500 0.145020 -0.672074
O11   O     O_3   0.849714 0.625088 0.108908 -0.626002
O12   O     O_R   0.408400 0.091620 0.614690 -0.612306
O13   O     O_3   0.769370 0.492443 0.142089 -0.676339
O14   O     O_2   0.515577 0.644866 0.809108 -0.607248
O15   O     O_R   0.572136 0.782069 0.831970 -0.803821
O16   O     O_2   0.794303 0.008298 0.728974 -0.652259
O17   O     O_R   0.851562 0.073279 0.540840 -0.814943
O18   O     O_2   0.103635 0.317404 0.918562 -0.668378
O19   O     O_R   0.250581 0.356412 0.908152 -0.805939
O20   O     O_2   0.108644 0.698746 0.929796 -0.672602
O21   O     O_R   0.254313 0.654593 0.910621 -0.784207
O22   O     O_R   0.908400 0.408380 0.614690 -0.608874
O23   O     O_R   0.908400 0.591620 0.614690 -0.629431
O24   O     O_R   0.408370 0.908370 0.385350 -0.589967
O25   O     O_R   0.408370 0.091630 0.385350 -0.570805
O26   O     O_R   0.908370 0.408370 0.385350 -0.606611
O27   O     O_R   0.908370 0.591630 0.385350 -0.565354
O28   O     O_R   0.591610 0.091610 0.614650 -0.630855
Zn1   Zn    Zn3+2 0.500010 0.000000 0.653130 0.992504
Zn2   Zn    Zn3+2 0.000010 0.500000 0.653130 0.977099
Zn3   Zn    Zn3+2 0.499980 0.000000 0.346870 0.986118
Zn4   Zn    Zn3+2 0.999980 0.500000 0.346870 0.999498

loop_
_geom_bond_atom_site_label_1
_geom_bond_atom_site_label_2
_ccdc_geom_bond_type
C19   C56   S    
C51   H29   S    
C21   C26   A    
O12   Zn1   S    
C61   H51   S    
C58   H42   S    
C32   H56   S    
C44   C66   S    
C13   O13   S    
C49   H22   S    
C15   O2    A    
O4    Zn2   S    
C53   C54   S    
C27   C33   A    
C66   H11   S    
C10   H20   S    
C6    H17   S    
C58   H44   S    
C54   H36   S    
O7    Zn4   S    
C38   C42   A    
C18   C42   A    
C20   C40   A    
C20   C25   A    
N3    Zn1   S    
N2    Zn4   S    
C23   O26   A    
C12   C22   S    
C56   H10   S    
N1    Zn3   S    
C45   H5    S    
C23   C26   S    
C2    C13   S    
C63   O17   S    
C65   O21   S    
C7    C68   A    
C57   H41   S    
O24   Zn3   S    
C19   C43   A    
C49   O9    S    
C8    N4    A    
C41   C46   S    
H53   O15   S    
O6    Zn3   S    
C12   O25   A    
C43   C48   S    
O25   Zn3   S    
C31   C36   A    
C7    N3    A    
C27   H1    S    
O26   Zn4   S    
C51   H28   S    
C17   C38   S    
C15   O6    A    
C34   O27   A    
C59   C60   S    
C53   H32   S    
C3    N1    A    
C21   C67   S    
C61   H52   S    
C48   H4    S    
C1    O1    A    
H57   O21   S    
C45   C47   S    
O23   Zn2   S    
C25   C29   A    
H55   O19   S    
C56   H6    S    
C64   O19   S    
C58   H43   S    
H54   O17   S    
C54   H35   S    
C36   C40   A    
C55   O11   S    
C17   O4    A    
C10   H21   S    
C6    N4    A    
C53   H33   S    
C47   C64   S    
O5    Zn3   S    
C5    H16   S    
C50   H26   S    
C4    N2    A    
C55   H38   S    
C44   C62   S    
C15   C36   S    
C34   O23   A    
C52   O10   S    
C12   O12   A    
C14   O28   A    
C60   C61   S    
C1    O24   A    
C35   C39   A    
C64   O18   D    
C9    H18   S    
C9    C11   S    
C14   O5    A    
C5    N3    A    
C30   H34   S    
C3    H14   S    
C50   C51   S    
C60   H49   S    
C32   C37   A    
C35   H59   S    
C11   O9    S    
C47   H3    S    
C21   C41   A    
C59   O13   S    
C4    C6    A    
C26   C30   A    
C62   O15   S    
C55   C57   S    
C48   C65   S    
O3    Zn2   S    
C60   H48   S    
C16   O7    A    
C49   H24   S    
C18   C45   S    
C63   O16   D    
C29   H23   S    
C11   C68   S    
C20   C66   S    
C7    C9    S    
C44   H60   S    
C54   H37   S    
C61   H50   S    
C18   C22   A    
O22   Zn2   S    
C8    C10   S    
C2    C8    A    
C24   C28   A    
C3    C5    A    
C10   C13   S    
O1    Zn1   S    
C39   C43   A    
C50   H25   S    
C67   H13   S    
C48   C56   S    
O8    Zn4   S    
C25   C34   S    
C52   H31   S    
C33   C38   A    
O2    Zn1   S    
C46   C63   S    
C22   C27   A    
O28   Zn1   S    
C65   O20   D    
C19   C24   A    
C46   C67   S    
C29   C31   A    
C51   H27   S    
C9    H19   S    
C14   C37   S    
C30   C32   A    
C16   O3    A    
C57   C58   S    
C4    H15   S    
C59   H46   S    
C66   H7    S    
C52   H30   S    
C33   H58   S    
C2    N2    A    
C17   O8    A    
C42   C47   S    
C13   O11   S    
C37   C41   A    
C68   N1    A    
C28   H12   S    
C11   O10   S    
N4    Zn2   S    
C46   H2    S    
C16   C39   S    
C40   C44   S    
C57   H40   S    
C1    C24   S    
C59   H47   S    
C49   C50   S    
C62   O14   D    
C23   O22   A    
C55   H39   S    
O27   Zn4   S    
C45   H9    S    
C67   H8    S    
C28   C35   A    
C31   H45   S    
C52   C53   S    
