data_mof_unit_831.cif
_audit_creation_date              2013-03-05T16:12:28-0500
_audit_creation_method            fapswitch 2.2
_symmetry_space_group_name_H-M    P1
_symmetry_Int_Tables_number       1
_space_group_crystal_system       triclinic
_cell_length_a                    10.722678
_cell_length_b                    9.917727
_cell_length_c                    23.454424
_cell_angle_alpha                 89.92637
_cell_angle_beta                  91.250758
_cell_angle_gamma                 89.953005
_cell_volume                      2493.65393601

loop_
_atom_site_label
_atom_site_type_symbol
_atom_site_description
_atom_site_fract_x
_atom_site_fract_y
_atom_site_fract_z
_atom_type_partial_charge
O1    O     O_R   0.316770 0.614620 0.500000 -0.589139
O2    O     O_R   0.683230 0.385380 0.500000 -0.601947
O3    O     O_R   0.683230 0.614620 0.500000 -0.599814
O4    O     O_R   0.316770 0.385380 0.500000 -0.606505
C1    C     C_R   0.260107 0.499999 0.500293 0.920627
C2    C     C_R   0.739884 0.499949 0.499719 0.894881
O5    O     O_R   0.499970 0.614690 0.416160 -0.556033
O6    O     O_R   0.500030 0.385310 0.583840 -0.593619
O7    O     O_R   0.500030 0.614690 0.583840 -0.562427
O8    O     O_R   0.499970 0.385310 0.416160 -0.591543
C3    C     C_R   0.503236 0.500457 0.389762 0.904992
C4    C     C_R   0.497407 0.500431 0.610375 0.938591
Zn1   Zn    Zn3+2 0.500000 0.653120 0.500000 1.112216
Zn2   Zn    Zn3+2 0.500000 0.346880 0.500000 1.070630
C5    C     C_R   0.618255 0.514019 0.881443 0.528668
C6    C     C_R   0.401958 0.523620 0.119101 0.527756
N1    N     N_R   0.505928 0.516023 0.852365 -0.346434
N2    N     N_R   0.512768 0.503201 0.148154 -0.346965
C7    C     C_R   0.395108 0.517311 0.880476 0.526507
C8    C     C_R   0.622490 0.486497 0.120019 0.527031
C9    C     C_R   0.394566 0.520898 0.939958 -0.018860
C10   C     C_R   0.624095 0.494626 0.060568 -0.020457
C11   C     C_R   0.508961 0.513071 0.970323 -0.017960
C12   C     C_R   0.510340 0.510152 0.030217 -0.017657
C13   C     C_R   0.621898 0.507571 0.940962 -0.021358
C14   C     C_R   0.397886 0.522419 0.059584 -0.020565
C15   C     C_R   0.282601 0.530732 0.969609 -0.139548
C16   C     C_R   0.736230 0.486987 0.030909 -0.139495
C17   C     C_R   0.284410 0.533565 0.028935 -0.141409
C18   C     C_R   0.735297 0.495475 0.971633 -0.141259
O9    O     O_2   0.726035 0.519002 0.852835 -0.525869
O10   O     O_2   0.296178 0.546491 0.147747 -0.525366
O11   O     O_2   0.285676 0.513092 0.850959 -0.527996
O12   O     O_2   0.729470 0.460746 0.149450 -0.523028
H1    H     H_    0.193491 0.537599 0.947132 0.199191
H2    H     H_    0.824992 0.475876 0.053370 0.198551
H3    H     H_    0.196644 0.542530 0.050630 0.198164
H4    H     H_    0.823351 0.490508 0.949955 0.197767
C19   C     C_R   0.595023 0.584803 0.240285 -0.115911
C20   C     C_R   0.435121 0.610724 0.760496 -0.127178
C21   C     C_R   0.595378 0.584422 0.299665 0.294731
C22   C     C_R   0.424608 0.603417 0.701180 0.312254
C23   C     C_R   0.508992 0.502165 0.328058 -0.159049
C24   C     C_R   0.493080 0.503260 0.672357 -0.167401
C25   C     C_R   0.427832 0.418462 0.296931 -0.159058
C26   C     C_R   0.565850 0.410575 0.703347 -0.179703
H5    H     H_    0.359843 0.356957 0.318272 0.228025
H6    H     H_    0.623772 0.338601 0.681884 0.238917
C27   C     C_R   0.432091 0.415283 0.237953 -0.057535
C28   C     C_R   0.568219 0.413062 0.762387 -0.061753
H7    H     H_    0.370115 0.348237 0.214478 0.185824
H8    H     H_    0.621615 0.337490 0.785678 0.187251
C29   C     C_R   0.513746 0.500550 0.209229 0.208550
C30   C     C_R   0.504015 0.513990 0.791291 0.212060
C31   C     C_R   0.063927 0.376927 0.500186 -0.124749
C32   C     C_R   0.936083 0.622680 0.499986 -0.096125
C33   C     C_R   0.936204 0.376904 0.499398 -0.118815
C34   C     C_R   0.063736 0.622681 0.501249 -0.076634
C35   C     C_R   0.872458 0.499826 0.499501 -0.045757
C36   C     C_R   0.127525 0.499872 0.500750 -0.042471
C37   C     C_R   0.560711 0.071101 0.542361 0.228440
C38   C     C_R   0.437286 0.928108 0.458234 0.240227
C39   C     C_R   0.439175 0.071704 0.457658 0.225743
C40   C     C_R   0.562481 0.927570 0.541771 0.233397
N3    N     N_R   0.500000 0.857200 0.500000 -0.222191
N4    N     N_R   0.500000 0.142800 0.500000 -0.224111
H9    H     H_    0.658456 0.650753 0.218220 0.194219
H10   H     H_    0.385686 0.688734 0.783091 0.199041
N5    N     N_R   0.689307 0.660076 0.330057 0.197621
O13   O     O_R   0.806259 0.638631 0.319517 -0.338632
O14   O     O_R   0.658984 0.767551 0.358260 -0.315360
N6    N     N_R   0.341141 0.694329 0.671435 0.237343
O15   O     O_R   0.323782 0.815678 0.690786 -0.311442
O16   O     O_R   0.267970 0.649967 0.630645 -0.388776
H11   H     H_    0.112221 0.281001 0.500370 0.209591
H12   H     H_    0.887881 0.718592 0.499431 0.214366
H13   H     H_    0.888011 0.280982 0.498664 0.208125
H14   H     H_    0.111801 0.718547 0.502613 0.215534
N7    N     N_R   0.621010 0.140016 0.588595 0.250043
O17   O     O_R   0.582850 0.119331 0.640109 -0.339716
O18   O     O_R   0.729508 0.194950 0.581396 -0.374157
N8    N     N_R   0.364908 0.857706 0.415960 0.263626
O19   O     O_R   0.404499 0.849802 0.364063 -0.278340
O20   O     O_R   0.248468 0.831721 0.425522 -0.368876
N9    N     N_R   0.377322 0.141613 0.411991 0.253776
O21   O     O_R   0.265766 0.189205 0.418993 -0.375289
O22   O     O_R   0.419618 0.130504 0.360669 -0.339176
N10   N     N_R   0.633535 0.856536 0.584403 0.262087
O23   O     O_R   0.751587 0.835349 0.576707 -0.365965
O24   O     O_R   0.589419 0.842693 0.635284 -0.296938

loop_
_geom_bond_atom_site_label_1
_geom_bond_atom_site_label_2
_geom_bond_distance
_ccdc_geom_bond_type
C32   H12   1.082139 S    
C15   C17   1.391473 A    
O3    C2    1.289008 A    
C19   C21   1.392630 A    
Zn1   N3    2.024010 S    
N9    O21   1.299398 A    
O5    C3    1.292592 A    
C28   C30   1.398742 A    
O1    C1    1.289486 A    
C7    C9    1.395742 A    
C12   C14   1.406925 A    
C33   C35   1.397197 A    
C34   C36   1.396598 A    
C18   H4    1.083207 S    
N5    O14   1.300026 A    
O7    Zn1   2.002528 S    
N2    C29   1.432493 S    
C37   N4    1.373236 A    
C27   H7    1.082866 S    
C28   H8    1.082844 S    
C11   C12   1.404797 A    
C3    C23   1.449956 S    
C38   N3    1.369335 A    
C8    O12   1.349851 S    
C25   H5    1.081662 S    
C38   N8    1.428978 S    
C39   N4    1.372260 A    
C10   C16   1.404238 A    
C31   C36   1.397498 A    
C39   N9    1.426239 S    
C21   C23   1.412018 A    
O2    C2    1.288974 A    
C22   C24   1.415961 A    
C24   C26   1.398015 A    
N9    O22   1.300338 A    
C9    C11   1.406915 A    
C6    C14   1.395750 A    
C26   H6    1.078209 S    
C33   H13   1.082959 S    
N6    O16   1.301291 A    
O8    Zn2   2.002530 S    
N7    O18   1.299307 A    
N6    O15   1.301452 A    
C15   H1    1.083223 S    
C37   C40   1.423700 A    
C38   C39   1.424357 A    
C25   C27   1.385455 A    
O6    C4    1.301627 A    
C22   N6    1.438911 S    
Zn2   N4    2.024010 S    
C23   C25   1.398030 A    
N10   O24   1.300415 A    
C20   C30   1.400573 A    
C31   C33   1.369255 A    
C7    O11   1.350034 S    
C9    C15   1.403912 A    
C10   C12   1.407051 A    
O1    Zn1   2.001783 S    
C21   N5    1.434145 S    
C13   C18   1.404186 A    
C5    N1    1.371232 A    
O6    Zn2   2.003489 S    
C1    C36   1.421908 S    
C19   H9    1.083293 S    
C2    C35   1.421670 S    
C8    C10   1.397075 A    
O4    C1    1.288598 A    
O3    Zn1   2.001167 S    
C5    O9    1.349861 S    
C6    O10   1.350039 S    
C26   C28   1.384696 A    
N8    O20   1.299297 A    
C32   C35   1.396856 A    
C40   N3    1.367354 A    
C16   C18   1.392555 A    
C31   H11   1.082759 S    
C4    C24   1.455824 S    
C19   C29   1.401206 A    
C37   N7    1.425882 S    
C27   C29   1.400405 A    
C20   C22   1.395320 A    
N1    C7    1.371533 A    
C32   C34   1.368458 A    
N2    C8    1.371484 A    
C11   C13   1.407156 A    
O4    Zn2   2.001169 S    
N5    O13   1.300836 A    
O2    Zn2   2.001782 S    
O7    C4    1.292762 A    
C5    C13   1.397061 A    
O8    C3    1.299205 A    
C34   H14   1.082032 S    
N7    O17   1.300160 A    
O5    Zn1   2.003492 S    
N10   O23   1.299495 A    
C16   H2    1.083199 S    
C14   C17   1.403884 A    
C6    N2    1.371486 A    
N8    O19   1.300291 A    
C20   H10   1.083078 S    
C17   H3    1.083223 S    
N1    C30   1.432318 S    
C40   N10   1.428511 S    
